MODEL 1
REMARK VINA RESULT:    -7.904      0.000      0.000
REMARK INTER + INTRA:         -10.178
REMARK INTER:                  -9.752
REMARK INTRA:                  -0.426
REMARK UNBOUND:                -0.426
REMARK  Name = 
REMARK  5 active torsions:
REMARK  status: ('A' for Active; 'I' for Inactive)
REMARK    1  A    between atoms: N_1  and  C_2
REMARK    2  A    between atoms: C_2  and  C_3
REMARK    3  A    between atoms: C_6  and  C_7
REMARK    4  A    between atoms: C_7  and  N_8
REMARK    5  A    between atoms: C_13  and  N_14
REMARK                            x       y       z     vdW  Elec       q    Type
REMARK                         _______ _______ _______ _____ _____    ______ ____
ROOT
ATOM      1  N   UNL     1      44.038   4.276  10.847  0.00  0.00    +0.000 N 
ATOM      2  C   UNL     1      43.367   3.372  11.635  0.00  0.00    +0.000 A 
ATOM      3  C   UNL     1      43.910   3.421  12.898  0.00  0.00    +0.000 A 
ATOM      4  C   UNL     1      44.954   4.384  12.883  0.00  0.00    +0.000 A 
ATOM      5  C   UNL     1      45.885   4.827  13.848  0.00  0.00    +0.000 A 
ATOM      6  C   UNL     1      46.814   5.827  13.529  0.00  0.00    +0.000 A 
ATOM      7  C   UNL     1      46.856   6.320  12.224  0.00  0.00    +0.000 A 
ATOM      8  C   UNL     1      45.944   5.905  11.247  0.00  0.00    +0.000 A 
ATOM      9  C   UNL     1      45.004   4.924  11.596  0.00  0.00    +0.000 A 
ENDROOT
BRANCH   6  10
ATOM     10  N   UNL     1      47.835   6.148  14.436  0.00  0.00    +0.000 N 
ATOM     11  H   UNL     1      47.716   5.721  15.348  0.00  0.00    +0.000 HD
ATOM     12  H   UNL     1      48.027   7.144  14.495  0.00  0.00    +0.000 HD
ENDBRANCH   6  10
BRANCH   1  13
ATOM     13  C   UNL     1      43.885   4.371   9.399  0.00  0.00    +0.000 C 
BRANCH  13  17
ATOM     14  C   UNL     1      47.071   2.403   7.343  0.00  0.00    +0.000 A 
ATOM     15  C   UNL     1      46.221   1.656   8.160  0.00  0.00    +0.000 A 
ATOM     16  C   UNL     1      45.156   2.278   8.809  0.00  0.00    +0.000 A 
ATOM     17  C   UNL     1      44.971   3.651   8.643  0.00  0.00    +0.000 A 
ATOM     18  N   UNL     1      45.789   4.398   7.859  0.00  0.00    +0.000 NA
ATOM     19  C   UNL     1      46.802   3.761   7.226  0.00  0.00    +0.000 A 
BRANCH  14  20
ATOM     20  C   UNL     1      48.239   1.775   6.638  0.00  0.00    +0.000 C 
BRANCH  20  21
ATOM     21  N   UNL     1      48.348   2.237   5.260  0.00  0.00    +0.000 NA
ATOM     22  H   UNL     1      49.287   2.047   4.914  0.00  0.00    +0.000 HD
ATOM     23  H   UNL     1      48.237   3.251   5.240  0.00  0.00    +0.000 HD
ENDBRANCH  20  21
ENDBRANCH  14  20
ENDBRANCH  13  17
ENDBRANCH   1  13
TORSDOF 5
ENDMDL
MODEL 2
REMARK VINA RESULT:    -7.433      1.595      2.071
REMARK INTER + INTRA:          -9.597
REMARK INTER:                  -9.101
REMARK INTRA:                  -0.496
REMARK UNBOUND:                -0.426
REMARK  Name = 
REMARK  5 active torsions:
REMARK  status: ('A' for Active; 'I' for Inactive)
REMARK    1  A    between atoms: N_1  and  C_2
REMARK    2  A    between atoms: C_2  and  C_3
REMARK    3  A    between atoms: C_6  and  C_7
REMARK    4  A    between atoms: C_7  and  N_8
REMARK    5  A    between atoms: C_13  and  N_14
REMARK                            x       y       z     vdW  Elec       q    Type
REMARK                         _______ _______ _______ _____ _____    ______ ____
ROOT
ATOM      1  N   UNL     1      44.869   3.959  11.690  0.00  0.00    +0.000 N 
ATOM      2  C   UNL     1      45.697   3.283  12.556  0.00  0.00    +0.000 A 
ATOM      3  C   UNL     1      46.359   4.212  13.324  0.00  0.00    +0.000 A 
ATOM      4  C   UNL     1      45.928   5.501  12.914  0.00  0.00    +0.000 A 
ATOM      5  C   UNL     1      46.284   6.814  13.292  0.00  0.00    +0.000 A 
ATOM      6  C   UNL     1      45.659   7.918  12.696  0.00  0.00    +0.000 A 
ATOM      7  C   UNL     1      44.738   7.700  11.669  0.00  0.00    +0.000 A 
ATOM      8  C   UNL     1      44.361   6.411  11.275  0.00  0.00    +0.000 A 
ATOM      9  C   UNL     1      44.980   5.321  11.904  0.00  0.00    +0.000 A 
ENDROOT
BRANCH   6  10
ATOM     10  N   UNL     1      46.126   9.213  12.959  0.00  0.00    +0.000 N 
ATOM     11  H   UNL     1      46.935   9.236  13.571  0.00  0.00    +0.000 HD
ATOM     12  H   UNL     1      45.397   9.855  13.256  0.00  0.00    +0.000 HD
ENDBRANCH   6  10
BRANCH   1  13
ATOM     13  C   UNL     1      44.155   3.331  10.583  0.00  0.00    +0.000 C 
BRANCH  13  17
ATOM     14  C   UNL     1      46.525   2.537   7.118  0.00  0.00    +0.000 A 
ATOM     15  C   UNL     1      46.064   3.835   7.348  0.00  0.00    +0.000 A 
ATOM     16  C   UNL     1      45.320   4.117   8.493  0.00  0.00    +0.000 A 
ATOM     17  C   UNL     1      45.031   3.082   9.383  0.00  0.00    +0.000 A 
ATOM     18  N   UNL     1      45.463   1.812   9.176  0.00  0.00    +0.000 NA
ATOM     19  C   UNL     1      46.200   1.575   8.066  0.00  0.00    +0.000 A 
BRANCH  14  20
ATOM     20  C   UNL     1      47.316   2.189   5.890  0.00  0.00    +0.000 C 
BRANCH  20  21
ATOM     21  N   UNL     1      48.750   2.203   6.152  0.00  0.00    +0.000 NA
ATOM     22  H   UNL     1      49.179   1.387   5.719  0.00  0.00    +0.000 HD
ATOM     23  H   UNL     1      48.905   2.108   7.155  0.00  0.00    +0.000 HD
ENDBRANCH  20  21
ENDBRANCH  14  20
ENDBRANCH  13  17
ENDBRANCH   1  13
TORSDOF 5
ENDMDL
MODEL 3
REMARK VINA RESULT:    -6.974      1.299      2.061
REMARK INTER + INTRA:          -9.031
REMARK INTER:                  -8.617
REMARK INTRA:                  -0.414
REMARK UNBOUND:                -0.426
REMARK  Name = 
REMARK  5 active torsions:
REMARK  status: ('A' for Active; 'I' for Inactive)
REMARK    1  A    between atoms: N_1  and  C_2
REMARK    2  A    between atoms: C_2  and  C_3
REMARK    3  A    between atoms: C_6  and  C_7
REMARK    4  A    between atoms: C_7  and  N_8
REMARK    5  A    between atoms: C_13  and  N_14
REMARK                            x       y       z     vdW  Elec       q    Type
REMARK                         _______ _______ _______ _____ _____    ______ ____
ROOT
ATOM      1  N   UNL     1      44.600   5.132  11.047  0.00  0.00    +0.000 N 
ATOM      2  C   UNL     1      44.309   6.476  11.045  0.00  0.00    +0.000 A 
ATOM      3  C   UNL     1      44.936   7.049  12.126  0.00  0.00    +0.000 A 
ATOM      4  C   UNL     1      45.632   6.023  12.819  0.00  0.00    +0.000 A 
ATOM      5  C   UNL     1      46.397   5.994  14.005  0.00  0.00    +0.000 A 
ATOM      6  C   UNL     1      46.982   4.797  14.442  0.00  0.00    +0.000 A 
ATOM      7  C   UNL     1      46.730   3.623  13.731  0.00  0.00    +0.000 A 
ATOM      8  C   UNL     1      45.979   3.620  12.550  0.00  0.00    +0.000 A 
ATOM      9  C   UNL     1      45.427   4.834  12.116  0.00  0.00    +0.000 A 
ENDROOT
BRANCH   6  10
ATOM     10  N   UNL     1      47.604   4.740  15.697  0.00  0.00    +0.000 N 
ATOM     11  H   UNL     1      48.465   4.202  15.698  0.00  0.00    +0.000 HD
ATOM     12  H   UNL     1      46.977   4.471  16.450  0.00  0.00    +0.000 HD
ENDBRANCH   6  10
BRANCH   1  13
ATOM     13  C   UNL     1      43.958   4.154  10.176  0.00  0.00    +0.000 C 
BRANCH  13  17
ATOM     14  C   UNL     1      46.569   2.181   7.430  0.00  0.00    +0.000 A 
ATOM     15  C   UNL     1      46.445   3.570   7.377  0.00  0.00    +0.000 A 
ATOM     16  C   UNL     1      45.624   4.232   8.289  0.00  0.00    +0.000 A 
ATOM     17  C   UNL     1      44.921   3.482   9.233  0.00  0.00    +0.000 A 
ATOM     18  N   UNL     1      45.022   2.130   9.299  0.00  0.00    +0.000 NA
ATOM     19  C   UNL     1      45.843   1.520   8.413  0.00  0.00    +0.000 A 
BRANCH  14  20
ATOM     20  C   UNL     1      47.431   1.429   6.457  0.00  0.00    +0.000 C 
BRANCH  20  21
ATOM     21  N   UNL     1      48.597   2.207   6.057  0.00  0.00    +0.000 NA
ATOM     22  H   UNL     1      48.975   1.826   5.192  0.00  0.00    +0.000 HD
ATOM     23  H   UNL     1      49.327   2.097   6.761  0.00  0.00    +0.000 HD
ENDBRANCH  20  21
ENDBRANCH  14  20
ENDBRANCH  13  17
ENDBRANCH   1  13
TORSDOF 5
ENDMDL
MODEL 4
REMARK VINA RESULT:    -6.338      1.884      6.123
REMARK INTER + INTRA:          -8.246
REMARK INTER:                  -7.917
REMARK INTRA:                  -0.329
REMARK UNBOUND:                -0.426
REMARK  Name = 
REMARK  5 active torsions:
REMARK  status: ('A' for Active; 'I' for Inactive)
REMARK    1  A    between atoms: N_1  and  C_2
REMARK    2  A    between atoms: C_2  and  C_3
REMARK    3  A    between atoms: C_6  and  C_7
REMARK    4  A    between atoms: C_7  and  N_8
REMARK    5  A    between atoms: C_13  and  N_14
REMARK                            x       y       z     vdW  Elec       q    Type
REMARK                         _______ _______ _______ _____ _____    ______ ____
ROOT
ATOM      1  N   UNL     1      44.046   4.556  10.763  0.00  0.00    +0.000 N 
ATOM      2  C   UNL     1      43.457   3.518  11.447  0.00  0.00    +0.000 A 
ATOM      3  C   UNL     1      43.857   2.340  10.860  0.00  0.00    +0.000 A 
ATOM      4  C   UNL     1      44.717   2.665   9.777  0.00  0.00    +0.000 A 
ATOM      5  C   UNL     1      45.382   1.897   8.797  0.00  0.00    +0.000 A 
ATOM      6  C   UNL     1      46.191   2.521   7.837  0.00  0.00    +0.000 A 
ATOM      7  C   UNL     1      46.265   3.914   7.817  0.00  0.00    +0.000 A 
ATOM      8  C   UNL     1      45.621   4.703   8.778  0.00  0.00    +0.000 A 
ATOM      9  C   UNL     1      44.839   4.056   9.746  0.00  0.00    +0.000 A 
ENDROOT
BRANCH   6  10
ATOM     10  N   UNL     1      46.719   1.773   6.775  0.00  0.00    +0.000 N 
ATOM     11  H   UNL     1      46.170   0.952   6.544  0.00  0.00    +0.000 HD
ATOM     12  H   UNL     1      47.707   1.563   6.878  0.00  0.00    +0.000 HD
ENDBRANCH   6  10
BRANCH   1  13
ATOM     13  C   UNL     1      43.707   5.961  10.960  0.00  0.00    +0.000 C 
BRANCH  13  17
ATOM     14  C   UNL     1      46.686   8.220  13.027  0.00  0.00    +0.000 A 
ATOM     15  C   UNL     1      46.727   6.825  13.080  0.00  0.00    +0.000 A 
ATOM     16  C   UNL     1      45.783   6.074  12.382  0.00  0.00    +0.000 A 
ATOM     17  C   UNL     1      44.795   6.738  11.653  0.00  0.00    +0.000 A 
ATOM     18  N   UNL     1      44.733   8.093  11.593  0.00  0.00    +0.000 NA
ATOM     19  C   UNL     1      45.676   8.793  12.265  0.00  0.00    +0.000 A 
BRANCH  14  20
ATOM     20  C   UNL     1      47.675   9.066  13.777  0.00  0.00    +0.000 C 
BRANCH  20  21
ATOM     21  N   UNL     1      47.450   9.010  15.216  0.00  0.00    +0.000 NA
ATOM     22  H   UNL     1      46.805   9.752  15.484  0.00  0.00    +0.000 HD
ATOM     23  H   UNL     1      48.327   9.206  15.697  0.00  0.00    +0.000 HD
ENDBRANCH  20  21
ENDBRANCH  14  20
ENDBRANCH  13  17
ENDBRANCH   1  13
TORSDOF 5
ENDMDL
MODEL 5
REMARK VINA RESULT:    -5.712      2.145      3.509
REMARK INTER + INTRA:          -7.474
REMARK INTER:                  -7.086
REMARK INTRA:                  -0.388
REMARK UNBOUND:                -0.426
REMARK  Name = 
REMARK  5 active torsions:
REMARK  status: ('A' for Active; 'I' for Inactive)
REMARK    1  A    between atoms: N_1  and  C_2
REMARK    2  A    between atoms: C_2  and  C_3
REMARK    3  A    between atoms: C_6  and  C_7
REMARK    4  A    between atoms: C_7  and  N_8
REMARK    5  A    between atoms: C_13  and  N_14
REMARK                            x       y       z     vdW  Elec       q    Type
REMARK                         _______ _______ _______ _____ _____    ______ ____
ROOT
ATOM      1  N   UNL     1      45.797   5.908  13.018  0.00  0.00    +0.000 N 
ATOM      2  C   UNL     1      46.737   5.173  13.702  0.00  0.00    +0.000 A 
ATOM      3  C   UNL     1      47.769   6.015  14.046  0.00  0.00    +0.000 A 
ATOM      4  C   UNL     1      47.455   7.310  13.554  0.00  0.00    +0.000 A 
ATOM      5  C   UNL     1      48.139   8.545  13.555  0.00  0.00    +0.000 A 
ATOM      6  C   UNL     1      47.550   9.681  12.982  0.00  0.00    +0.000 A 
ATOM      7  C   UNL     1      46.317   9.554  12.342  0.00  0.00    +0.000 A 
ATOM      8  C   UNL     1      45.612   8.345  12.328  0.00  0.00    +0.000 A 
ATOM      9  C   UNL     1      46.208   7.227  12.932  0.00  0.00    +0.000 A 
ENDROOT
BRANCH   6  10
ATOM     10  N   UNL     1      48.295  10.861  12.845  0.00  0.00    +0.000 N 
ATOM     11  H   UNL     1      47.839  11.677  13.240  0.00  0.00    +0.000 HD
ATOM     12  H   UNL     1      48.630  11.023  11.900  0.00  0.00    +0.000 HD
ENDBRANCH   6  10
BRANCH   1  13
ATOM     13  C   UNL     1      44.657   5.329  12.318  0.00  0.00    +0.000 C 
BRANCH  13  17
ATOM     14  C   UNL     1      45.529   3.740   8.449  0.00  0.00    +0.000 A 
ATOM     15  C   UNL     1      45.958   5.029   8.771  0.00  0.00    +0.000 A 
ATOM     16  C   UNL     1      45.712   5.548  10.041  0.00  0.00    +0.000 A 
ATOM     17  C   UNL     1      45.018   4.768  10.967  0.00  0.00    +0.000 A 
ATOM     18  N   UNL     1      44.586   3.515  10.674  0.00  0.00    +0.000 NA
ATOM     19  C   UNL     1      44.859   3.032   9.439  0.00  0.00    +0.000 A 
BRANCH  14  20
ATOM     20  C   UNL     1      45.761   3.150   7.088  0.00  0.00    +0.000 C 
BRANCH  20  21
ATOM     21  N   UNL     1      46.798   3.870   6.358  0.00  0.00    +0.000 NA
ATOM     22  H   UNL     1      47.425   3.201   5.916  0.00  0.00    +0.000 HD
ATOM     23  H   UNL     1      47.365   4.397   7.021  0.00  0.00    +0.000 HD
ENDBRANCH  20  21
ENDBRANCH  14  20
ENDBRANCH  13  17
ENDBRANCH   1  13
TORSDOF 5
ENDMDL
MODEL 6
REMARK VINA RESULT:    -5.596      1.547      6.453
REMARK INTER + INTRA:          -7.331
REMARK INTER:                  -7.216
REMARK INTRA:                  -0.115
REMARK UNBOUND:                -0.426
REMARK  Name = 
REMARK  5 active torsions:
REMARK  status: ('A' for Active; 'I' for Inactive)
REMARK    1  A    between atoms: N_1  and  C_2
REMARK    2  A    between atoms: C_2  and  C_3
REMARK    3  A    between atoms: C_6  and  C_7
REMARK    4  A    between atoms: C_7  and  N_8
REMARK    5  A    between atoms: C_13  and  N_14
REMARK                            x       y       z     vdW  Elec       q    Type
REMARK                         _______ _______ _______ _____ _____    ______ ____
ROOT
ATOM      1  N   UNL     1      45.081   3.785   9.819  0.00  0.00    +0.000 N 
ATOM      2  C   UNL     1      45.234   5.121   9.533  0.00  0.00    +0.000 A 
ATOM      3  C   UNL     1      45.985   5.229   8.386  0.00  0.00    +0.000 A 
ATOM      4  C   UNL     1      46.308   3.915   7.954  0.00  0.00    +0.000 A 
ATOM      5  C   UNL     1      47.080   3.401   6.890  0.00  0.00    +0.000 A 
ATOM      6  C   UNL     1      47.210   2.017   6.712  0.00  0.00    +0.000 A 
ATOM      7  C   UNL     1      46.630   1.158   7.647  0.00  0.00    +0.000 A 
ATOM      8  C   UNL     1      45.854   1.636   8.709  0.00  0.00    +0.000 A 
ATOM      9  C   UNL     1      45.715   3.025   8.852  0.00  0.00    +0.000 A 
ENDROOT
BRANCH   6  10
ATOM     10  N   UNL     1      48.103   1.515   5.755  0.00  0.00    +0.000 N 
ATOM     11  H   UNL     1      48.685   2.229   5.329  0.00  0.00    +0.000 HD
ATOM     12  H   UNL     1      47.664   0.910   5.067  0.00  0.00    +0.000 HD
ENDBRANCH   6  10
BRANCH   1  13
ATOM     13  C   UNL     1      44.517   3.273  11.063  0.00  0.00    +0.000 C 
BRANCH  13  17
ATOM     14  C   UNL     1      46.776   4.585  14.444  0.00  0.00    +0.000 A 
ATOM     15  C   UNL     1      45.881   5.467  13.836  0.00  0.00    +0.000 A 
ATOM     16  C   UNL     1      45.111   5.043  12.754  0.00  0.00    +0.000 A 
ATOM     17  C   UNL     1      45.267   3.738  12.284  0.00  0.00    +0.000 A 
ATOM     18  N   UNL     1      46.136   2.866  12.855  0.00  0.00    +0.000 NA
ATOM     19  C   UNL     1      46.854   3.301  13.916  0.00  0.00    +0.000 A 
BRANCH  14  20
ATOM     20  C   UNL     1      47.635   5.007  15.602  0.00  0.00    +0.000 C 
BRANCH  20  21
ATOM     21  N   UNL     1      48.284   3.866  16.235  0.00  0.00    +0.000 NA
ATOM     22  H   UNL     1      48.493   3.162  15.529  0.00  0.00    +0.000 HD
ATOM     23  H   UNL     1      47.629   3.431  16.885  0.00  0.00    +0.000 HD
ENDBRANCH  20  21
ENDBRANCH  14  20
ENDBRANCH  13  17
ENDBRANCH   1  13
TORSDOF 5
ENDMDL
MODEL 7
REMARK VINA RESULT:    -5.553      4.391      7.845
REMARK INTER + INTRA:          -7.278
REMARK INTER:                  -6.881
REMARK INTRA:                  -0.397
REMARK UNBOUND:                -0.426
REMARK  Name = 
REMARK  5 active torsions:
REMARK  status: ('A' for Active; 'I' for Inactive)
REMARK    1  A    between atoms: N_1  and  C_2
REMARK    2  A    between atoms: C_2  and  C_3
REMARK    3  A    between atoms: C_6  and  C_7
REMARK    4  A    between atoms: C_7  and  N_8
REMARK    5  A    between atoms: C_13  and  N_14
REMARK                            x       y       z     vdW  Elec       q    Type
REMARK                         _______ _______ _______ _____ _____    ______ ____
ROOT
ATOM      1  N   UNL     1      46.917   4.782  13.746  0.00  0.00    +0.000 N 
ATOM      2  C   UNL     1      47.915   5.671  13.423  0.00  0.00    +0.000 A 
ATOM      3  C   UNL     1      47.365   6.668  12.652  0.00  0.00    +0.000 A 
ATOM      4  C   UNL     1      45.983   6.381  12.492  0.00  0.00    +0.000 A 
ATOM      5  C   UNL     1      44.935   7.002  11.779  0.00  0.00    +0.000 A 
ATOM      6  C   UNL     1      43.638   6.472  11.823  0.00  0.00    +0.000 A 
ATOM      7  C   UNL     1      43.416   5.281  12.516  0.00  0.00    +0.000 A 
ATOM      8  C   UNL     1      44.433   4.645  13.237  0.00  0.00    +0.000 A 
ATOM      9  C   UNL     1      45.718   5.208  13.202  0.00  0.00    +0.000 A 
ENDROOT
BRANCH   6  10
ATOM     10  N   UNL     1      42.640   6.997  10.990  0.00  0.00    +0.000 N 
ATOM     11  H   UNL     1      41.844   7.372  11.496  0.00  0.00    +0.000 HD
ATOM     12  H   UNL     1      42.362   6.368  10.242  0.00  0.00    +0.000 HD
ENDBRANCH   6  10
BRANCH   1  13
ATOM     13  C   UNL     1      47.147   3.490  14.382  0.00  0.00    +0.000 C 
BRANCH  13  17
ATOM     14  C   UNL     1      48.655   3.901  18.358  0.00  0.00    +0.000 A 
ATOM     15  C   UNL     1      47.529   4.633  17.975  0.00  0.00    +0.000 A 
ATOM     16  C   UNL     1      47.004   4.482  16.692  0.00  0.00    +0.000 A 
ATOM     17  C   UNL     1      47.633   3.611  15.803  0.00  0.00    +0.000 A 
ATOM     18  N   UNL     1      48.732   2.895  16.152  0.00  0.00    +0.000 NA
ATOM     19  C   UNL     1      49.205   3.047  17.410  0.00  0.00    +0.000 A 
BRANCH  14  20
ATOM     20  C   UNL     1      49.260   4.046  19.725  0.00  0.00    +0.000 C 
BRANCH  20  21
ATOM     21  N   UNL     1      48.263   3.882  20.775  0.00  0.00    +0.000 NA
ATOM     22  H   UNL     1      47.490   3.321  20.422  0.00  0.00    +0.000 HD
ATOM     23  H   UNL     1      47.870   4.795  21.005  0.00  0.00    +0.000 HD
ENDBRANCH  20  21
ENDBRANCH  14  20
ENDBRANCH  13  17
ENDBRANCH   1  13
TORSDOF 5
ENDMDL
MODEL 8
REMARK VINA RESULT:    -5.314      2.593      6.343
REMARK INTER + INTRA:          -6.983
REMARK INTER:                  -6.523
REMARK INTRA:                  -0.460
REMARK UNBOUND:                -0.426
REMARK  Name = 
REMARK  5 active torsions:
REMARK  status: ('A' for Active; 'I' for Inactive)
REMARK    1  A    between atoms: N_1  and  C_2
REMARK    2  A    between atoms: C_2  and  C_3
REMARK    3  A    between atoms: C_6  and  C_7
REMARK    4  A    between atoms: C_7  and  N_8
REMARK    5  A    between atoms: C_13  and  N_14
REMARK                            x       y       z     vdW  Elec       q    Type
REMARK                         _______ _______ _______ _____ _____    ______ ____
ROOT
ATOM      1  N   UNL     1      45.518   6.251  12.075  0.00  0.00    +0.000 N 
ATOM      2  C   UNL     1      45.080   5.669  13.242  0.00  0.00    +0.000 A 
ATOM      3  C   UNL     1      44.653   4.395  12.948  0.00  0.00    +0.000 A 
ATOM      4  C   UNL     1      44.829   4.189  11.554  0.00  0.00    +0.000 A 
ATOM      5  C   UNL     1      44.531   3.120  10.681  0.00  0.00    +0.000 A 
ATOM      6  C   UNL     1      44.840   3.212   9.317  0.00  0.00    +0.000 A 
ATOM      7  C   UNL     1      45.372   4.403   8.822  0.00  0.00    +0.000 A 
ATOM      8  C   UNL     1      45.683   5.479   9.662  0.00  0.00    +0.000 A 
ATOM      9  C   UNL     1      45.391   5.355  11.029  0.00  0.00    +0.000 A 
ENDROOT
BRANCH   6  10
ATOM     10  N   UNL     1      44.400   2.217   8.432  0.00  0.00    +0.000 N 
ATOM     11  H   UNL     1      43.779   1.538   8.860  0.00  0.00    +0.000 HD
ATOM     12  H   UNL     1      45.151   1.779   7.907  0.00  0.00    +0.000 HD
ENDBRANCH   6  10
BRANCH   1  13
ATOM     13  C   UNL     1      45.858   7.664  11.944  0.00  0.00    +0.000 C 
BRANCH  13  17
ATOM     14  C   UNL     1      49.744   8.480  13.522  0.00  0.00    +0.000 A 
ATOM     15  C   UNL     1      49.628   7.853  12.279  0.00  0.00    +0.000 A 
ATOM     16  C   UNL     1      48.368   7.613  11.735  0.00  0.00    +0.000 A 
ATOM     17  C   UNL     1      47.236   7.988  12.460  0.00  0.00    +0.000 A 
ATOM     18  N   UNL     1      47.324   8.592  13.672  0.00  0.00    +0.000 NA
ATOM     19  C   UNL     1      48.562   8.830  14.164  0.00  0.00    +0.000 A 
BRANCH  14  20
ATOM     20  C   UNL     1      51.082   8.744  14.150  0.00  0.00    +0.000 C 
BRANCH  20  21
ATOM     21  N   UNL     1      52.130   7.929  13.546  0.00  0.00    +0.000 NA
ATOM     22  H   UNL     1      52.900   7.829  14.205  0.00  0.00    +0.000 HD
ATOM     23  H   UNL     1      52.509   8.422  12.738  0.00  0.00    +0.000 HD
ENDBRANCH  20  21
ENDBRANCH  14  20
ENDBRANCH  13  17
ENDBRANCH   1  13
TORSDOF 5
ENDMDL
MODEL 9
REMARK VINA RESULT:    -5.296      4.778      7.730
REMARK INTER + INTRA:          -6.960
REMARK INTER:                  -6.505
REMARK INTRA:                  -0.456
REMARK UNBOUND:                -0.426
REMARK  Name = 
REMARK  5 active torsions:
REMARK  status: ('A' for Active; 'I' for Inactive)
REMARK    1  A    between atoms: N_1  and  C_2
REMARK    2  A    between atoms: C_2  and  C_3
REMARK    3  A    between atoms: C_6  and  C_7
REMARK    4  A    between atoms: C_7  and  N_8
REMARK    5  A    between atoms: C_13  and  N_14
REMARK                            x       y       z     vdW  Elec       q    Type
REMARK                         _______ _______ _______ _____ _____    ______ ____
ROOT
ATOM      1  N   UNL     1      47.361   5.069  15.019  0.00  0.00    +0.000 N 
ATOM      2  C   UNL     1      46.444   4.437  14.212  0.00  0.00    +0.000 A 
ATOM      3  C   UNL     1      46.473   5.042  12.978  0.00  0.00    +0.000 A 
ATOM      4  C   UNL     1      47.436   6.085  13.028  0.00  0.00    +0.000 A 
ATOM      5  C   UNL     1      47.863   7.063  12.104  0.00  0.00    +0.000 A 
ATOM      6  C   UNL     1      48.867   7.976  12.452  0.00  0.00    +0.000 A 
ATOM      7  C   UNL     1      49.382   7.954  13.749  0.00  0.00    +0.000 A 
ATOM      8  C   UNL     1      48.983   6.994  14.686  0.00  0.00    +0.000 A 
ATOM      9  C   UNL     1      47.996   6.072  14.308  0.00  0.00    +0.000 A 
ENDROOT
BRANCH   6  10
ATOM     10  N   UNL     1      49.174   9.041  11.592  0.00  0.00    +0.000 N 
ATOM     11  H   UNL     1      49.507   9.869  12.075  0.00  0.00    +0.000 HD
ATOM     12  H   UNL     1      48.436   9.251  10.927  0.00  0.00    +0.000 HD
ENDBRANCH   6  10
BRANCH   1  13
ATOM     13  C   UNL     1      47.480   4.844  16.455  0.00  0.00    +0.000 C 
BRANCH  13  17
ATOM     14  C   UNL     1      50.891   2.430  17.345  0.00  0.00    +0.000 A 
ATOM     15  C   UNL     1      50.896   3.780  17.703  0.00  0.00    +0.000 A 
ATOM     16  C   UNL     1      49.777   4.572  17.451  0.00  0.00    +0.000 A 
ATOM     17  C   UNL     1      48.671   3.999  16.823  0.00  0.00    +0.000 A 
ATOM     18  N   UNL     1      48.646   2.691  16.460  0.00  0.00    +0.000 NA
ATOM     19  C   UNL     1      49.740   1.944  16.736  0.00  0.00    +0.000 A 
BRANCH  14  20
ATOM     20  C   UNL     1      52.081   1.547  17.585  0.00  0.00    +0.000 C 
BRANCH  20  21
ATOM     21  N   UNL     1      51.689   0.245  18.111  0.00  0.00    +0.000 NA
ATOM     22  H   UNL     1      51.649   0.292  19.128  0.00  0.00    +0.000 HD
ATOM     23  H   UNL     1      52.413  -0.436  17.884  0.00  0.00    +0.000 HD
ENDBRANCH  20  21
ENDBRANCH  14  20
ENDBRANCH  13  17
ENDBRANCH   1  13
TORSDOF 5
ENDMDL
