MODEL 1
REMARK VINA RESULT:    -7.533      0.000      0.000
REMARK INTER + INTRA:         -11.209
REMARK INTER:                 -10.176
REMARK INTRA:                  -1.034
REMARK UNBOUND:                -1.034
REMARK  Name = 
REMARK  7 active torsions:
REMARK  status: ('A' for Active; 'I' for Inactive)
REMARK    1  A    between atoms: C_1  and  C_2
REMARK    2  A    between atoms: C_2  and  N_3
REMARK    3  A    between atoms: C_2  and  C_18
REMARK    4  A    between atoms: N_3  and  C_4
REMARK    5  A    between atoms: C_7  and  C_8
REMARK    6  A    between atoms: C_8  and  N_9
REMARK    7  A    between atoms: N_9  and  C_10
REMARK                            x       y       z     vdW  Elec       q    Type
REMARK                         _______ _______ _______ _____ _____    ______ ____
ROOT
ATOM      1  C   UNL     1      46.189   6.358  12.882  0.00  0.00    +0.000 A 
ATOM      2  C   UNL     1      46.402   6.390  11.499  0.00  0.00    +0.000 A 
ATOM      3  C   UNL     1      45.708   5.532  10.637  0.00  0.00    +0.000 A 
ATOM      4  C   UNL     1      44.756   4.639  11.141  0.00  0.00    +0.000 A 
ATOM      5  C   UNL     1      44.476   4.685  12.507  0.00  0.00    +0.000 A 
ATOM      6  F   UNL     1      43.523   3.895  13.025  0.00  0.00    +0.000 F 
ATOM      7  C   UNL     1      45.190   5.516  13.369  0.00  0.00    +0.000 A 
ENDROOT
BRANCH   1   8
ATOM      8  N   UNL     1      47.049   7.061  13.702  0.00  0.00    +0.000 N 
ATOM      9  H   UNL     1      46.750   7.966  14.061  0.00  0.00    +0.000 HD
BRANCH   8  11
ATOM     10  C   UNL     1      49.455   7.302  13.596  0.00  0.00    +0.000 C 
ATOM     11  C   UNL     1      48.297   6.516  14.219  0.00  0.00    +0.000 C 
BRANCH  11  12
ATOM     12  C   UNL     1      48.429   6.395  15.721  0.00  0.00    +0.000 A 
ATOM     13  C   UNL     1      48.875   7.436  16.523  0.00  0.00    +0.000 A 
ATOM     14  S   UNL     1      49.172   6.963  18.135  0.00  0.00    +0.000 S 
ATOM     15  C   UNL     1      48.711   5.358  17.804  0.00  0.00    +0.000 A 
ATOM     16  N   UNL     1      48.848   4.382  18.734  0.00  0.00    +0.000 NA
ATOM     17  C   UNL     1      48.495   3.207  18.325  0.00  0.00    +0.000 A 
ATOM     18  N   UNL     1      47.946   2.938  17.094  0.00  0.00    +0.000 N 
ATOM     19  C   UNL     1      47.659   3.921  16.168  0.00  0.00    +0.000 A 
ATOM     20  O   UNL     1      46.938   3.706  15.203  0.00  0.00    +0.000 OA
ATOM     21  C   UNL     1      48.212   5.218  16.522  0.00  0.00    +0.000 A 
ATOM     22  H   UNL     1      47.593   2.019  16.881  0.00  0.00    +0.000 HD
ENDBRANCH  11  12
ENDBRANCH   8  11
ENDBRANCH   1   8
BRANCH   4  23
ATOM     23  C   UNL     1      44.084   3.629  10.245  0.00  0.00    +0.000 C 
BRANCH  23  24
ATOM     24  N   UNL     1      44.995   2.526   9.935  0.00  0.00    +0.000 NA
ATOM     25  H   UNL     1      44.777   1.729  10.535  0.00  0.00    +0.000 HD
BRANCH  24  26
ATOM     26  C   UNL     1      44.984   2.104   8.525  0.00  0.00    +0.000 C 
ATOM     27  C   UNL     1      46.306   1.564   7.988  0.00  0.00    +0.000 C 
ATOM     28  C   UNL     1      47.066   2.821   7.625  0.00  0.00    +0.000 C 
ATOM     29  N   UNL     1      46.060   3.665   6.974  0.00  0.00    +0.000 NA
ATOM     30  C   UNL     1      44.766   3.338   7.614  0.00  0.00    +0.000 C 
ATOM     31  H   UNL     1      46.003   3.402   5.989  0.00  0.00    +0.000 HD
ENDBRANCH  24  26
ENDBRANCH  23  24
ENDBRANCH   4  23
TORSDOF 6
ENDMDL
MODEL 2
REMARK VINA RESULT:    -6.931      1.664      2.167
REMARK INTER + INTRA:         -10.396
REMARK INTER:                  -9.438
REMARK INTRA:                  -0.958
REMARK UNBOUND:                -1.034
REMARK  Name = 
REMARK  7 active torsions:
REMARK  status: ('A' for Active; 'I' for Inactive)
REMARK    1  A    between atoms: C_1  and  C_2
REMARK    2  A    between atoms: C_2  and  N_3
REMARK    3  A    between atoms: C_2  and  C_18
REMARK    4  A    between atoms: N_3  and  C_4
REMARK    5  A    between atoms: C_7  and  C_8
REMARK    6  A    between atoms: C_8  and  N_9
REMARK    7  A    between atoms: N_9  and  C_10
REMARK                            x       y       z     vdW  Elec       q    Type
REMARK                         _______ _______ _______ _____ _____    ______ ____
ROOT
ATOM      1  C   UNL     1      47.488   6.261  14.009  0.00  0.00    +0.000 A 
ATOM      2  C   UNL     1      47.194   4.943  14.378  0.00  0.00    +0.000 A 
ATOM      3  C   UNL     1      46.268   4.176  13.658  0.00  0.00    +0.000 A 
ATOM      4  C   UNL     1      45.638   4.706  12.527  0.00  0.00    +0.000 A 
ATOM      5  C   UNL     1      46.012   5.982  12.107  0.00  0.00    +0.000 A 
ATOM      6  F   UNL     1      45.484   6.504  10.989  0.00  0.00    +0.000 F 
ATOM      7  C   UNL     1      46.908   6.757  12.842  0.00  0.00    +0.000 A 
ENDROOT
BRANCH   1   8
ATOM      8  N   UNL     1      48.232   7.040  14.872  0.00  0.00    +0.000 N 
ATOM      9  H   UNL     1      48.108   8.051  14.845  0.00  0.00    +0.000 HD
BRANCH   8  11
ATOM     10  C   UNL     1      50.508   6.960  15.691  0.00  0.00    +0.000 C 
ATOM     11  C   UNL     1      49.068   6.498  15.934  0.00  0.00    +0.000 C 
BRANCH  11  12
ATOM     12  C   UNL     1      48.620   6.741  17.358  0.00  0.00    +0.000 A 
ATOM     13  C   UNL     1      48.380   8.011  17.864  0.00  0.00    +0.000 A 
ATOM     14  S   UNL     1      48.135   8.026  19.553  0.00  0.00    +0.000 S 
ATOM     15  C   UNL     1      48.345   6.339  19.651  0.00  0.00    +0.000 A 
ATOM     16  N   UNL     1      48.382   5.705  20.847  0.00  0.00    +0.000 NA
ATOM     17  C   UNL     1      48.589   4.431  20.766  0.00  0.00    +0.000 A 
ATOM     18  N   UNL     1      48.681   3.726  19.589  0.00  0.00    +0.000 N 
ATOM     19  C   UNL     1      48.509   4.309  18.349  0.00  0.00    +0.000 A 
ATOM     20  O   UNL     1      48.331   3.636  17.342  0.00  0.00    +0.000 OA
ATOM     21  C   UNL     1      48.463   5.761  18.401  0.00  0.00    +0.000 A 
ATOM     22  H   UNL     1      48.734   2.720  19.597  0.00  0.00    +0.000 HD
ENDBRANCH  11  12
ENDBRANCH   8  11
ENDBRANCH   1   8
BRANCH   4  23
ATOM     23  C   UNL     1      44.555   3.939  11.810  0.00  0.00    +0.000 C 
BRANCH  23  24
ATOM     24  N   UNL     1      45.136   2.927  10.926  0.00  0.00    +0.000 NA
ATOM     25  H   UNL     1      45.160   2.028  11.410  0.00  0.00    +0.000 HD
BRANCH  24  26
ATOM     26  C   UNL     1      44.447   2.777   9.634  0.00  0.00    +0.000 C 
ATOM     27  C   UNL     1      45.032   1.729   8.692  0.00  0.00    +0.000 C 
ATOM     28  C   UNL     1      46.168   2.469   8.021  0.00  0.00    +0.000 C 
ATOM     29  N   UNL     1      45.603   3.789   7.726  0.00  0.00    +0.000 NA
ATOM     30  C   UNL     1      44.622   4.069   8.798  0.00  0.00    +0.000 C 
ATOM     31  H   UNL     1      45.100   3.736   6.840  0.00  0.00    +0.000 HD
ENDBRANCH  24  26
ENDBRANCH  23  24
ENDBRANCH   4  23
TORSDOF 6
ENDMDL
MODEL 3
REMARK VINA RESULT:    -6.777      2.907      7.983
REMARK INTER + INTRA:         -10.187
REMARK INTER:                  -9.056
REMARK INTRA:                  -1.132
REMARK UNBOUND:                -1.034
REMARK  Name = 
REMARK  7 active torsions:
REMARK  status: ('A' for Active; 'I' for Inactive)
REMARK    1  A    between atoms: C_1  and  C_2
REMARK    2  A    between atoms: C_2  and  N_3
REMARK    3  A    between atoms: C_2  and  C_18
REMARK    4  A    between atoms: N_3  and  C_4
REMARK    5  A    between atoms: C_7  and  C_8
REMARK    6  A    between atoms: C_8  and  N_9
REMARK    7  A    between atoms: N_9  and  C_10
REMARK                            x       y       z     vdW  Elec       q    Type
REMARK                         _______ _______ _______ _____ _____    ______ ____
ROOT
ATOM      1  C   UNL     1      47.354   6.053  13.190  0.00  0.00    +0.000 A 
ATOM      2  C   UNL     1      48.463   6.881  13.402  0.00  0.00    +0.000 A 
ATOM      3  C   UNL     1      49.140   6.889  14.629  0.00  0.00    +0.000 A 
ATOM      4  C   UNL     1      48.737   6.040  15.665  0.00  0.00    +0.000 A 
ATOM      5  C   UNL     1      47.696   5.146  15.412  0.00  0.00    +0.000 A 
ATOM      6  F   UNL     1      47.321   4.267  16.353  0.00  0.00    +0.000 F 
ATOM      7  C   UNL     1      47.002   5.161  14.203  0.00  0.00    +0.000 A 
ENDROOT
BRANCH   1   8
ATOM      8  N   UNL     1      46.594   6.241  12.054  0.00  0.00    +0.000 N 
ATOM      9  H   UNL     1      47.071   6.334  11.158  0.00  0.00    +0.000 HD
BRANCH   8  11
ATOM     10  C   UNL     1      44.599   7.396  11.317  0.00  0.00    +0.000 C 
ATOM     11  C   UNL     1      45.141   6.154  12.030  0.00  0.00    +0.000 C 
BRANCH  11  12
ATOM     12  C   UNL     1      44.533   4.875  11.497  0.00  0.00    +0.000 A 
ATOM     13  C   UNL     1      43.607   4.128  12.213  0.00  0.00    +0.000 A 
ATOM     14  S   UNL     1      43.273   2.613  11.502  0.00  0.00    +0.000 S 
ATOM     15  C   UNL     1      44.355   2.916  10.224  0.00  0.00    +0.000 A 
ATOM     16  N   UNL     1      44.645   1.960   9.308  0.00  0.00    +0.000 NA
ATOM     17  C   UNL     1      45.514   2.321   8.421  0.00  0.00    +0.000 A 
ATOM     18  N   UNL     1      46.058   3.580   8.325  0.00  0.00    +0.000 N 
ATOM     19  C   UNL     1      45.687   4.624   9.149  0.00  0.00    +0.000 A 
ATOM     20  O   UNL     1      45.974   5.784   8.886  0.00  0.00    +0.000 OA
ATOM     21  C   UNL     1      44.858   4.203  10.267  0.00  0.00    +0.000 A 
ATOM     22  H   UNL     1      46.646   3.825   7.545  0.00  0.00    +0.000 HD
ENDBRANCH  11  12
ENDBRANCH   8  11
ENDBRANCH   1   8
BRANCH   4  23
ATOM     23  C   UNL     1      49.378   6.118  17.029  0.00  0.00    +0.000 C 
BRANCH  23  24
ATOM     24  N   UNL     1      50.709   5.507  17.010  0.00  0.00    +0.000 NA
ATOM     25  H   UNL     1      51.418   6.241  17.033  0.00  0.00    +0.000 HD
BRANCH  24  26
ATOM     26  C   UNL     1      50.953   4.546  18.098  0.00  0.00    +0.000 C 
ATOM     27  C   UNL     1      51.345   3.138  17.659  0.00  0.00    +0.000 C 
ATOM     28  C   UNL     1      50.011   2.490  17.362  0.00  0.00    +0.000 C 
ATOM     29  N   UNL     1      49.152   2.927  18.467  0.00  0.00    +0.000 NA
ATOM     30  C   UNL     1      49.631   4.271  18.857  0.00  0.00    +0.000 C 
ATOM     31  H   UNL     1      49.295   2.296  19.257  0.00  0.00    +0.000 HD
ENDBRANCH  24  26
ENDBRANCH  23  24
ENDBRANCH   4  23
TORSDOF 6
ENDMDL
MODEL 4
REMARK VINA RESULT:    -6.728      2.260      3.127
REMARK INTER + INTRA:         -10.121
REMARK INTER:                  -8.913
REMARK INTRA:                  -1.208
REMARK UNBOUND:                -1.034
REMARK  Name = 
REMARK  7 active torsions:
REMARK  status: ('A' for Active; 'I' for Inactive)
REMARK    1  A    between atoms: C_1  and  C_2
REMARK    2  A    between atoms: C_2  and  N_3
REMARK    3  A    between atoms: C_2  and  C_18
REMARK    4  A    between atoms: N_3  and  C_4
REMARK    5  A    between atoms: C_7  and  C_8
REMARK    6  A    between atoms: C_8  and  N_9
REMARK    7  A    between atoms: N_9  and  C_10
REMARK                            x       y       z     vdW  Elec       q    Type
REMARK                         _______ _______ _______ _____ _____    ______ ____
ROOT
ATOM      1  C   UNL     1      48.264   8.040  13.428  0.00  0.00    +0.000 A 
ATOM      2  C   UNL     1      48.266   7.056  12.433  0.00  0.00    +0.000 A 
ATOM      3  C   UNL     1      47.102   6.739  11.721  0.00  0.00    +0.000 A 
ATOM      4  C   UNL     1      45.909   7.427  11.972  0.00  0.00    +0.000 A 
ATOM      5  C   UNL     1      45.940   8.475  12.892  0.00  0.00    +0.000 A 
ATOM      6  F   UNL     1      44.837   9.206  13.115  0.00  0.00    +0.000 F 
ATOM      7  C   UNL     1      47.090   8.768  13.623  0.00  0.00    +0.000 A 
ENDROOT
BRANCH   1   8
ATOM      8  N   UNL     1      49.369   8.160  14.245  0.00  0.00    +0.000 N 
ATOM      9  H   UNL     1      49.808   9.075  14.341  0.00  0.00    +0.000 HD
BRANCH   8  11
ATOM     10  C   UNL     1      51.309   7.402  15.479  0.00  0.00    +0.000 C 
ATOM     11  C   UNL     1      49.855   7.093  15.109  0.00  0.00    +0.000 C 
BRANCH  11  12
ATOM     12  C   UNL     1      49.016   6.747  16.319  0.00  0.00    +0.000 A 
ATOM     13  C   UNL     1      49.011   7.517  17.475  0.00  0.00    +0.000 A 
ATOM     14  S   UNL     1      48.184   6.776  18.771  0.00  0.00    +0.000 S 
ATOM     15  C   UNL     1      47.813   5.411  17.823  0.00  0.00    +0.000 A 
ATOM     16  N   UNL     1      47.213   4.323  18.364  0.00  0.00    +0.000 NA
ATOM     17  C   UNL     1      47.032   3.350  17.532  0.00  0.00    +0.000 A 
ATOM     18  N   UNL     1      47.326   3.401  16.190  0.00  0.00    +0.000 N 
ATOM     19  C   UNL     1      47.807   4.536  15.569  0.00  0.00    +0.000 A 
ATOM     20  O   UNL     1      47.812   4.650  14.351  0.00  0.00    +0.000 OA
ATOM     21  C   UNL     1      48.195   5.579  16.505  0.00  0.00    +0.000 A 
ATOM     22  H   UNL     1      47.059   2.646  15.579  0.00  0.00    +0.000 HD
ENDBRANCH  11  12
ENDBRANCH   8  11
ENDBRANCH   1   8
BRANCH   4  23
ATOM     23  C   UNL     1      44.621   7.021  11.300  0.00  0.00    +0.000 C 
BRANCH  23  24
ATOM     24  N   UNL     1      44.794   5.769  10.562  0.00  0.00    +0.000 NA
ATOM     25  H   UNL     1      45.576   5.246  10.961  0.00  0.00    +0.000 HD
BRANCH  24  26
ATOM     26  C   UNL     1      43.596   4.916  10.520  0.00  0.00    +0.000 C 
ATOM     27  C   UNL     1      42.851   4.759  11.842  0.00  0.00    +0.000 C 
ATOM     28  C   UNL     1      43.626   3.665  12.543  0.00  0.00    +0.000 C 
ATOM     29  N   UNL     1      43.885   2.683  11.486  0.00  0.00    +0.000 NA
ATOM     30  C   UNL     1      44.009   3.452  10.227  0.00  0.00    +0.000 C 
ATOM     31  H   UNL     1      43.073   2.071  11.406  0.00  0.00    +0.000 HD
ENDBRANCH  24  26
ENDBRANCH  23  24
ENDBRANCH   4  23
TORSDOF 6
ENDMDL
MODEL 5
REMARK VINA RESULT:    -6.661      2.179      2.767
REMARK INTER + INTRA:         -10.031
REMARK INTER:                  -8.950
REMARK INTRA:                  -1.081
REMARK UNBOUND:                -1.034
REMARK  Name = 
REMARK  7 active torsions:
REMARK  status: ('A' for Active; 'I' for Inactive)
REMARK    1  A    between atoms: C_1  and  C_2
REMARK    2  A    between atoms: C_2  and  N_3
REMARK    3  A    between atoms: C_2  and  C_18
REMARK    4  A    between atoms: N_3  and  C_4
REMARK    5  A    between atoms: C_7  and  C_8
REMARK    6  A    between atoms: C_8  and  N_9
REMARK    7  A    between atoms: N_9  and  C_10
REMARK                            x       y       z     vdW  Elec       q    Type
REMARK                         _______ _______ _______ _____ _____    ______ ____
ROOT
ATOM      1  C   UNL     1      47.202   6.196  13.608  0.00  0.00    +0.000 A 
ATOM      2  C   UNL     1      46.751   4.943  14.039  0.00  0.00    +0.000 A 
ATOM      3  C   UNL     1      45.884   4.173  13.254  0.00  0.00    +0.000 A 
ATOM      4  C   UNL     1      45.470   4.631  11.998  0.00  0.00    +0.000 A 
ATOM      5  C   UNL     1      46.004   5.833  11.532  0.00  0.00    +0.000 A 
ATOM      6  F   UNL     1      45.689   6.278  10.306  0.00  0.00    +0.000 F 
ATOM      7  C   UNL     1      46.841   6.614  12.327  0.00  0.00    +0.000 A 
ENDROOT
BRANCH   1   8
ATOM      8  N   UNL     1      47.870   7.005  14.504  0.00  0.00    +0.000 N 
ATOM      9  H   UNL     1      47.366   7.780  14.932  0.00  0.00    +0.000 HD
BRANCH   8  11
ATOM     10  C   UNL     1      50.157   7.797  14.458  0.00  0.00    +0.000 C 
ATOM     11  C   UNL     1      49.209   6.724  15.002  0.00  0.00    +0.000 C 
BRANCH  11  12
ATOM     12  C   UNL     1      49.365   6.525  16.494  0.00  0.00    +0.000 A 
ATOM     13  C   UNL     1      50.077   5.466  17.041  0.00  0.00    +0.000 A 
ATOM     14  S   UNL     1      49.887   5.331  18.732  0.00  0.00    +0.000 S 
ATOM     15  C   UNL     1      48.851   6.681  18.776  0.00  0.00    +0.000 A 
ATOM     16  N   UNL     1      48.220   7.044  19.918  0.00  0.00    +0.000 NA
ATOM     17  C   UNL     1      47.434   8.063  19.789  0.00  0.00    +0.000 A 
ATOM     18  N   UNL     1      47.286   8.797  18.636  0.00  0.00    +0.000 N 
ATOM     19  C   UNL     1      48.013   8.549  17.489  0.00  0.00    +0.000 A 
ATOM     20  O   UNL     1      48.067   9.359  16.573  0.00  0.00    +0.000 OA
ATOM     21  C   UNL     1      48.761   7.303  17.544  0.00  0.00    +0.000 A 
ATOM     22  H   UNL     1      46.740   9.643  18.634  0.00  0.00    +0.000 HD
ENDBRANCH  11  12
ENDBRANCH   8  11
ENDBRANCH   1   8
BRANCH   4  23
ATOM     23  C   UNL     1      44.447   3.872  11.190  0.00  0.00    +0.000 C 
BRANCH  23  24
ATOM     24  N   UNL     1      45.040   2.668  10.605  0.00  0.00    +0.000 NA
ATOM     25  H   UNL     1      44.808   1.860  11.185  0.00  0.00    +0.000 HD
BRANCH  24  26
ATOM     26  C   UNL     1      44.642   2.409   9.212  0.00  0.00    +0.000 C 
ATOM     27  C   UNL     1      45.677   1.687   8.354  0.00  0.00    +0.000 C 
ATOM     28  C   UNL     1      46.589   2.807   7.904  0.00  0.00    +0.000 C 
ATOM     29  N   UNL     1      45.668   3.892   7.554  0.00  0.00    +0.000 NA
ATOM     30  C   UNL     1      44.500   3.751   8.452  0.00  0.00    +0.000 C 
ATOM     31  H   UNL     1      45.349   3.751   6.594  0.00  0.00    +0.000 HD
ENDBRANCH  24  26
ENDBRANCH  23  24
ENDBRANCH   4  23
TORSDOF 6
ENDMDL
MODEL 6
REMARK VINA RESULT:    -6.585      1.966      2.444
REMARK INTER + INTRA:          -9.928
REMARK INTER:                  -8.912
REMARK INTRA:                  -1.017
REMARK UNBOUND:                -1.034
REMARK  Name = 
REMARK  7 active torsions:
REMARK  status: ('A' for Active; 'I' for Inactive)
REMARK    1  A    between atoms: C_1  and  C_2
REMARK    2  A    between atoms: C_2  and  N_3
REMARK    3  A    between atoms: C_2  and  C_18
REMARK    4  A    between atoms: N_3  and  C_4
REMARK    5  A    between atoms: C_7  and  C_8
REMARK    6  A    between atoms: C_8  and  N_9
REMARK    7  A    between atoms: N_9  and  C_10
REMARK                            x       y       z     vdW  Elec       q    Type
REMARK                         _______ _______ _______ _____ _____    ______ ____
ROOT
ATOM      1  C   UNL     1      47.472   6.673  13.505  0.00  0.00    +0.000 A 
ATOM      2  C   UNL     1      46.241   7.025  12.938  0.00  0.00    +0.000 A 
ATOM      3  C   UNL     1      45.280   6.054  12.628  0.00  0.00    +0.000 A 
ATOM      4  C   UNL     1      45.520   4.705  12.908  0.00  0.00    +0.000 A 
ATOM      5  C   UNL     1      46.706   4.374  13.564  0.00  0.00    +0.000 A 
ATOM      6  F   UNL     1      46.949   3.102  13.914  0.00  0.00    +0.000 F 
ATOM      7  C   UNL     1      47.676   5.336  13.844  0.00  0.00    +0.000 A 
ENDROOT
BRANCH   1   8
ATOM      8  N   UNL     1      48.462   7.631  13.587  0.00  0.00    +0.000 N 
ATOM      9  H   UNL     1      48.455   8.398  12.916  0.00  0.00    +0.000 HD
BRANCH   8  11
ATOM     10  C   UNL     1      50.562   8.639  14.245  0.00  0.00    +0.000 C 
ATOM     11  C   UNL     1      49.428   7.703  14.674  0.00  0.00    +0.000 C 
BRANCH  11  12
ATOM     12  C   UNL     1      48.896   8.040  16.050  0.00  0.00    +0.000 A 
ATOM     13  C   UNL     1      48.242   9.232  16.332  0.00  0.00    +0.000 A 
ATOM     14  S   UNL     1      47.971   9.470  18.000  0.00  0.00    +0.000 S 
ATOM     15  C   UNL     1      48.719   7.991  18.387  0.00  0.00    +0.000 A 
ATOM     16  N   UNL     1      48.937   7.630  19.674  0.00  0.00    +0.000 NA
ATOM     17  C   UNL     1      49.550   6.499  19.811  0.00  0.00    +0.000 A 
ATOM     18  N   UNL     1      49.893   5.663  18.775  0.00  0.00    +0.000 N 
ATOM     19  C   UNL     1      49.565   5.924  17.460  0.00  0.00    +0.000 A 
ATOM     20  O   UNL     1      49.638   5.061  16.595  0.00  0.00    +0.000 OA
ATOM     21  C   UNL     1      49.046   7.267  17.255  0.00  0.00    +0.000 A 
ATOM     22  H   UNL     1      50.271   4.748  18.960  0.00  0.00    +0.000 HD
ENDBRANCH  11  12
ENDBRANCH   8  11
ENDBRANCH   1   8
BRANCH   4  23
ATOM     23  C   UNL     1      44.549   3.635  12.475  0.00  0.00    +0.000 C 
BRANCH  23  24
ATOM     24  N   UNL     1      45.074   2.894  11.326  0.00  0.00    +0.000 NA
ATOM     25  H   UNL     1      45.282   1.935  11.609  0.00  0.00    +0.000 HD
BRANCH  24  26
ATOM     26  C   UNL     1      44.188   2.884  10.151  0.00  0.00    +0.000 C 
ATOM     27  C   UNL     1      44.724   2.147   8.927  0.00  0.00    +0.000 C 
ATOM     28  C   UNL     1      45.614   3.180   8.270  0.00  0.00    +0.000 C 
ATOM     29  N   UNL     1      44.839   4.420   8.358  0.00  0.00    +0.000 NA
ATOM     30  C   UNL     1      44.039   4.324   9.599  0.00  0.00    +0.000 C 
ATOM     31  H   UNL     1      44.194   4.457   7.567  0.00  0.00    +0.000 HD
ENDBRANCH  24  26
ENDBRANCH  23  24
ENDBRANCH   4  23
TORSDOF 6
ENDMDL
MODEL 7
REMARK VINA RESULT:    -6.552      3.284      7.924
REMARK INTER + INTRA:          -9.883
REMARK INTER:                  -8.735
REMARK INTRA:                  -1.149
REMARK UNBOUND:                -1.034
REMARK  Name = 
REMARK  7 active torsions:
REMARK  status: ('A' for Active; 'I' for Inactive)
REMARK    1  A    between atoms: C_1  and  C_2
REMARK    2  A    between atoms: C_2  and  N_3
REMARK    3  A    between atoms: C_2  and  C_18
REMARK    4  A    between atoms: N_3  and  C_4
REMARK    5  A    between atoms: C_7  and  C_8
REMARK    6  A    between atoms: C_8  and  N_9
REMARK    7  A    between atoms: N_9  and  C_10
REMARK                            x       y       z     vdW  Elec       q    Type
REMARK                         _______ _______ _______ _____ _____    ______ ____
ROOT
ATOM      1  C   UNL     1      48.394   7.295  13.202  0.00  0.00    +0.000 A 
ATOM      2  C   UNL     1      47.868   6.734  14.372  0.00  0.00    +0.000 A 
ATOM      3  C   UNL     1      48.668   6.530  15.504  0.00  0.00    +0.000 A 
ATOM      4  C   UNL     1      50.013   6.914  15.499  0.00  0.00    +0.000 A 
ATOM      5  C   UNL     1      50.504   7.564  14.366  0.00  0.00    +0.000 A 
ATOM      6  F   UNL     1      51.769   8.010  14.342  0.00  0.00    +0.000 F 
ATOM      7  C   UNL     1      49.717   7.738  13.228  0.00  0.00    +0.000 A 
ENDROOT
BRANCH   1   8
ATOM      8  N   UNL     1      47.630   7.271  12.054  0.00  0.00    +0.000 N 
ATOM      9  H   UNL     1      48.097   7.386  11.155  0.00  0.00    +0.000 HD
BRANCH   8  11
ATOM     10  C   UNL     1      45.421   8.202  11.720  0.00  0.00    +0.000 C 
ATOM     11  C   UNL     1      46.215   6.930  12.032  0.00  0.00    +0.000 C 
BRANCH  11  12
ATOM     12  C   UNL     1      45.797   5.765  11.161  0.00  0.00    +0.000 A 
ATOM     13  C   UNL     1      45.972   5.756   9.784  0.00  0.00    +0.000 A 
ATOM     14  S   UNL     1      45.192   4.446   9.017  0.00  0.00    +0.000 S 
ATOM     15  C   UNL     1      44.602   3.860  10.502  0.00  0.00    +0.000 A 
ATOM     16  N   UNL     1      43.743   2.813  10.552  0.00  0.00    +0.000 NA
ATOM     17  C   UNL     1      43.350   2.507  11.746  0.00  0.00    +0.000 A 
ATOM     18  N   UNL     1      43.802   3.105  12.897  0.00  0.00    +0.000 N 
ATOM     19  C   UNL     1      44.781   4.079  12.903  0.00  0.00    +0.000 A 
ATOM     20  O   UNL     1      45.356   4.407  13.933  0.00  0.00    +0.000 OA
ATOM     21  C   UNL     1      45.104   4.573  11.575  0.00  0.00    +0.000 A 
ATOM     22  H   UNL     1      43.537   2.745  13.800  0.00  0.00    +0.000 HD
ENDBRANCH  11  12
ENDBRANCH   8  11
ENDBRANCH   1   8
BRANCH   4  23
ATOM     23  C   UNL     1      50.918   6.597  16.664  0.00  0.00    +0.000 C 
BRANCH  23  24
ATOM     24  N   UNL     1      50.132   6.238  17.846  0.00  0.00    +0.000 NA
ATOM     25  H   UNL     1      49.139   6.255  17.610  0.00  0.00    +0.000 HD
BRANCH  24  26
ATOM     26  C   UNL     1      50.481   4.936  18.437  0.00  0.00    +0.000 C 
ATOM     27  C   UNL     1      50.219   3.720  17.555  0.00  0.00    +0.000 C 
ATOM     28  C   UNL     1      48.747   3.447  17.777  0.00  0.00    +0.000 C 
ATOM     29  N   UNL     1      48.572   3.617  19.222  0.00  0.00    +0.000 NA
ATOM     30  C   UNL     1      49.550   4.645  19.641  0.00  0.00    +0.000 C 
ATOM     31  H   UNL     1      48.815   2.739  19.684  0.00  0.00    +0.000 HD
ENDBRANCH  24  26
ENDBRANCH  23  24
ENDBRANCH   4  23
TORSDOF 6
ENDMDL
MODEL 8
REMARK VINA RESULT:    -6.034      3.298      8.400
REMARK INTER + INTRA:          -9.184
REMARK INTER:                  -8.075
REMARK INTRA:                  -1.109
REMARK UNBOUND:                -1.034
REMARK  Name = 
REMARK  7 active torsions:
REMARK  status: ('A' for Active; 'I' for Inactive)
REMARK    1  A    between atoms: C_1  and  C_2
REMARK    2  A    between atoms: C_2  and  N_3
REMARK    3  A    between atoms: C_2  and  C_18
REMARK    4  A    between atoms: N_3  and  C_4
REMARK    5  A    between atoms: C_7  and  C_8
REMARK    6  A    between atoms: C_8  and  N_9
REMARK    7  A    between atoms: N_9  and  C_10
REMARK                            x       y       z     vdW  Elec       q    Type
REMARK                         _______ _______ _______ _____ _____    ______ ____
ROOT
ATOM      1  C   UNL     1      47.719   6.838  12.513  0.00  0.00    +0.000 A 
ATOM      2  C   UNL     1      47.710   6.326  13.815  0.00  0.00    +0.000 A 
ATOM      3  C   UNL     1      48.756   6.591  14.708  0.00  0.00    +0.000 A 
ATOM      4  C   UNL     1      49.826   7.407  14.323  0.00  0.00    +0.000 A 
ATOM      5  C   UNL     1      49.777   7.996  13.059  0.00  0.00    +0.000 A 
ATOM      6  F   UNL     1      50.747   8.838  12.672  0.00  0.00    +0.000 F 
ATOM      7  C   UNL     1      48.753   7.705  12.159  0.00  0.00    +0.000 A 
ENDROOT
BRANCH   1   8
ATOM      8  N   UNL     1      46.785   6.371  11.610  0.00  0.00    +0.000 N 
ATOM      9  H   UNL     1      47.113   5.976  10.730  0.00  0.00    +0.000 HD
BRANCH   8  11
ATOM     10  C   UNL     1      44.662   7.503  11.353  0.00  0.00    +0.000 C 
ATOM     11  C   UNL     1      45.364   6.258  11.904  0.00  0.00    +0.000 C 
BRANCH  11  12
ATOM     12  C   UNL     1      44.671   4.979  11.489  0.00  0.00    +0.000 A 
ATOM     13  C   UNL     1      43.767   4.315  12.307  0.00  0.00    +0.000 A 
ATOM     14  S   UNL     1      43.326   2.777  11.711  0.00  0.00    +0.000 S 
ATOM     15  C   UNL     1      44.330   2.960  10.348  0.00  0.00    +0.000 A 
ATOM     16  N   UNL     1      44.518   1.942   9.474  0.00  0.00    +0.000 NA
ATOM     17  C   UNL     1      45.338   2.215   8.512  0.00  0.00    +0.000 A 
ATOM     18  N   UNL     1      45.923   3.441   8.305  0.00  0.00    +0.000 N 
ATOM     19  C   UNL     1      45.651   4.545   9.089  0.00  0.00    +0.000 A 
ATOM     20  O   UNL     1      45.965   5.675   8.739  0.00  0.00    +0.000 OA
ATOM     21  C   UNL     1      44.884   4.225  10.281  0.00  0.00    +0.000 A 
ATOM     22  H   UNL     1      46.466   3.616   7.475  0.00  0.00    +0.000 HD
ENDBRANCH  11  12
ENDBRANCH   8  11
ENDBRANCH   1   8
BRANCH   4  23
ATOM     23  C   UNL     1      51.016   7.609  15.227  0.00  0.00    +0.000 C 
BRANCH  23  24
ATOM     24  N   UNL     1      50.606   7.595  16.633  0.00  0.00    +0.000 NA
ATOM     25  H   UNL     1      49.609   7.383  16.692  0.00  0.00    +0.000 HD
BRANCH  24  26
ATOM     26  C   UNL     1      51.364   6.659  17.479  0.00  0.00    +0.000 C 
ATOM     27  C   UNL     1      51.045   5.181  17.278  0.00  0.00    +0.000 C 
ATOM     28  C   UNL     1      49.810   4.979  18.129  0.00  0.00    +0.000 C 
ATOM     29  N   UNL     1      50.105   5.719  19.359  0.00  0.00    +0.000 NA
ATOM     30  C   UNL     1      50.963   6.858  18.962  0.00  0.00    +0.000 C 
ATOM     31  H   UNL     1      50.645   5.115  19.980  0.00  0.00    +0.000 HD
ENDBRANCH  24  26
ENDBRANCH  23  24
ENDBRANCH   4  23
TORSDOF 6
ENDMDL
MODEL 9
REMARK VINA RESULT:    -5.974      2.959      4.635
REMARK INTER + INTRA:          -9.104
REMARK INTER:                  -8.181
REMARK INTRA:                  -0.923
REMARK UNBOUND:                -1.034
REMARK  Name = 
REMARK  7 active torsions:
REMARK  status: ('A' for Active; 'I' for Inactive)
REMARK    1  A    between atoms: C_1  and  C_2
REMARK    2  A    between atoms: C_2  and  N_3
REMARK    3  A    between atoms: C_2  and  C_18
REMARK    4  A    between atoms: N_3  and  C_4
REMARK    5  A    between atoms: C_7  and  C_8
REMARK    6  A    between atoms: C_8  and  N_9
REMARK    7  A    between atoms: N_9  and  C_10
REMARK                            x       y       z     vdW  Elec       q    Type
REMARK                         _______ _______ _______ _____ _____    ______ ____
ROOT
ATOM      1  C   UNL     1      48.881   5.913  16.143  0.00  0.00    +0.000 A 
ATOM      2  C   UNL     1      49.019   6.995  15.267  0.00  0.00    +0.000 A 
ATOM      3  C   UNL     1      48.259   7.083  14.093  0.00  0.00    +0.000 A 
ATOM      4  C   UNL     1      47.315   6.096  13.785  0.00  0.00    +0.000 A 
ATOM      5  C   UNL     1      47.112   5.074  14.713  0.00  0.00    +0.000 A 
ATOM      6  F   UNL     1      46.170   4.144  14.493  0.00  0.00    +0.000 F 
ATOM      7  C   UNL     1      47.891   4.970  15.864  0.00  0.00    +0.000 A 
ENDROOT
BRANCH   1   8
ATOM      8  N   UNL     1      49.800   5.762  17.161  0.00  0.00    +0.000 N 
ATOM      9  H   UNL     1      49.457   5.646  18.114  0.00  0.00    +0.000 HD
BRANCH   8  11
ATOM     10  C   UNL     1      51.877   6.983  16.931  0.00  0.00    +0.000 C 
ATOM     11  C   UNL     1      51.229   5.595  16.940  0.00  0.00    +0.000 C 
BRANCH  11  12
ATOM     12  C   UNL     1      51.961   4.627  17.845  0.00  0.00    +0.000 A 
ATOM     13  C   UNL     1      52.925   5.034  18.757  0.00  0.00    +0.000 A 
ATOM     14  S   UNL     1      53.770   3.732  19.466  0.00  0.00    +0.000 S 
ATOM     15  C   UNL     1      52.871   2.594  18.574  0.00  0.00    +0.000 A 
ATOM     16  N   UNL     1      53.173   1.274  18.614  0.00  0.00    +0.000 NA
ATOM     17  C   UNL     1      52.430   0.537  17.853  0.00  0.00    +0.000 A 
ATOM     18  N   UNL     1      51.363   0.996  17.119  0.00  0.00    +0.000 N 
ATOM     19  C   UNL     1      50.932   2.308  17.158  0.00  0.00    +0.000 A 
ATOM     20  O   UNL     1      49.839   2.639  16.718  0.00  0.00    +0.000 OA
ATOM     21  C   UNL     1      51.854   3.192  17.852  0.00  0.00    +0.000 A 
ATOM     22  H   UNL     1      50.760   0.351  16.634  0.00  0.00    +0.000 HD
ENDBRANCH  11  12
ENDBRANCH   8  11
ENDBRANCH   1   8
BRANCH   4  23
ATOM     23  C   UNL     1      46.573   6.112  12.473  0.00  0.00    +0.000 C 
BRANCH  23  24
ATOM     24  N   UNL     1      45.180   6.517  12.671  0.00  0.00    +0.000 NA
ATOM     25  H   UNL     1      45.106   7.531  12.571  0.00  0.00    +0.000 HD
BRANCH  24  26
ATOM     26  C   UNL     1      44.219   5.857  11.772  0.00  0.00    +0.000 C 
ATOM     27  C   UNL     1      42.964   5.304  12.440  0.00  0.00    +0.000 C 
ATOM     28  C   UNL     1      43.421   3.961  12.966  0.00  0.00    +0.000 C 
ATOM     29  N   UNL     1      44.227   3.410  11.873  0.00  0.00    +0.000 NA
ATOM     30  C   UNL     1      44.850   4.567  11.193  0.00  0.00    +0.000 C 
ATOM     31  H   UNL     1      43.602   2.949  11.210  0.00  0.00    +0.000 HD
ENDBRANCH  24  26
ENDBRANCH  23  24
ENDBRANCH   4  23
TORSDOF 6
ENDMDL
