MODEL 1
REMARK VINA RESULT:    -8.996      0.000      0.000
REMARK INTER + INTRA:         -13.578
REMARK INTER:                 -12.678
REMARK INTRA:                  -0.901
REMARK UNBOUND:                -0.901
REMARK  Name = 
REMARK  8 active torsions:
REMARK  status: ('A' for Active; 'I' for Inactive)
REMARK    1  A    between atoms: C_1  and  C_2
REMARK    2  A    between atoms: C_5  and  O_6
REMARK    3  A    between atoms: O_6  and  C_7
REMARK    4  A    between atoms: C_9  and  C_10
REMARK    5  A    between atoms: C_10  and  C_13
REMARK    6  A    between atoms: C_13  and  N_14
REMARK    7  A    between atoms: N_14  and  C_15
REMARK    8  A    between atoms: C_18  and  C_19
REMARK                            x       y       z     vdW  Elec       q    Type
REMARK                         _______ _______ _______ _____ _____    ______ ____
ROOT
ATOM      1  C   UNL     1      43.761   5.620  12.197  0.00  0.00    +0.000 C 
ATOM      2  F   UNL     1      42.950   5.464  13.286  0.00  0.00    +0.000 F 
ATOM      3  F   UNL     1      43.395   6.820  11.648  0.00  0.00    +0.000 F 
ENDROOT
BRANCH   1   6
ATOM      4  C   UNL     1      46.981   4.723  13.984  0.00  0.00    +0.000 A 
ATOM      5  C   UNL     1      45.639   4.757  13.630  0.00  0.00    +0.000 A 
ATOM      6  C   UNL     1      45.224   5.629  12.613  0.00  0.00    +0.000 A 
ATOM      7  C   UNL     1      46.204   6.446  12.028  0.00  0.00    +0.000 A 
ATOM      8  C   UNL     1      47.518   6.348  12.461  0.00  0.00    +0.000 A 
ATOM      9  N   UNL     1      47.930   5.501  13.420  0.00  0.00    +0.000 NA
BRANCH   4  10
ATOM     10  O   UNL     1      47.338   3.829  14.980  0.00  0.00    +0.000 OA
BRANCH  10  15
ATOM     11  C   UNL     1      49.062   3.701  19.080  0.00  0.00    +0.000 C 
ATOM     12  C   UNL     1      48.651   3.637  17.623  0.00  0.00    +0.000 C 
ATOM     13  F   UNL     1      49.606   2.940  16.950  0.00  0.00    +0.000 F 
ATOM     14  C   UNL     1      48.254   4.977  16.967  0.00  0.00    +0.000 C 
ATOM     15  C   UNL     1      47.159   4.243  16.289  0.00  0.00    +0.000 C 
ATOM     16  C   UNL     1      47.203   3.188  17.327  0.00  0.00    +0.000 C 
ENDBRANCH  10  15
ENDBRANCH   4  10
ENDBRANCH   1   6
BRANCH   1  17
ATOM     17  C   UNL     1      43.404   4.511  11.169  0.00  0.00    +0.000 C 
BRANCH  17  18
ATOM     18  N   UNL     1      43.781   4.812   9.769  0.00  0.00    +0.000 N 
ATOM     19  H   UNL     1      44.016   5.798   9.638  0.00  0.00    +0.000 HD
BRANCH  18  20
ATOM     20  C   UNL     1      44.692   3.938   9.168  0.00  0.00    +0.000 A 
ATOM     21  C   UNL     1      44.689   2.557   9.323  0.00  0.00    +0.000 A 
ATOM     22  N   UNL     1      45.526   1.696   8.705  0.00  0.00    +0.000 NA
ATOM     23  C   UNL     1      46.403   2.263   7.848  0.00  0.00    +0.000 A 
ATOM     24  N   UNL     1      46.494   3.578   7.576  0.00  0.00    +0.000 NA
ATOM     25  C   UNL     1      45.621   4.374   8.232  0.00  0.00    +0.000 A 
BRANCH  23  26
ATOM     26  C   UNL     1      47.336   1.320   7.122  0.00  0.00    +0.000 C 
ATOM     27  N   UNL     1      48.390   1.918   6.464  0.00  0.00    +0.000 N 
ATOM     28  O   UNL     1      47.205   0.103   7.102  0.00  0.00    +0.000 OA
ATOM     29  H   UNL     1      48.518   2.920   6.509  0.00  0.00    +0.000 HD
ATOM     30  H   UNL     1      49.066   1.335   5.994  0.00  0.00    +0.000 HD
ENDBRANCH  23  26
ENDBRANCH  18  20
ENDBRANCH  17  18
ENDBRANCH   1  17
TORSDOF 7
ENDMDL
MODEL 2
REMARK VINA RESULT:    -7.972      2.662      7.730
REMARK INTER + INTRA:         -12.135
REMARK INTER:                 -11.192
REMARK INTRA:                  -0.942
REMARK UNBOUND:                -0.901
REMARK  Name = 
REMARK  8 active torsions:
REMARK  status: ('A' for Active; 'I' for Inactive)
REMARK    1  A    between atoms: C_1  and  C_2
REMARK    2  A    between atoms: C_5  and  O_6
REMARK    3  A    between atoms: O_6  and  C_7
REMARK    4  A    between atoms: C_9  and  C_10
REMARK    5  A    between atoms: C_10  and  C_13
REMARK    6  A    between atoms: C_13  and  N_14
REMARK    7  A    between atoms: N_14  and  C_15
REMARK    8  A    between atoms: C_18  and  C_19
REMARK                            x       y       z     vdW  Elec       q    Type
REMARK                         _______ _______ _______ _____ _____    ______ ____
ROOT
ATOM      1  C   UNL     1      44.949   6.262  11.942  0.00  0.00    +0.000 C 
ATOM      2  F   UNL     1      44.648   7.234  11.029  0.00  0.00    +0.000 F 
ATOM      3  F   UNL     1      44.298   6.636  13.088  0.00  0.00    +0.000 F 
ENDROOT
BRANCH   1   6
ATOM      4  C   UNL     1      44.474   3.207   9.750  0.00  0.00    +0.000 A 
ATOM      5  C   UNL     1      44.863   4.468  10.183  0.00  0.00    +0.000 A 
ATOM      6  C   UNL     1      44.472   4.902  11.457  0.00  0.00    +0.000 A 
ATOM      7  C   UNL     1      43.673   4.032  12.216  0.00  0.00    +0.000 A 
ATOM      8  C   UNL     1      43.325   2.797  11.689  0.00  0.00    +0.000 A 
ATOM      9  N   UNL     1      43.711   2.362  10.477  0.00  0.00    +0.000 NA
BRANCH   4  10
ATOM     10  O   UNL     1      44.905   2.822   8.491  0.00  0.00    +0.000 OA
BRANCH  10  15
ATOM     11  C   UNL     1      48.072   2.344   5.403  0.00  0.00    +0.000 C 
ATOM     12  C   UNL     1      46.855   2.495   6.291  0.00  0.00    +0.000 C 
ATOM     13  F   UNL     1      45.749   2.411   5.502  0.00  0.00    +0.000 F 
ATOM     14  C   UNL     1      46.861   3.696   7.260  0.00  0.00    +0.000 C 
ATOM     15  C   UNL     1      46.273   2.793   8.277  0.00  0.00    +0.000 C 
ATOM     16  C   UNL     1      46.804   1.613   7.558  0.00  0.00    +0.000 C 
ENDBRANCH  10  15
ENDBRANCH   4  10
ENDBRANCH   1   6
BRANCH   1  17
ATOM     17  C   UNL     1      46.474   6.331  12.231  0.00  0.00    +0.000 C 
BRANCH  17  18
ATOM     18  N   UNL     1      46.830   6.681  13.626  0.00  0.00    +0.000 N 
ATOM     19  H   UNL     1      46.105   7.241  14.078  0.00  0.00    +0.000 HD
BRANCH  18  20
ATOM     20  C   UNL     1      47.308   5.638  14.427  0.00  0.00    +0.000 A 
ATOM     21  C   UNL     1      47.039   4.290  14.220  0.00  0.00    +0.000 A 
ATOM     22  N   UNL     1      47.537   3.269  14.949  0.00  0.00    +0.000 NA
ATOM     23  C   UNL     1      48.392   3.631  15.933  0.00  0.00    +0.000 A 
ATOM     24  N   UNL     1      48.767   4.891  16.221  0.00  0.00    +0.000 NA
ATOM     25  C   UNL     1      48.227   5.855  15.445  0.00  0.00    +0.000 A 
BRANCH  23  26
ATOM     26  C   UNL     1      48.986   2.506  16.750  0.00  0.00    +0.000 C 
ATOM     27  N   UNL     1      48.863   2.637  18.117  0.00  0.00    +0.000 N 
ATOM     28  O   UNL     1      49.541   1.525  16.270  0.00  0.00    +0.000 OA
ATOM     29  H   UNL     1      48.375   3.429  18.513  0.00  0.00    +0.000 HD
ATOM     30  H   UNL     1      49.207   1.898  18.712  0.00  0.00    +0.000 HD
ENDBRANCH  23  26
ENDBRANCH  18  20
ENDBRANCH  17  18
ENDBRANCH   1  17
TORSDOF 7
ENDMDL
MODEL 3
REMARK VINA RESULT:    -7.962      2.749      4.098
REMARK INTER + INTRA:         -12.121
REMARK INTER:                 -11.155
REMARK INTRA:                  -0.966
REMARK UNBOUND:                -0.901
REMARK  Name = 
REMARK  8 active torsions:
REMARK  status: ('A' for Active; 'I' for Inactive)
REMARK    1  A    between atoms: C_1  and  C_2
REMARK    2  A    between atoms: C_5  and  O_6
REMARK    3  A    between atoms: O_6  and  C_7
REMARK    4  A    between atoms: C_9  and  C_10
REMARK    5  A    between atoms: C_10  and  C_13
REMARK    6  A    between atoms: C_13  and  N_14
REMARK    7  A    between atoms: N_14  and  C_15
REMARK    8  A    between atoms: C_18  and  C_19
REMARK                            x       y       z     vdW  Elec       q    Type
REMARK                         _______ _______ _______ _____ _____    ______ ____
ROOT
ATOM      1  C   UNL     1      43.686   5.779  11.735  0.00  0.00    +0.000 C 
ATOM      2  F   UNL     1      42.794   5.420  12.707  0.00  0.00    +0.000 F 
ATOM      3  F   UNL     1      43.348   7.064  11.399  0.00  0.00    +0.000 F 
ENDROOT
BRANCH   1   6
ATOM      4  C   UNL     1      47.369   6.534  12.212  0.00  0.00    +0.000 A 
ATOM      5  C   UNL     1      46.076   6.559  11.707  0.00  0.00    +0.000 A 
ATOM      6  C   UNL     1      45.112   5.705  12.259  0.00  0.00    +0.000 A 
ATOM      7  C   UNL     1      45.529   4.844  13.286  0.00  0.00    +0.000 A 
ATOM      8  C   UNL     1      46.849   4.884  13.712  0.00  0.00    +0.000 A 
ATOM      9  N   UNL     1      47.776   5.713  13.204  0.00  0.00    +0.000 NA
BRANCH   4  10
ATOM     10  O   UNL     1      48.276   7.414  11.642  0.00  0.00    +0.000 OA
BRANCH  10  15
ATOM     11  C   UNL     1      52.118   9.653  11.767  0.00  0.00    +0.000 C 
ATOM     12  C   UNL     1      50.736   9.054  11.606  0.00  0.00    +0.000 C 
ATOM     13  F   UNL     1      50.004   9.896  10.826  0.00  0.00    +0.000 F 
ATOM     14  C   UNL     1      50.031   8.609  12.905  0.00  0.00    +0.000 C 
ATOM     15  C   UNL     1      49.559   7.417  12.161  0.00  0.00    +0.000 C 
ATOM     16  C   UNL     1      50.664   7.569  11.188  0.00  0.00    +0.000 C 
ENDBRANCH  10  15
ENDBRANCH   4  10
ENDBRANCH   1   6
BRANCH   1  17
ATOM     17  C   UNL     1      43.423   4.889  10.489  0.00  0.00    +0.000 C 
BRANCH  17  18
ATOM     18  N   UNL     1      44.041   3.544  10.541  0.00  0.00    +0.000 N 
ATOM     19  H   UNL     1      43.350   2.811  10.709  0.00  0.00    +0.000 HD
BRANCH  18  20
ATOM     20  C   UNL     1      44.944   3.234   9.519  0.00  0.00    +0.000 A 
ATOM     21  C   UNL     1      45.349   1.949   9.180  0.00  0.00    +0.000 A 
ATOM     22  N   UNL     1      46.176   1.629   8.162  0.00  0.00    +0.000 NA
ATOM     23  C   UNL     1      46.595   2.674   7.414  0.00  0.00    +0.000 A 
ATOM     24  N   UNL     1      46.256   3.962   7.606  0.00  0.00    +0.000 NA
ATOM     25  C   UNL     1      45.423   4.200   8.643  0.00  0.00    +0.000 A 
BRANCH  23  26
ATOM     26  C   UNL     1      47.502   2.343   6.250  0.00  0.00    +0.000 C 
ATOM     27  N   UNL     1      47.258   3.046   5.089  0.00  0.00    +0.000 N 
ATOM     28  O   UNL     1      48.407   1.519   6.295  0.00  0.00    +0.000 OA
ATOM     29  H   UNL     1      46.534   3.751   5.061  0.00  0.00    +0.000 HD
ATOM     30  H   UNL     1      47.856   2.894   4.291  0.00  0.00    +0.000 HD
ENDBRANCH  23  26
ENDBRANCH  18  20
ENDBRANCH  17  18
ENDBRANCH   1  17
TORSDOF 7
ENDMDL
MODEL 4
REMARK VINA RESULT:    -6.920      3.147      8.064
REMARK INTER + INTRA:         -10.652
REMARK INTER:                  -9.822
REMARK INTRA:                  -0.830
REMARK UNBOUND:                -0.901
REMARK  Name = 
REMARK  8 active torsions:
REMARK  status: ('A' for Active; 'I' for Inactive)
REMARK    1  A    between atoms: C_1  and  C_2
REMARK    2  A    between atoms: C_5  and  O_6
REMARK    3  A    between atoms: O_6  and  C_7
REMARK    4  A    between atoms: C_9  and  C_10
REMARK    5  A    between atoms: C_10  and  C_13
REMARK    6  A    between atoms: C_13  and  N_14
REMARK    7  A    between atoms: N_14  and  C_15
REMARK    8  A    between atoms: C_18  and  C_19
REMARK                            x       y       z     vdW  Elec       q    Type
REMARK                         _______ _______ _______ _____ _____    ______ ____
ROOT
ATOM      1  C   UNL     1      44.932   6.405  11.839  0.00  0.00    +0.000 C 
ATOM      2  F   UNL     1      44.221   7.395  11.221  0.00  0.00    +0.000 F 
ATOM      3  F   UNL     1      44.699   6.581  13.177  0.00  0.00    +0.000 F 
ENDROOT
BRANCH   1   6
ATOM      4  C   UNL     1      44.469   3.316   9.692  0.00  0.00    +0.000 A 
ATOM      5  C   UNL     1      44.851   4.585  10.105  0.00  0.00    +0.000 A 
ATOM      6  C   UNL     1      44.462   5.035  11.375  0.00  0.00    +0.000 A 
ATOM      7  C   UNL     1      43.672   4.170  12.149  0.00  0.00    +0.000 A 
ATOM      8  C   UNL     1      43.329   2.925  11.641  0.00  0.00    +0.000 A 
ATOM      9  N   UNL     1      43.715   2.476  10.434  0.00  0.00    +0.000 NA
BRANCH   4  10
ATOM     10  O   UNL     1      44.898   2.916   8.437  0.00  0.00    +0.000 OA
BRANCH  10  15
ATOM     11  C   UNL     1      48.062   2.322   5.366  0.00  0.00    +0.000 C 
ATOM     12  C   UNL     1      46.845   2.505   6.249  0.00  0.00    +0.000 C 
ATOM     13  F   UNL     1      45.739   2.390   5.465  0.00  0.00    +0.000 F 
ATOM     14  C   UNL     1      46.852   3.743   7.171  0.00  0.00    +0.000 C 
ATOM     15  C   UNL     1      46.266   2.880   8.223  0.00  0.00    +0.000 C 
ATOM     16  C   UNL     1      46.797   1.673   7.549  0.00  0.00    +0.000 C 
ENDBRANCH  10  15
ENDBRANCH   4  10
ENDBRANCH   1   6
BRANCH   1  17
ATOM     17  C   UNL     1      46.442   6.672  11.591  0.00  0.00    +0.000 C 
BRANCH  17  18
ATOM     18  N   UNL     1      46.992   7.851  12.300  0.00  0.00    +0.000 N 
ATOM     19  H   UNL     1      46.259   8.500  12.591  0.00  0.00    +0.000 HD
BRANCH  18  20
ATOM     20  C   UNL     1      47.935   7.592  13.300  0.00  0.00    +0.000 A 
ATOM     21  C   UNL     1      47.951   6.458  14.103  0.00  0.00    +0.000 A 
ATOM     22  N   UNL     1      48.886   6.167  15.033  0.00  0.00    +0.000 NA
ATOM     23  C   UNL     1      49.891   7.064  15.135  0.00  0.00    +0.000 A 
ATOM     24  N   UNL     1      50.020   8.184  14.400  0.00  0.00    +0.000 NA
ATOM     25  C   UNL     1      49.046   8.403  13.490  0.00  0.00    +0.000 A 
BRANCH  23  26
ATOM     26  C   UNL     1      50.966   6.752  16.151  0.00  0.00    +0.000 C 
ATOM     27  N   UNL     1      51.811   7.796  16.462  0.00  0.00    +0.000 N 
ATOM     28  O   UNL     1      51.108   5.661  16.690  0.00  0.00    +0.000 OA
ATOM     29  H   UNL     1      51.673   8.706  16.043  0.00  0.00    +0.000 HD
ATOM     30  H   UNL     1      52.524   7.656  17.162  0.00  0.00    +0.000 HD
ENDBRANCH  23  26
ENDBRANCH  18  20
ENDBRANCH  17  18
ENDBRANCH   1  17
TORSDOF 7
ENDMDL
MODEL 5
REMARK VINA RESULT:    -6.577      2.447      3.149
REMARK INTER + INTRA:         -10.169
REMARK INTER:                  -9.452
REMARK INTRA:                  -0.716
REMARK UNBOUND:                -0.901
REMARK  Name = 
REMARK  8 active torsions:
REMARK  status: ('A' for Active; 'I' for Inactive)
REMARK    1  A    between atoms: C_1  and  C_2
REMARK    2  A    between atoms: C_5  and  O_6
REMARK    3  A    between atoms: O_6  and  C_7
REMARK    4  A    between atoms: C_9  and  C_10
REMARK    5  A    between atoms: C_10  and  C_13
REMARK    6  A    between atoms: C_13  and  N_14
REMARK    7  A    between atoms: N_14  and  C_15
REMARK    8  A    between atoms: C_18  and  C_19
REMARK                            x       y       z     vdW  Elec       q    Type
REMARK                         _______ _______ _______ _____ _____    ______ ____
ROOT
ATOM      1  C   UNL     1      44.923   6.530  12.405  0.00  0.00    +0.000 C 
ATOM      2  F   UNL     1      43.683   6.068  12.748  0.00  0.00    +0.000 F 
ATOM      3  F   UNL     1      44.858   7.887  12.580  0.00  0.00    +0.000 F 
ENDROOT
BRANCH   1   6
ATOM      4  C   UNL     1      48.163   6.072  14.319  0.00  0.00    +0.000 A 
ATOM      5  C   UNL     1      47.200   6.602  13.471  0.00  0.00    +0.000 A 
ATOM      6  C   UNL     1      45.992   5.912  13.294  0.00  0.00    +0.000 A 
ATOM      7  C   UNL     1      45.843   4.693  13.973  0.00  0.00    +0.000 A 
ATOM      8  C   UNL     1      46.870   4.239  14.788  0.00  0.00    +0.000 A 
ATOM      9  N   UNL     1      48.023   4.903  14.981  0.00  0.00    +0.000 NA
BRANCH   4  10
ATOM     10  O   UNL     1      49.327   6.806  14.472  0.00  0.00    +0.000 OA
BRANCH  10  15
ATOM     11  C   UNL     1      48.940   9.802  17.737  0.00  0.00    +0.000 C 
ATOM     12  C   UNL     1      48.932   8.905  16.518  0.00  0.00    +0.000 C 
ATOM     13  F   UNL     1      48.118   9.472  15.586  0.00  0.00    +0.000 F 
ATOM     14  C   UNL     1      48.664   7.407  16.775  0.00  0.00    +0.000 C 
ATOM     15  C   UNL     1      49.710   7.115  15.766  0.00  0.00    +0.000 C 
ATOM     16  C   UNL     1      50.306   8.454  15.976  0.00  0.00    +0.000 C 
ENDBRANCH  10  15
ENDBRANCH   4  10
ENDBRANCH   1   6
BRANCH   1  17
ATOM     17  C   UNL     1      45.131   6.266  10.889  0.00  0.00    +0.000 C 
BRANCH  17  18
ATOM     18  N   UNL     1      44.508   5.023  10.379  0.00  0.00    +0.000 N 
ATOM     19  H   UNL     1      43.506   5.137  10.212  0.00  0.00    +0.000 HD
BRANCH  18  20
ATOM     20  C   UNL     1      45.176   4.373   9.337  0.00  0.00    +0.000 A 
ATOM     21  C   UNL     1      46.045   4.990   8.444  0.00  0.00    +0.000 A 
ATOM     22  N   UNL     1      46.740   4.367   7.469  0.00  0.00    +0.000 NA
ATOM     23  C   UNL     1      46.574   3.026   7.412  0.00  0.00    +0.000 A 
ATOM     24  N   UNL     1      45.794   2.298   8.232  0.00  0.00    +0.000 NA
ATOM     25  C   UNL     1      45.133   2.994   9.183  0.00  0.00    +0.000 A 
BRANCH  23  26
ATOM     26  C   UNL     1      47.361   2.299   6.346  0.00  0.00    +0.000 C 
ATOM     27  N   UNL     1      47.068   2.654   5.046  0.00  0.00    +0.000 N 
ATOM     28  O   UNL     1      48.214   1.450   6.578  0.00  0.00    +0.000 OA
ATOM     29  H   UNL     1      46.389   3.378   4.855  0.00  0.00    +0.000 HD
ATOM     30  H   UNL     1      47.589   2.228   4.294  0.00  0.00    +0.000 HD
ENDBRANCH  23  26
ENDBRANCH  18  20
ENDBRANCH  17  18
ENDBRANCH   1  17
TORSDOF 7
ENDMDL
MODEL 6
REMARK VINA RESULT:    -6.100      4.083      7.688
REMARK INTER + INTRA:          -9.497
REMARK INTER:                  -8.145
REMARK INTRA:                  -1.352
REMARK UNBOUND:                -0.901
REMARK  Name = 
REMARK  8 active torsions:
REMARK  status: ('A' for Active; 'I' for Inactive)
REMARK    1  A    between atoms: C_1  and  C_2
REMARK    2  A    between atoms: C_5  and  O_6
REMARK    3  A    between atoms: O_6  and  C_7
REMARK    4  A    between atoms: C_9  and  C_10
REMARK    5  A    between atoms: C_10  and  C_13
REMARK    6  A    between atoms: C_13  and  N_14
REMARK    7  A    between atoms: N_14  and  C_15
REMARK    8  A    between atoms: C_18  and  C_19
REMARK                            x       y       z     vdW  Elec       q    Type
REMARK                         _______ _______ _______ _____ _____    ______ ____
ROOT
ATOM      1  C   UNL     1      48.763   5.410  19.041  0.00  0.00    +0.000 C 
ATOM      2  F   UNL     1      48.155   4.980  20.187  0.00  0.00    +0.000 F 
ATOM      3  F   UNL     1      50.082   5.567  19.375  0.00  0.00    +0.000 F 
ENDROOT
BRANCH   1   6
ATOM      4  C   UNL     1      47.449   3.681  15.934  0.00  0.00    +0.000 A 
ATOM      5  C   UNL     1      47.579   4.581  16.983  0.00  0.00    +0.000 A 
ATOM      6  C   UNL     1      48.596   4.387  17.927  0.00  0.00    +0.000 A 
ATOM      7  C   UNL     1      49.416   3.259  17.766  0.00  0.00    +0.000 A 
ATOM      8  C   UNL     1      49.198   2.409  16.692  0.00  0.00    +0.000 A 
ATOM      9  N   UNL     1      48.238   2.597  15.770  0.00  0.00    +0.000 NA
BRANCH   4  10
ATOM     10  O   UNL     1      46.440   3.933  15.020  0.00  0.00    +0.000 OA
BRANCH  10  15
ATOM     11  C   UNL     1      45.305   5.714  11.104  0.00  0.00    +0.000 C 
ATOM     12  C   UNL     1      45.520   5.211  12.516  0.00  0.00    +0.000 C 
ATOM     13  F   UNL     1      44.508   5.691  13.290  0.00  0.00    +0.000 F 
ATOM     14  C   UNL     1      46.931   5.417  13.107  0.00  0.00    +0.000 C 
ATOM     15  C   UNL     1      46.811   4.061  13.693  0.00  0.00    +0.000 C 
ATOM     16  C   UNL     1      45.790   3.699  12.684  0.00  0.00    +0.000 C 
ENDBRANCH  10  15
ENDBRANCH   4  10
ENDBRANCH   1   6
BRANCH   1  17
ATOM     17  C   UNL     1      48.200   6.816  18.697  0.00  0.00    +0.000 C 
BRANCH  17  18
ATOM     18  N   UNL     1      49.180   7.752  18.100  0.00  0.00    +0.000 N 
ATOM     19  H   UNL     1      50.108   7.653  18.516  0.00  0.00    +0.000 HD
BRANCH  18  20
ATOM     20  C   UNL     1      49.201   7.824  16.703  0.00  0.00    +0.000 A 
ATOM     21  C   UNL     1      48.484   8.741  15.944  0.00  0.00    +0.000 A 
ATOM     22  N   UNL     1      48.537   8.860  14.600  0.00  0.00    +0.000 NA
ATOM     23  C   UNL     1      49.397   8.020  13.984  0.00  0.00    +0.000 A 
ATOM     24  N   UNL     1      50.177   7.109  14.595  0.00  0.00    +0.000 NA
ATOM     25  C   UNL     1      50.069   7.053  15.940  0.00  0.00    +0.000 A 
BRANCH  23  26
ATOM     26  C   UNL     1      49.497   8.148  12.481  0.00  0.00    +0.000 C 
ATOM     27  N   UNL     1      50.494   7.404  11.886  0.00  0.00    +0.000 N 
ATOM     28  O   UNL     1      48.758   8.848  11.799  0.00  0.00    +0.000 OA
ATOM     29  H   UNL     1      51.082   6.800  12.444  0.00  0.00    +0.000 HD
ATOM     30  H   UNL     1      50.584   7.421  10.881  0.00  0.00    +0.000 HD
ENDBRANCH  23  26
ENDBRANCH  18  20
ENDBRANCH  17  18
ENDBRANCH   1  17
TORSDOF 7
ENDMDL
MODEL 7
REMARK VINA RESULT:    -6.095      3.072      4.333
REMARK INTER + INTRA:          -9.489
REMARK INTER:                  -8.847
REMARK INTRA:                  -0.643
REMARK UNBOUND:                -0.901
REMARK  Name = 
REMARK  8 active torsions:
REMARK  status: ('A' for Active; 'I' for Inactive)
REMARK    1  A    between atoms: C_1  and  C_2
REMARK    2  A    between atoms: C_5  and  O_6
REMARK    3  A    between atoms: O_6  and  C_7
REMARK    4  A    between atoms: C_9  and  C_10
REMARK    5  A    between atoms: C_10  and  C_13
REMARK    6  A    between atoms: C_13  and  N_14
REMARK    7  A    between atoms: N_14  and  C_15
REMARK    8  A    between atoms: C_18  and  C_19
REMARK                            x       y       z     vdW  Elec       q    Type
REMARK                         _______ _______ _______ _____ _____    ______ ____
ROOT
ATOM      1  C   UNL     1      47.739   8.438  12.539  0.00  0.00    +0.000 C 
ATOM      2  F   UNL     1      47.732   9.713  12.047  0.00  0.00    +0.000 F 
ATOM      3  F   UNL     1      47.749   7.630  11.432  0.00  0.00    +0.000 F 
ENDROOT
BRANCH   1   6
ATOM      4  C   UNL     1      50.032   6.977  15.179  0.00  0.00    +0.000 A 
ATOM      5  C   UNL     1      48.901   7.235  14.417  0.00  0.00    +0.000 A 
ATOM      6  C   UNL     1      48.969   8.201  13.403  0.00  0.00    +0.000 A 
ATOM      7  C   UNL     1      50.188   8.877  13.239  0.00  0.00    +0.000 A 
ATOM      8  C   UNL     1      51.258   8.557  14.062  0.00  0.00    +0.000 A 
ATOM      9  N   UNL     1      51.210   7.618  15.023  0.00  0.00    +0.000 NA
BRANCH   4  10
ATOM     10  O   UNL     1      49.914   5.999  16.153  0.00  0.00    +0.000 OA
BRANCH  10  15
ATOM     11  C   UNL     1      47.186   2.848  17.710  0.00  0.00    +0.000 C 
ATOM     12  C   UNL     1      48.264   3.765  17.172  0.00  0.00    +0.000 C 
ATOM     13  F   UNL     1      49.384   3.020  16.966  0.00  0.00    +0.000 F 
ATOM     14  C   UNL     1      48.500   5.074  17.956  0.00  0.00    +0.000 C 
ATOM     15  C   UNL     1      48.644   5.753  16.647  0.00  0.00    +0.000 C 
ATOM     16  C   UNL     1      47.875   4.676  15.986  0.00  0.00    +0.000 C 
ENDBRANCH  10  15
ENDBRANCH   4  10
ENDBRANCH   1   6
BRANCH   1  17
ATOM     17  C   UNL     1      46.393   8.199  13.275  0.00  0.00    +0.000 C 
BRANCH  17  18
ATOM     18  N   UNL     1      45.212   8.068  12.391  0.00  0.00    +0.000 N 
ATOM     19  H   UNL     1      45.283   8.666  11.565  0.00  0.00    +0.000 HD
BRANCH  18  20
ATOM     20  C   UNL     1      44.791   6.766  12.101  0.00  0.00    +0.000 A 
ATOM     21  C   UNL     1      43.787   6.439  11.198  0.00  0.00    +0.000 A 
ATOM     22  N   UNL     1      43.408   5.186  10.865  0.00  0.00    +0.000 NA
ATOM     23  C   UNL     1      44.114   4.198  11.458  0.00  0.00    +0.000 A 
ATOM     24  N   UNL     1      45.131   4.370  12.322  0.00  0.00    +0.000 NA
ATOM     25  C   UNL     1      45.451   5.652  12.602  0.00  0.00    +0.000 A 
BRANCH  23  26
ATOM     26  C   UNL     1      43.729   2.784  11.084  0.00  0.00    +0.000 C 
ATOM     27  N   UNL     1      44.379   2.262   9.985  0.00  0.00    +0.000 N 
ATOM     28  O   UNL     1      42.906   2.111  11.693  0.00  0.00    +0.000 OA
ATOM     29  H   UNL     1      45.083   2.805   9.503  0.00  0.00    +0.000 HD
ATOM     30  H   UNL     1      44.190   1.310   9.712  0.00  0.00    +0.000 HD
ENDBRANCH  23  26
ENDBRANCH  18  20
ENDBRANCH  17  18
ENDBRANCH   1  17
TORSDOF 7
ENDMDL
