MODEL 1
REMARK VINA RESULT:    -8.729      0.000      0.000
REMARK INTER + INTRA:         -12.117
REMARK INTER:                 -11.281
REMARK INTRA:                  -0.837
REMARK UNBOUND:                -0.837
REMARK  Name = 
REMARK  7 active torsions:
REMARK  status: ('A' for Active; 'I' for Inactive)
REMARK    1  A    between atoms: C_1  and  C_2
REMARK    2  A    between atoms: C_2  and  C_3
REMARK    3  A    between atoms: C_2  and  C_4
REMARK    4  A    between atoms: C_2  and  C_19
REMARK    5  A    between atoms: C_5  and  C_6
REMARK    6  A    between atoms: C_8  and  C_9
REMARK    7  A    between atoms: C_22  and  C_23
REMARK                            x       y       z     vdW  Elec       q    Type
REMARK                         _______ _______ _______ _____ _____    ______ ____
ROOT
ATOM      1  C   UNL     1      43.457   3.267  11.651  0.00  0.00    +0.000 C 
ATOM      2  C   UNL     1      44.343   4.322  10.948  0.00  0.00    +0.000 C 
ATOM      3  C   UNL     1      43.399   5.440  10.440  0.00  0.00    +0.000 C 
ENDROOT
BRANCH   2   4
ATOM      4  C   UNL     1      45.119   3.765   9.739  0.00  0.00    +0.000 A 
ATOM      5  C   UNL     1      45.676   4.637   8.782  0.00  0.00    +0.000 A 
ATOM      6  C   UNL     1      46.331   4.148   7.642  0.00  0.00    +0.000 A 
ATOM      7  C   UNL     1      46.448   2.767   7.425  0.00  0.00    +0.000 A 
ATOM      8  C   UNL     1      45.922   1.901   8.382  0.00  0.00    +0.000 A 
ATOM      9  F   UNL     1      46.010   0.571   8.235  0.00  0.00    +0.000 F 
ATOM     10  C   UNL     1      45.273   2.386   9.516  0.00  0.00    +0.000 A 
BRANCH   7  11
ATOM     11  C   UNL     1      47.111   2.291   6.184  0.00  0.00    +0.000 C 
ATOM     12  N   UNL     1      46.777   2.892   5.002  0.00  0.00    +0.000 N 
ATOM     13  O   UNL     1      47.940   1.391   6.205  0.00  0.00    +0.000 OA
ATOM     14  H   UNL     1      46.100   3.648   4.942  0.00  0.00    +0.000 HD
ATOM     15  H   UNL     1      47.239   2.583   4.160  0.00  0.00    +0.000 HD
ENDBRANCH   7  11
ENDBRANCH   2   4
BRANCH   2  16
ATOM     16  C   UNL     1      45.233   4.909  12.038  0.00  0.00    +0.000 C 
ATOM     17  C   UNL     1      46.162   5.874  11.913  0.00  0.00    +0.000 C 
BRANCH  17  18
ATOM     18  C   UNL     1      46.983   6.328  13.045  0.00  0.00    +0.000 A 
ATOM     19  C   UNL     1      47.159   5.506  14.154  0.00  0.00    +0.000 A 
ATOM     20  C   UNL     1      47.965   5.934  15.221  0.00  0.00    +0.000 A 
ATOM     21  C   UNL     1      48.538   7.208  15.113  0.00  0.00    +0.000 A 
ATOM     22  C   UNL     1      48.293   7.971  13.983  0.00  0.00    +0.000 A 
ATOM     23  N   UNL     1      47.540   7.556  12.949  0.00  0.00    +0.000 NA
BRANCH  20  24
ATOM     24  C   UNL     1      48.200   5.075  16.406  0.00  0.00    +0.000 A 
ATOM     25  C   UNL     1      49.256   5.334  17.302  0.00  0.00    +0.000 A 
ATOM     26  C   UNL     1      49.484   4.527  18.424  0.00  0.00    +0.000 A 
ATOM     27  C   UNL     1      48.649   3.447  18.681  0.00  0.00    +0.000 A 
ATOM     28  C   UNL     1      47.603   3.178  17.812  0.00  0.00    +0.000 A 
ATOM     29  F   UNL     1      46.792   2.140  18.057  0.00  0.00    +0.000 F 
ATOM     30  C   UNL     1      47.378   3.969  16.687  0.00  0.00    +0.000 A 
ENDBRANCH  20  24
ENDBRANCH  17  18
ENDBRANCH   2  16
TORSDOF 5
ENDMDL
MODEL 2
REMARK VINA RESULT:    -8.420      2.464      3.397
REMARK INTER + INTRA:         -11.719
REMARK INTER:                 -10.805
REMARK INTRA:                  -0.914
REMARK UNBOUND:                -0.837
REMARK  Name = 
REMARK  7 active torsions:
REMARK  status: ('A' for Active; 'I' for Inactive)
REMARK    1  A    between atoms: C_1  and  C_2
REMARK    2  A    between atoms: C_2  and  C_3
REMARK    3  A    between atoms: C_2  and  C_4
REMARK    4  A    between atoms: C_2  and  C_19
REMARK    5  A    between atoms: C_5  and  C_6
REMARK    6  A    between atoms: C_8  and  C_9
REMARK    7  A    between atoms: C_22  and  C_23
REMARK                            x       y       z     vdW  Elec       q    Type
REMARK                         _______ _______ _______ _____ _____    ______ ____
ROOT
ATOM      1  C   UNL     1      43.266   2.772  11.430  0.00  0.00    +0.000 C 
ATOM      2  C   UNL     1      44.300   3.858  11.049  0.00  0.00    +0.000 C 
ATOM      3  C   UNL     1      43.508   5.160  10.771  0.00  0.00    +0.000 C 
ENDROOT
BRANCH   2   4
ATOM      4  C   UNL     1      45.114   3.515   9.786  0.00  0.00    +0.000 A 
ATOM      5  C   UNL     1      45.627   4.538   8.964  0.00  0.00    +0.000 A 
ATOM      6  C   UNL     1      46.316   4.247   7.777  0.00  0.00    +0.000 A 
ATOM      7  C   UNL     1      46.511   2.917   7.377  0.00  0.00    +0.000 A 
ATOM      8  C   UNL     1      46.028   1.901   8.198  0.00  0.00    +0.000 A 
ATOM      9  F   UNL     1      46.192   0.610   7.873  0.00  0.00    +0.000 F 
ATOM     10  C   UNL     1      45.346   2.190   9.379  0.00  0.00    +0.000 A 
BRANCH   7  11
ATOM     11  C   UNL     1      47.208   2.653   6.091  0.00  0.00    +0.000 C 
ATOM     12  N   UNL     1      48.568   2.511   6.111  0.00  0.00    +0.000 N 
ATOM     13  O   UNL     1      46.593   2.556   5.038  0.00  0.00    +0.000 OA
ATOM     14  H   UNL     1      49.115   2.575   6.965  0.00  0.00    +0.000 HD
ATOM     15  H   UNL     1      49.042   2.313   5.242  0.00  0.00    +0.000 HD
ENDBRANCH   7  11
ENDBRANCH   2   4
BRANCH   2  16
ATOM     16  C   UNL     1      45.151   4.075  12.294  0.00  0.00    +0.000 C 
ATOM     17  C   UNL     1      45.980   5.101  12.558  0.00  0.00    +0.000 C 
BRANCH  17  18
ATOM     18  C   UNL     1      46.777   5.174  13.791  0.00  0.00    +0.000 A 
ATOM     19  C   UNL     1      47.768   6.142  13.925  0.00  0.00    +0.000 A 
ATOM     20  C   UNL     1      48.510   6.223  15.114  0.00  0.00    +0.000 A 
ATOM     21  C   UNL     1      48.215   5.284  16.112  0.00  0.00    +0.000 A 
ATOM     22  C   UNL     1      47.226   4.340  15.888  0.00  0.00    +0.000 A 
ATOM     23  N   UNL     1      46.499   4.272  14.759  0.00  0.00    +0.000 NA
BRANCH  20  24
ATOM     24  C   UNL     1      49.554   7.258  15.307  0.00  0.00    +0.000 A 
ATOM     25  C   UNL     1      50.792   6.949  15.902  0.00  0.00    +0.000 A 
ATOM     26  C   UNL     1      51.784   7.921  16.087  0.00  0.00    +0.000 A 
ATOM     27  C   UNL     1      51.559   9.226  15.665  0.00  0.00    +0.000 A 
ATOM     28  C   UNL     1      50.347   9.549  15.075  0.00  0.00    +0.000 A 
ATOM     29  F   UNL     1      50.128  10.804  14.664  0.00  0.00    +0.000 F 
ATOM     30  C   UNL     1      49.352   8.589  14.900  0.00  0.00    +0.000 A 
ENDBRANCH  20  24
ENDBRANCH  17  18
ENDBRANCH   2  16
TORSDOF 5
ENDMDL
MODEL 3
REMARK VINA RESULT:    -8.303      4.326      8.231
REMARK INTER + INTRA:         -11.567
REMARK INTER:                 -10.599
REMARK INTRA:                  -0.968
REMARK UNBOUND:                -0.837
REMARK  Name = 
REMARK  7 active torsions:
REMARK  status: ('A' for Active; 'I' for Inactive)
REMARK    1  A    between atoms: C_1  and  C_2
REMARK    2  A    between atoms: C_2  and  C_3
REMARK    3  A    between atoms: C_2  and  C_4
REMARK    4  A    between atoms: C_2  and  C_19
REMARK    5  A    between atoms: C_5  and  C_6
REMARK    6  A    between atoms: C_8  and  C_9
REMARK    7  A    between atoms: C_22  and  C_23
REMARK                            x       y       z     vdW  Elec       q    Type
REMARK                         _______ _______ _______ _____ _____    ______ ____
ROOT
ATOM      1  C   UNL     1      46.364   9.701  12.130  0.00  0.00    +0.000 C 
ATOM      2  C   UNL     1      47.348   8.555  12.462  0.00  0.00    +0.000 C 
ATOM      3  C   UNL     1      47.416   8.449  14.005  0.00  0.00    +0.000 C 
ENDROOT
BRANCH   2   4
ATOM      4  C   UNL     1      48.775   8.799  11.936  0.00  0.00    +0.000 A 
ATOM      5  C   UNL     1      49.272  10.111  11.790  0.00  0.00    +0.000 A 
ATOM      6  C   UNL     1      50.544  10.356  11.253  0.00  0.00    +0.000 A 
ATOM      7  C   UNL     1      51.361   9.291  10.845  0.00  0.00    +0.000 A 
ATOM      8  C   UNL     1      50.886   7.992  11.011  0.00  0.00    +0.000 A 
ATOM      9  F   UNL     1      51.625   6.933  10.647  0.00  0.00    +0.000 F 
ATOM     10  C   UNL     1      49.623   7.747  11.546  0.00  0.00    +0.000 A 
BRANCH   7  11
ATOM     11  C   UNL     1      52.684   9.596  10.242  0.00  0.00    +0.000 C 
ATOM     12  N   UNL     1      53.804   9.373  10.994  0.00  0.00    +0.000 N 
ATOM     13  O   UNL     1      52.784  10.029   9.101  0.00  0.00    +0.000 OA
ATOM     14  H   UNL     1      53.765   9.007  11.942  0.00  0.00    +0.000 HD
ATOM     15  H   UNL     1      54.705   9.562  10.581  0.00  0.00    +0.000 HD
ENDBRANCH   7  11
ENDBRANCH   2   4
BRANCH   2  16
ATOM     16  C   UNL     1      46.699   7.284  11.925  0.00  0.00    +0.000 C 
ATOM     17  C   UNL     1      45.466   7.144  11.407  0.00  0.00    +0.000 C 
BRANCH  17  18
ATOM     18  C   UNL     1      44.945   5.847  10.954  0.00  0.00    +0.000 A 
ATOM     19  C   UNL     1      45.590   5.152   9.935  0.00  0.00    +0.000 A 
ATOM     20  C   UNL     1      45.103   3.901   9.523  0.00  0.00    +0.000 A 
ATOM     21  C   UNL     1      43.951   3.427  10.164  0.00  0.00    +0.000 A 
ATOM     22  C   UNL     1      43.357   4.192  11.154  0.00  0.00    +0.000 A 
ATOM     23  N   UNL     1      43.833   5.380  11.566  0.00  0.00    +0.000 NA
BRANCH  20  24
ATOM     24  C   UNL     1      45.779   3.119   8.461  0.00  0.00    +0.000 A 
ATOM     25  C   UNL     1      46.278   3.737   7.298  0.00  0.00    +0.000 A 
ATOM     26  C   UNL     1      46.918   3.004   6.290  0.00  0.00    +0.000 A 
ATOM     27  C   UNL     1      47.084   1.631   6.434  0.00  0.00    +0.000 A 
ATOM     28  C   UNL     1      46.601   1.006   7.572  0.00  0.00    +0.000 A 
ATOM     29  F   UNL     1      46.762  -0.316   7.717  0.00  0.00    +0.000 F 
ATOM     30  C   UNL     1      45.953   1.727   8.572  0.00  0.00    +0.000 A 
ENDBRANCH  20  24
ENDBRANCH  17  18
ENDBRANCH   2  16
TORSDOF 5
ENDMDL
MODEL 4
REMARK VINA RESULT:    -8.244      3.242      8.819
REMARK INTER + INTRA:         -11.490
REMARK INTER:                 -10.572
REMARK INTRA:                  -0.918
REMARK UNBOUND:                -0.837
REMARK  Name = 
REMARK  7 active torsions:
REMARK  status: ('A' for Active; 'I' for Inactive)
REMARK    1  A    between atoms: C_1  and  C_2
REMARK    2  A    between atoms: C_2  and  C_3
REMARK    3  A    between atoms: C_2  and  C_4
REMARK    4  A    between atoms: C_2  and  C_19
REMARK    5  A    between atoms: C_5  and  C_6
REMARK    6  A    between atoms: C_8  and  C_9
REMARK    7  A    between atoms: C_22  and  C_23
REMARK                            x       y       z     vdW  Elec       q    Type
REMARK                         _______ _______ _______ _____ _____    ______ ____
ROOT
ATOM      1  C   UNL     1      49.471   7.482  12.898  0.00  0.00    +0.000 C 
ATOM      2  C   UNL     1      48.198   7.175  13.721  0.00  0.00    +0.000 C 
ATOM      3  C   UNL     1      47.544   8.536  14.068  0.00  0.00    +0.000 C 
ENDROOT
BRANCH   2   4
ATOM      4  C   UNL     1      48.484   6.432  15.040  0.00  0.00    +0.000 A 
ATOM      5  C   UNL     1      49.547   6.833  15.874  0.00  0.00    +0.000 A 
ATOM      6  C   UNL     1      49.863   6.130  17.046  0.00  0.00    +0.000 A 
ATOM      7  C   UNL     1      49.121   5.001  17.420  0.00  0.00    +0.000 A 
ATOM      8  C   UNL     1      48.052   4.615  16.614  0.00  0.00    +0.000 A 
ATOM      9  F   UNL     1      47.300   3.548  16.923  0.00  0.00    +0.000 F 
ATOM     10  C   UNL     1      47.736   5.314  15.450  0.00  0.00    +0.000 A 
BRANCH   7  11
ATOM     11  C   UNL     1      49.515   4.260  18.646  0.00  0.00    +0.000 C 
ATOM     12  N   UNL     1      50.805   3.818  18.747  0.00  0.00    +0.000 N 
ATOM     13  O   UNL     1      48.718   4.049  19.551  0.00  0.00    +0.000 OA
ATOM     14  H   UNL     1      51.499   3.979  18.022  0.00  0.00    +0.000 HD
ATOM     15  H   UNL     1      51.080   3.330  19.587  0.00  0.00    +0.000 HD
ENDBRANCH   7  11
ENDBRANCH   2   4
BRANCH   2  16
ATOM     16  C   UNL     1      47.265   6.425  12.777  0.00  0.00    +0.000 C 
ATOM     17  C   UNL     1      45.980   6.705  12.494  0.00  0.00    +0.000 C 
BRANCH  17  18
ATOM     18  C   UNL     1      45.176   5.875  11.586  0.00  0.00    +0.000 A 
ATOM     19  C   UNL     1      45.796   5.125  10.591  0.00  0.00    +0.000 A 
ATOM     20  C   UNL     1      45.025   4.315   9.742  0.00  0.00    +0.000 A 
ATOM     21  C   UNL     1      43.638   4.330   9.938  0.00  0.00    +0.000 A 
ATOM     22  C   UNL     1      43.099   5.123  10.938  0.00  0.00    +0.000 A 
ATOM     23  N   UNL     1      43.836   5.884  11.767  0.00  0.00    +0.000 NA
BRANCH  20  24
ATOM     24  C   UNL     1      45.652   3.479   8.691  0.00  0.00    +0.000 A 
ATOM     25  C   UNL     1      46.205   4.053   7.529  0.00  0.00    +0.000 A 
ATOM     26  C   UNL     1      46.799   3.270   6.531  0.00  0.00    +0.000 A 
ATOM     27  C   UNL     1      46.863   1.890   6.682  0.00  0.00    +0.000 A 
ATOM     28  C   UNL     1      46.325   1.307   7.819  0.00  0.00    +0.000 A 
ATOM     29  F   UNL     1      46.388  -0.022   7.970  0.00  0.00    +0.000 F 
ATOM     30  C   UNL     1      45.722   2.079   8.809  0.00  0.00    +0.000 A 
ENDBRANCH  20  24
ENDBRANCH  17  18
ENDBRANCH   2  16
TORSDOF 5
ENDMDL
MODEL 5
REMARK VINA RESULT:    -8.224      3.890      9.190
REMARK INTER + INTRA:         -11.464
REMARK INTER:                 -10.470
REMARK INTRA:                  -0.995
REMARK UNBOUND:                -0.837
REMARK  Name = 
REMARK  7 active torsions:
REMARK  status: ('A' for Active; 'I' for Inactive)
REMARK    1  A    between atoms: C_1  and  C_2
REMARK    2  A    between atoms: C_2  and  C_3
REMARK    3  A    between atoms: C_2  and  C_4
REMARK    4  A    between atoms: C_2  and  C_19
REMARK    5  A    between atoms: C_5  and  C_6
REMARK    6  A    between atoms: C_8  and  C_9
REMARK    7  A    between atoms: C_22  and  C_23
REMARK                            x       y       z     vdW  Elec       q    Type
REMARK                         _______ _______ _______ _____ _____    ______ ____
ROOT
ATOM      1  C   UNL     1      49.712   8.175  11.702  0.00  0.00    +0.000 C 
ATOM      2  C   UNL     1      48.358   8.275  12.442  0.00  0.00    +0.000 C 
ATOM      3  C   UNL     1      47.790   9.688  12.159  0.00  0.00    +0.000 C 
ENDROOT
BRANCH   2   4
ATOM      4  C   UNL     1      48.479   8.105  13.969  0.00  0.00    +0.000 A 
ATOM      5  C   UNL     1      48.889   6.876  14.523  0.00  0.00    +0.000 A 
ATOM      6  C   UNL     1      48.944   6.682  15.911  0.00  0.00    +0.000 A 
ATOM      7  C   UNL     1      48.589   7.716  16.789  0.00  0.00    +0.000 A 
ATOM      8  C   UNL     1      48.208   8.942  16.247  0.00  0.00    +0.000 A 
ATOM      9  F   UNL     1      47.866   9.972  17.035  0.00  0.00    +0.000 F 
ATOM     10  C   UNL     1      48.156   9.136  14.868  0.00  0.00    +0.000 A 
BRANCH   7  11
ATOM     11  C   UNL     1      48.620   7.456  18.251  0.00  0.00    +0.000 C 
ATOM     12  N   UNL     1      47.429   7.368  18.917  0.00  0.00    +0.000 N 
ATOM     13  O   UNL     1      49.676   7.315  18.855  0.00  0.00    +0.000 OA
ATOM     14  H   UNL     1      46.531   7.469  18.453  0.00  0.00    +0.000 HD
ATOM     15  H   UNL     1      47.447   7.173  19.907  0.00  0.00    +0.000 HD
ENDBRANCH   7  11
ENDBRANCH   2   4
BRANCH   2  16
ATOM     16  C   UNL     1      47.445   7.253  11.776  0.00  0.00    +0.000 C 
ATOM     17  C   UNL     1      46.107   7.303  11.645  0.00  0.00    +0.000 C 
BRANCH  17  18
ATOM     18  C   UNL     1      45.336   6.227  11.007  0.00  0.00    +0.000 A 
ATOM     19  C   UNL     1      45.931   5.420  10.041  0.00  0.00    +0.000 A 
ATOM     20  C   UNL     1      45.199   4.377   9.453  0.00  0.00    +0.000 A 
ATOM     21  C   UNL     1      43.869   4.223   9.868  0.00  0.00    +0.000 A 
ATOM     22  C   UNL     1      43.348   5.084  10.820  0.00  0.00    +0.000 A 
ATOM     23  N   UNL     1      44.053   6.070  11.401  0.00  0.00    +0.000 NA
BRANCH  20  24
ATOM     24  C   UNL     1      45.806   3.479   8.442  0.00  0.00    +0.000 A 
ATOM     25  C   UNL     1      46.328   3.980   7.234  0.00  0.00    +0.000 A 
ATOM     26  C   UNL     1      46.903   3.137   6.274  0.00  0.00    +0.000 A 
ATOM     27  C   UNL     1      46.979   1.770   6.511  0.00  0.00    +0.000 A 
ATOM     28  C   UNL     1      46.472   1.258   7.696  0.00  0.00    +0.000 A 
ATOM     29  F   UNL     1      46.547  -0.058   7.931  0.00  0.00    +0.000 F 
ATOM     30  C   UNL     1      45.888   2.090   8.649  0.00  0.00    +0.000 A 
ENDBRANCH  20  24
ENDBRANCH  17  18
ENDBRANCH   2  16
TORSDOF 5
ENDMDL
MODEL 6
REMARK VINA RESULT:    -7.453      3.949      8.783
REMARK INTER + INTRA:         -10.469
REMARK INTER:                  -9.435
REMARK INTRA:                  -1.034
REMARK UNBOUND:                -0.837
REMARK  Name = 
REMARK  7 active torsions:
REMARK  status: ('A' for Active; 'I' for Inactive)
REMARK    1  A    between atoms: C_1  and  C_2
REMARK    2  A    between atoms: C_2  and  C_3
REMARK    3  A    between atoms: C_2  and  C_4
REMARK    4  A    between atoms: C_2  and  C_19
REMARK    5  A    between atoms: C_5  and  C_6
REMARK    6  A    between atoms: C_8  and  C_9
REMARK    7  A    between atoms: C_22  and  C_23
REMARK                            x       y       z     vdW  Elec       q    Type
REMARK                         _______ _______ _______ _____ _____    ______ ____
ROOT
ATOM      1  C   UNL     1      47.977   5.134  18.495  0.00  0.00    +0.000 C 
ATOM      2  C   UNL     1      48.246   4.021  17.455  0.00  0.00    +0.000 C 
ATOM      3  C   UNL     1      47.272   2.860  17.773  0.00  0.00    +0.000 C 
ENDROOT
BRANCH   2   4
ATOM      4  C   UNL     1      49.683   3.467  17.507  0.00  0.00    +0.000 A 
ATOM      5  C   UNL     1      49.947   2.124  17.167  0.00  0.00    +0.000 A 
ATOM      6  C   UNL     1      51.237   1.584  17.269  0.00  0.00    +0.000 A 
ATOM      7  C   UNL     1      52.306   2.375  17.715  0.00  0.00    +0.000 A 
ATOM      8  C   UNL     1      52.057   3.709  18.027  0.00  0.00    +0.000 A 
ATOM      9  F   UNL     1      53.040   4.517  18.451  0.00  0.00    +0.000 F 
ATOM     10  C   UNL     1      50.775   4.248  17.924  0.00  0.00    +0.000 A 
BRANCH   7  11
ATOM     11  C   UNL     1      53.648   1.752  17.849  0.00  0.00    +0.000 C 
ATOM     12  N   UNL     1      53.814   0.769  18.785  0.00  0.00    +0.000 N 
ATOM     13  O   UNL     1      54.588   2.096  17.144  0.00  0.00    +0.000 OA
ATOM     14  H   UNL     1      53.059   0.448  19.385  0.00  0.00    +0.000 HD
ATOM     15  H   UNL     1      54.720   0.332  18.865  0.00  0.00    +0.000 HD
ENDBRANCH   7  11
ENDBRANCH   2   4
BRANCH   2  16
ATOM     16  C   UNL     1      47.859   4.612  16.105  0.00  0.00    +0.000 C 
ATOM     17  C   UNL     1      48.238   5.793  15.583  0.00  0.00    +0.000 C 
BRANCH  17  18
ATOM     18  C   UNL     1      47.762   6.265  14.275  0.00  0.00    +0.000 A 
ATOM     19  C   UNL     1      46.980   5.436  13.475  0.00  0.00    +0.000 A 
ATOM     20  C   UNL     1      46.507   5.900  12.238  0.00  0.00    +0.000 A 
ATOM     21  C   UNL     1      46.881   7.197  11.862  0.00  0.00    +0.000 A 
ATOM     22  C   UNL     1      47.680   7.949  12.708  0.00  0.00    +0.000 A 
ATOM     23  N   UNL     1      48.118   7.515  13.903  0.00  0.00    +0.000 NA
BRANCH  20  24
ATOM     24  C   UNL     1      45.648   5.058  11.372  0.00  0.00    +0.000 A 
ATOM     25  C   UNL     1      45.634   5.219   9.973  0.00  0.00    +0.000 A 
ATOM     26  C   UNL     1      44.825   4.427   9.148  0.00  0.00    +0.000 A 
ATOM     27  C   UNL     1      44.020   3.444   9.708  0.00  0.00    +0.000 A 
ATOM     28  C   UNL     1      44.021   3.269  11.083  0.00  0.00    +0.000 A 
ATOM     29  F   UNL     1      43.250   2.320  11.628  0.00  0.00    +0.000 F 
ATOM     30  C   UNL     1      44.814   4.062  11.910  0.00  0.00    +0.000 A 
ENDBRANCH  20  24
ENDBRANCH  17  18
ENDBRANCH   2  16
TORSDOF 5
ENDMDL
MODEL 7
REMARK VINA RESULT:    -7.366      4.584      8.361
REMARK INTER + INTRA:         -10.355
REMARK INTER:                  -9.353
REMARK INTRA:                  -1.002
REMARK UNBOUND:                -0.837
REMARK  Name = 
REMARK  7 active torsions:
REMARK  status: ('A' for Active; 'I' for Inactive)
REMARK    1  A    between atoms: C_1  and  C_2
REMARK    2  A    between atoms: C_2  and  C_3
REMARK    3  A    between atoms: C_2  and  C_4
REMARK    4  A    between atoms: C_2  and  C_19
REMARK    5  A    between atoms: C_5  and  C_6
REMARK    6  A    between atoms: C_8  and  C_9
REMARK    7  A    between atoms: C_22  and  C_23
REMARK                            x       y       z     vdW  Elec       q    Type
REMARK                         _______ _______ _______ _____ _____    ______ ____
ROOT
ATOM      1  C   UNL     1      47.403  10.336  12.218  0.00  0.00    +0.000 C 
ATOM      2  C   UNL     1      47.971   8.949  12.596  0.00  0.00    +0.000 C 
ATOM      3  C   UNL     1      47.905   8.837  14.139  0.00  0.00    +0.000 C 
ENDROOT
BRANCH   2   4
ATOM      4  C   UNL     1      49.437   8.747  12.165  0.00  0.00    +0.000 A 
ATOM      5  C   UNL     1      49.779   7.748  11.231  0.00  0.00    +0.000 A 
ATOM      6  C   UNL     1      51.114   7.507  10.874  0.00  0.00    +0.000 A 
ATOM      7  C   UNL     1      52.150   8.262  11.443  0.00  0.00    +0.000 A 
ATOM      8  C   UNL     1      51.816   9.268  12.347  0.00  0.00    +0.000 A 
ATOM      9  F   UNL     1      52.761  10.029  12.917  0.00  0.00    +0.000 F 
ATOM     10  C   UNL     1      50.490   9.510  12.700  0.00  0.00    +0.000 A 
BRANCH   7  11
ATOM     11  C   UNL     1      53.553   7.946  11.070  0.00  0.00    +0.000 C 
ATOM     12  N   UNL     1      54.110   6.799  11.564  0.00  0.00    +0.000 N 
ATOM     13  O   UNL     1      54.202   8.680  10.337  0.00  0.00    +0.000 OA
ATOM     14  H   UNL     1      53.603   6.158  12.169  0.00  0.00    +0.000 HD
ATOM     15  H   UNL     1      55.057   6.572  11.297  0.00  0.00    +0.000 HD
ENDBRANCH   7  11
ENDBRANCH   2   4
BRANCH   2  16
ATOM     16  C   UNL     1      47.006   7.929  12.003  0.00  0.00    +0.000 C 
ATOM     17  C   UNL     1      45.844   7.493  12.523  0.00  0.00    +0.000 C 
BRANCH  17  18
ATOM     18  C   UNL     1      45.018   6.474  11.862  0.00  0.00    +0.000 A 
ATOM     19  C   UNL     1      45.566   5.668  10.868  0.00  0.00    +0.000 A 
ATOM     20  C   UNL     1      44.780   4.679  10.257  0.00  0.00    +0.000 A 
ATOM     21  C   UNL     1      43.447   4.576  10.679  0.00  0.00    +0.000 A 
ATOM     22  C   UNL     1      42.975   5.432  11.661  0.00  0.00    +0.000 A 
ATOM     23  N   UNL     1      43.731   6.367  12.263  0.00  0.00    +0.000 NA
BRANCH  20  24
ATOM     24  C   UNL     1      45.335   3.782   9.215  0.00  0.00    +0.000 A 
ATOM     25  C   UNL     1      45.352   2.383   9.383  0.00  0.00    +0.000 A 
ATOM     26  C   UNL     1      45.875   1.530   8.403  0.00  0.00    +0.000 A 
ATOM     27  C   UNL     1      46.382   2.061   7.224  0.00  0.00    +0.000 A 
ATOM     28  C   UNL     1      46.372   3.435   7.039  0.00  0.00    +0.000 A 
ATOM     29  F   UNL     1      46.856   3.951   5.902  0.00  0.00    +0.000 F 
ATOM     30  C   UNL     1      45.865   4.290   8.016  0.00  0.00    +0.000 A 
ENDBRANCH  20  24
ENDBRANCH  17  18
ENDBRANCH   2  16
TORSDOF 5
ENDMDL
MODEL 8
REMARK VINA RESULT:    -7.337      3.343      4.950
REMARK INTER + INTRA:         -10.318
REMARK INTER:                  -9.377
REMARK INTRA:                  -0.941
REMARK UNBOUND:                -0.837
REMARK  Name = 
REMARK  7 active torsions:
REMARK  status: ('A' for Active; 'I' for Inactive)
REMARK    1  A    between atoms: C_1  and  C_2
REMARK    2  A    between atoms: C_2  and  C_3
REMARK    3  A    between atoms: C_2  and  C_4
REMARK    4  A    between atoms: C_2  and  C_19
REMARK    5  A    between atoms: C_5  and  C_6
REMARK    6  A    between atoms: C_8  and  C_9
REMARK    7  A    between atoms: C_22  and  C_23
REMARK                            x       y       z     vdW  Elec       q    Type
REMARK                         _______ _______ _______ _____ _____    ______ ____
ROOT
ATOM      1  C   UNL     1      47.056   8.588  13.340  0.00  0.00    +0.000 C 
ATOM      2  C   UNL     1      47.707   7.218  13.038  0.00  0.00    +0.000 C 
ATOM      3  C   UNL     1      48.798   7.462  11.967  0.00  0.00    +0.000 C 
ENDROOT
BRANCH   2   4
ATOM      4  C   UNL     1      46.716   6.177  12.482  0.00  0.00    +0.000 A 
ATOM      5  C   UNL     1      46.197   5.165  13.315  0.00  0.00    +0.000 A 
ATOM      6  C   UNL     1      45.344   4.171  12.814  0.00  0.00    +0.000 A 
ATOM      7  C   UNL     1      44.984   4.160  11.458  0.00  0.00    +0.000 A 
ATOM      8  C   UNL     1      45.473   5.173  10.636  0.00  0.00    +0.000 A 
ATOM      9  F   UNL     1      45.156   5.221   9.334  0.00  0.00    +0.000 F 
ATOM     10  C   UNL     1      46.318   6.163  11.134  0.00  0.00    +0.000 A 
BRANCH   7  11
ATOM     11  C   UNL     1      44.113   3.065  10.959  0.00  0.00    +0.000 C 
ATOM     12  N   UNL     1      44.610   2.235   9.992  0.00  0.00    +0.000 N 
ATOM     13  O   UNL     1      42.983   2.895  11.396  0.00  0.00    +0.000 OA
ATOM     14  H   UNL     1      45.545   2.336   9.608  0.00  0.00    +0.000 HD
ATOM     15  H   UNL     1      44.027   1.479   9.664  0.00  0.00    +0.000 HD
ENDBRANCH   7  11
ENDBRANCH   2   4
BRANCH   2  16
ATOM     16  C   UNL     1      48.393   6.792  14.330  0.00  0.00    +0.000 C 
ATOM     17  C   UNL     1      48.527   7.501  15.466  0.00  0.00    +0.000 C 
BRANCH  17  18
ATOM     18  C   UNL     1      49.248   6.983  16.637  0.00  0.00    +0.000 A 
ATOM     19  C   UNL     1      49.800   5.706  16.609  0.00  0.00    +0.000 A 
ATOM     20  C   UNL     1      50.510   5.225  17.721  0.00  0.00    +0.000 A 
ATOM     21  C   UNL     1      50.600   6.075  18.832  0.00  0.00    +0.000 A 
ATOM     22  C   UNL     1      50.002   7.324  18.785  0.00  0.00    +0.000 A 
ATOM     23  N   UNL     1      49.340   7.796  17.714  0.00  0.00    +0.000 NA
BRANCH  20  24
ATOM     24  C   UNL     1      51.137   3.883  17.718  0.00  0.00    +0.000 A 
ATOM     25  C   UNL     1      50.415   2.736  17.334  0.00  0.00    +0.000 A 
ATOM     26  C   UNL     1      51.002   1.464  17.329  0.00  0.00    +0.000 A 
ATOM     27  C   UNL     1      52.333   1.315  17.697  0.00  0.00    +0.000 A 
ATOM     28  C   UNL     1      53.060   2.432  18.077  0.00  0.00    +0.000 A 
ATOM     29  F   UNL     1      54.345   2.294  18.429  0.00  0.00    +0.000 F 
ATOM     30  C   UNL     1      52.480   3.698  18.096  0.00  0.00    +0.000 A 
ENDBRANCH  20  24
ENDBRANCH  17  18
ENDBRANCH   2  16
TORSDOF 5
ENDMDL
MODEL 9
REMARK VINA RESULT:    -7.102      3.612      8.473
REMARK INTER + INTRA:         -10.015
REMARK INTER:                  -9.165
REMARK INTRA:                  -0.850
REMARK UNBOUND:                -0.837
REMARK  Name = 
REMARK  7 active torsions:
REMARK  status: ('A' for Active; 'I' for Inactive)
REMARK    1  A    between atoms: C_1  and  C_2
REMARK    2  A    between atoms: C_2  and  C_3
REMARK    3  A    between atoms: C_2  and  C_4
REMARK    4  A    between atoms: C_2  and  C_19
REMARK    5  A    between atoms: C_5  and  C_6
REMARK    6  A    between atoms: C_8  and  C_9
REMARK    7  A    between atoms: C_22  and  C_23
REMARK                            x       y       z     vdW  Elec       q    Type
REMARK                         _______ _______ _______ _____ _____    ______ ____
ROOT
ATOM      1  C   UNL     1      50.648   7.683  17.119  0.00  0.00    +0.000 C 
ATOM      2  C   UNL     1      49.590   6.568  17.288  0.00  0.00    +0.000 C 
ATOM      3  C   UNL     1      48.809   6.879  18.588  0.00  0.00    +0.000 C 
ENDROOT
BRANCH   2   4
ATOM      4  C   UNL     1      50.199   5.158  17.422  0.00  0.00    +0.000 A 
ATOM      5  C   UNL     1      51.532   4.990  17.846  0.00  0.00    +0.000 A 
ATOM      6  C   UNL     1      52.124   3.720  17.913  0.00  0.00    +0.000 A 
ATOM      7  C   UNL     1      51.395   2.576  17.556  0.00  0.00    +0.000 A 
ATOM      8  C   UNL     1      50.068   2.734  17.162  0.00  0.00    +0.000 A 
ATOM      9  F   UNL     1      49.318   1.677  16.817  0.00  0.00    +0.000 F 
ATOM     10  C   UNL     1      49.479   3.995  17.097  0.00  0.00    +0.000 A 
BRANCH   7  11
ATOM     11  C   UNL     1      52.072   1.255  17.600  0.00  0.00    +0.000 C 
ATOM     12  N   UNL     1      51.415   0.212  18.192  0.00  0.00    +0.000 N 
ATOM     13  O   UNL     1      53.185   1.089  17.118  0.00  0.00    +0.000 OA
ATOM     14  H   UNL     1      50.488   0.305  18.597  0.00  0.00    +0.000 HD
ATOM     15  H   UNL     1      51.866  -0.692  18.207  0.00  0.00    +0.000 HD
ENDBRANCH   7  11
ENDBRANCH   2   4
BRANCH   2  16
ATOM     16  C   UNL     1      48.635   6.720  16.110  0.00  0.00    +0.000 C 
ATOM     17  C   UNL     1      48.944   6.971  14.825  0.00  0.00    +0.000 C 
BRANCH  17  18
ATOM     18  C   UNL     1      47.919   7.131  13.785  0.00  0.00    +0.000 A 
ATOM     19  C   UNL     1      47.122   6.051  13.418  0.00  0.00    +0.000 A 
ATOM     20  C   UNL     1      46.127   6.215  12.441  0.00  0.00    +0.000 A 
ATOM     21  C   UNL     1      46.010   7.485  11.862  0.00  0.00    +0.000 A 
ATOM     22  C   UNL     1      46.858   8.501  12.270  0.00  0.00    +0.000 A 
ATOM     23  N   UNL     1      47.798   8.354  13.220  0.00  0.00    +0.000 NA
BRANCH  20  24
ATOM     24  C   UNL     1      45.239   5.096  12.044  0.00  0.00    +0.000 A 
ATOM     25  C   UNL     1      44.524   4.351  13.002  0.00  0.00    +0.000 A 
ATOM     26  C   UNL     1      43.684   3.292  12.635  0.00  0.00    +0.000 A 
ATOM     27  C   UNL     1      43.531   2.965  11.293  0.00  0.00    +0.000 A 
ATOM     28  C   UNL     1      44.225   3.688  10.336  0.00  0.00    +0.000 A 
ATOM     29  F   UNL     1      44.078   3.378   9.041  0.00  0.00    +0.000 F 
ATOM     30  C   UNL     1      45.072   4.734  10.696  0.00  0.00    +0.000 A 
ENDBRANCH  20  24
ENDBRANCH  17  18
ENDBRANCH   2  16
TORSDOF 5
ENDMDL
