MODEL 1
REMARK VINA RESULT:    -7.741      0.000      0.000
REMARK INTER + INTRA:         -10.024
REMARK INTER:                  -9.551
REMARK INTRA:                  -0.474
REMARK UNBOUND:                -0.474
REMARK  Name = 
REMARK  4 active torsions:
REMARK  status: ('A' for Active; 'I' for Inactive)
REMARK    1  A    between atoms: C_2  and  C_4
REMARK    2  A    between atoms: C_7  and  O_8
REMARK    3  A    between atoms: O_8  and  C_9
REMARK    4  A    between atoms: C_9  and  C_10
REMARK                            x       y       z     vdW  Elec       q    Type
REMARK                         _______ _______ _______ _____ _____    ______ ____
ROOT
ATOM      1  C   UNL     1      46.350   4.750  13.255  0.00  0.00    +0.000 A 
ATOM      2  C   UNL     1      46.199   5.701  12.254  0.00  0.00    +0.000 A 
ATOM      3  C   UNL     1      45.435   5.365  11.135  0.00  0.00    +0.000 A 
ATOM      4  C   UNL     1      44.863   4.098  11.050  0.00  0.00    +0.000 A 
ATOM      5  C   UNL     1      45.039   3.232  12.126  0.00  0.00    +0.000 A 
ATOM      6  N   UNL     1      45.779   3.513  13.222  0.00  0.00    +0.000 NA
ENDROOT
BRANCH   1   8
ATOM      7  N   UNL     1      46.816   4.381  15.599  0.00  0.00    +0.000 N 
ATOM      8  C   UNL     1      47.183   5.046  14.459  0.00  0.00    +0.000 C 
ATOM      9  O   UNL     1      48.134   5.820  14.437  0.00  0.00    +0.000 OA
ATOM     10  H   UNL     1      47.336   4.520  16.452  0.00  0.00    +0.000 HD
ATOM     11  H   UNL     1      46.045   3.723  15.563  0.00  0.00    +0.000 HD
ENDBRANCH   1   8
BRANCH   4  12
ATOM     12  O   UNL     1      44.181   3.809   9.901  0.00  0.00    +0.000 OA
BRANCH  12  13
ATOM     13  C   UNL     1      44.413   2.489   9.397  0.00  0.00    +0.000 C 
BRANCH  13  14
ATOM     14  C   UNL     1      45.504   2.475   8.359  0.00  0.00    +0.000 A 
ATOM     15  C   UNL     1      46.242   1.296   8.158  0.00  0.00    +0.000 A 
ATOM     16  C   UNL     1      47.242   1.240   7.192  0.00  0.00    +0.000 A 
ATOM     17  C   UNL     1      47.509   2.356   6.405  0.00  0.00    +0.000 A 
ATOM     18  C   UNL     1      46.771   3.527   6.580  0.00  0.00    +0.000 A 
ATOM     19  C   UNL     1      45.769   3.587   7.547  0.00  0.00    +0.000 A 
ENDBRANCH  13  14
ENDBRANCH  12  13
ENDBRANCH   4  12
TORSDOF 4
ENDMDL
MODEL 2
REMARK VINA RESULT:    -7.475      3.042      6.180
REMARK INTER + INTRA:          -9.696
REMARK INTER:                  -9.235
REMARK INTRA:                  -0.461
REMARK UNBOUND:                -0.474
REMARK  Name = 
REMARK  4 active torsions:
REMARK  status: ('A' for Active; 'I' for Inactive)
REMARK    1  A    between atoms: C_2  and  C_4
REMARK    2  A    between atoms: C_7  and  O_8
REMARK    3  A    between atoms: O_8  and  C_9
REMARK    4  A    between atoms: C_9  and  C_10
REMARK                            x       y       z     vdW  Elec       q    Type
REMARK                         _______ _______ _______ _____ _____    ______ ____
ROOT
ATOM      1  C   UNL     1      46.399   2.651   7.480  0.00  0.00    +0.000 A 
ATOM      2  C   UNL     1      45.957   1.685   8.375  0.00  0.00    +0.000 A 
ATOM      3  C   UNL     1      44.981   2.045   9.305  0.00  0.00    +0.000 A 
ATOM      4  C   UNL     1      44.494   3.350   9.319  0.00  0.00    +0.000 A 
ATOM      5  C   UNL     1      44.973   4.232   8.354  0.00  0.00    +0.000 A 
ATOM      6  N   UNL     1      45.923   3.927   7.442  0.00  0.00    +0.000 NA
ENDROOT
BRANCH   1   8
ATOM      7  N   UNL     1      47.406   3.043   5.317  0.00  0.00    +0.000 N 
ATOM      8  C   UNL     1      47.463   2.327   6.483  0.00  0.00    +0.000 C 
ATOM      9  O   UNL     1      48.335   1.490   6.689  0.00  0.00    +0.000 OA
ATOM     10  H   UNL     1      48.096   2.889   4.598  0.00  0.00    +0.000 HD
ATOM     11  H   UNL     1      46.689   3.752   5.204  0.00  0.00    +0.000 HD
ENDBRANCH   1   8
BRANCH   4  12
ATOM     12  O   UNL     1      43.588   3.657  10.296  0.00  0.00    +0.000 OA
BRANCH  12  13
ATOM     13  C   UNL     1      43.684   5.000  10.785  0.00  0.00    +0.000 C 
BRANCH  13  14
ATOM     14  C   UNL     1      44.874   5.176  11.693  0.00  0.00    +0.000 A 
ATOM     15  C   UNL     1      45.793   6.204  11.423  0.00  0.00    +0.000 A 
ATOM     16  C   UNL     1      46.891   6.412  12.253  0.00  0.00    +0.000 A 
ATOM     17  C   UNL     1      47.077   5.603  13.370  0.00  0.00    +0.000 A 
ATOM     18  C   UNL     1      46.162   4.592  13.661  0.00  0.00    +0.000 A 
ATOM     19  C   UNL     1      45.062   4.381  12.831  0.00  0.00    +0.000 A 
ENDBRANCH  13  14
ENDBRANCH  12  13
ENDBRANCH   4  12
TORSDOF 4
ENDMDL
MODEL 3
REMARK VINA RESULT:    -6.565      2.220      2.485
REMARK INTER + INTRA:          -8.574
REMARK INTER:                  -8.099
REMARK INTRA:                  -0.475
REMARK UNBOUND:                -0.474
REMARK  Name = 
REMARK  4 active torsions:
REMARK  status: ('A' for Active; 'I' for Inactive)
REMARK    1  A    between atoms: C_2  and  C_4
REMARK    2  A    between atoms: C_7  and  O_8
REMARK    3  A    between atoms: O_8  and  C_9
REMARK    4  A    between atoms: C_9  and  C_10
REMARK                            x       y       z     vdW  Elec       q    Type
REMARK                         _______ _______ _______ _____ _____    ______ ____
ROOT
ATOM      1  C   UNL     1      45.972   7.216  12.666  0.00  0.00    +0.000 A 
ATOM      2  C   UNL     1      46.598   6.039  13.058  0.00  0.00    +0.000 A 
ATOM      3  C   UNL     1      46.123   4.835  12.536  0.00  0.00    +0.000 A 
ATOM      4  C   UNL     1      45.041   4.846  11.660  0.00  0.00    +0.000 A 
ATOM      5  C   UNL     1      44.509   6.081  11.298  0.00  0.00    +0.000 A 
ATOM      6  N   UNL     1      44.932   7.268  11.787  0.00  0.00    +0.000 NA
ENDROOT
BRANCH   1   8
ATOM      7  N   UNL     1      45.667   9.609  12.837  0.00  0.00    +0.000 N 
ATOM      8  C   UNL     1      46.420   8.530  13.218  0.00  0.00    +0.000 C 
ATOM      9  O   UNL     1      47.385   8.643  13.965  0.00  0.00    +0.000 OA
ATOM     10  H   UNL     1      45.901  10.530  13.175  0.00  0.00    +0.000 HD
ATOM     11  H   UNL     1      44.856   9.463  12.245  0.00  0.00    +0.000 HD
ENDBRANCH   1   8
BRANCH   4  12
ATOM     12  O   UNL     1      44.582   3.629  11.236  0.00  0.00    +0.000 OA
BRANCH  12  13
ATOM     13  C   UNL     1      44.090   3.623   9.891  0.00  0.00    +0.000 C 
BRANCH  13  14
ATOM     14  C   UNL     1      45.145   3.174   8.915  0.00  0.00    +0.000 A 
ATOM     15  C   UNL     1      45.477   1.810   8.847  0.00  0.00    +0.000 A 
ATOM     16  C   UNL     1      46.430   1.355   7.941  0.00  0.00    +0.000 A 
ATOM     17  C   UNL     1      47.056   2.255   7.083  0.00  0.00    +0.000 A 
ATOM     18  C   UNL     1      46.723   3.608   7.127  0.00  0.00    +0.000 A 
ATOM     19  C   UNL     1      45.768   4.067   8.034  0.00  0.00    +0.000 A 
ENDBRANCH  13  14
ENDBRANCH  12  13
ENDBRANCH   4  12
TORSDOF 4
ENDMDL
MODEL 4
REMARK VINA RESULT:    -5.977      1.905      2.823
REMARK INTER + INTRA:          -7.849
REMARK INTER:                  -7.451
REMARK INTRA:                  -0.397
REMARK UNBOUND:                -0.474
REMARK  Name = 
REMARK  4 active torsions:
REMARK  status: ('A' for Active; 'I' for Inactive)
REMARK    1  A    between atoms: C_2  and  C_4
REMARK    2  A    between atoms: C_7  and  O_8
REMARK    3  A    between atoms: O_8  and  C_9
REMARK    4  A    between atoms: C_9  and  C_10
REMARK                            x       y       z     vdW  Elec       q    Type
REMARK                         _______ _______ _______ _____ _____    ______ ____
ROOT
ATOM      1  C   UNL     1      47.538   5.070  15.058  0.00  0.00    +0.000 A 
ATOM      2  C   UNL     1      46.424   4.411  14.553  0.00  0.00    +0.000 A 
ATOM      3  C   UNL     1      45.956   4.782  13.292  0.00  0.00    +0.000 A 
ATOM      4  C   UNL     1      46.601   5.798  12.591  0.00  0.00    +0.000 A 
ATOM      5  C   UNL     1      47.733   6.367  13.167  0.00  0.00    +0.000 A 
ATOM      6  N   UNL     1      48.214   6.045  14.389  0.00  0.00    +0.000 NA
ENDROOT
BRANCH   1   8
ATOM      7  N   UNL     1      47.513   5.449  17.447  0.00  0.00    +0.000 N 
ATOM      8  C   UNL     1      48.063   4.734  16.416  0.00  0.00    +0.000 C 
ATOM      9  O   UNL     1      48.917   3.876  16.605  0.00  0.00    +0.000 OA
ATOM     10  H   UNL     1      47.808   5.273  18.395  0.00  0.00    +0.000 HD
ATOM     11  H   UNL     1      46.783   6.125  17.248  0.00  0.00    +0.000 HD
ENDBRANCH   1   8
BRANCH   4  12
ATOM     12  O   UNL     1      46.054   6.158  11.390  0.00  0.00    +0.000 OA
BRANCH  12  13
ATOM     13  C   UNL     1      44.877   5.424  11.036  0.00  0.00    +0.000 C 
BRANCH  13  14
ATOM     14  C   UNL     1      45.156   4.417   9.951  0.00  0.00    +0.000 A 
ATOM     15  C   UNL     1      44.724   3.091  10.121  0.00  0.00    +0.000 A 
ATOM     16  C   UNL     1      44.943   2.140   9.129  0.00  0.00    +0.000 A 
ATOM     17  C   UNL     1      45.586   2.504   7.949  0.00  0.00    +0.000 A 
ATOM     18  C   UNL     1      46.003   3.821   7.759  0.00  0.00    +0.000 A 
ATOM     19  C   UNL     1      45.785   4.776   8.751  0.00  0.00    +0.000 A 
ENDBRANCH  13  14
ENDBRANCH  12  13
ENDBRANCH   4  12
TORSDOF 4
ENDMDL
MODEL 5
REMARK VINA RESULT:    -5.597      3.105      7.369
REMARK INTER + INTRA:          -7.379
REMARK INTER:                  -7.061
REMARK INTRA:                  -0.319
REMARK UNBOUND:                -0.474
REMARK  Name = 
REMARK  4 active torsions:
REMARK  status: ('A' for Active; 'I' for Inactive)
REMARK    1  A    between atoms: C_2  and  C_4
REMARK    2  A    between atoms: C_7  and  O_8
REMARK    3  A    between atoms: O_8  and  C_9
REMARK    4  A    between atoms: C_9  and  C_10
REMARK                            x       y       z     vdW  Elec       q    Type
REMARK                         _______ _______ _______ _____ _____    ______ ____
ROOT
ATOM      1  C   UNL     1      45.018   4.280  11.965  0.00  0.00    +0.000 A 
ATOM      2  C   UNL     1      45.378   5.596  12.224  0.00  0.00    +0.000 A 
ATOM      3  C   UNL     1      46.308   5.837  13.236  0.00  0.00    +0.000 A 
ATOM      4  C   UNL     1      46.831   4.767  13.958  0.00  0.00    +0.000 A 
ATOM      5  C   UNL     1      46.436   3.482  13.593  0.00  0.00    +0.000 A 
ATOM      6  N   UNL     1      45.532   3.205  12.627  0.00  0.00    +0.000 NA
ENDROOT
BRANCH   1   8
ATOM      7  N   UNL     1      43.572   5.042  10.182  0.00  0.00    +0.000 N 
ATOM      8  C   UNL     1      44.004   3.967  10.912  0.00  0.00    +0.000 C 
ATOM      9  O   UNL     1      43.590   2.832  10.704  0.00  0.00    +0.000 OA
ATOM     10  H   UNL     1      42.895   4.911   9.446  0.00  0.00    +0.000 HD
ATOM     11  H   UNL     1      43.969   5.958  10.366  0.00  0.00    +0.000 HD
ENDBRANCH   1   8
BRANCH   4  12
ATOM     12  O   UNL     1      47.687   5.074  14.979  0.00  0.00    +0.000 OA
BRANCH  12  13
ATOM     13  C   UNL     1      47.504   4.282  16.157  0.00  0.00    +0.000 C 
BRANCH  13  14
ATOM     14  C   UNL     1      48.816   3.765  16.687  0.00  0.00    +0.000 A 
ATOM     15  C   UNL     1      49.741   4.674  17.227  0.00  0.00    +0.000 A 
ATOM     16  C   UNL     1      50.953   4.230  17.747  0.00  0.00    +0.000 A 
ATOM     17  C   UNL     1      51.251   2.870  17.747  0.00  0.00    +0.000 A 
ATOM     18  C   UNL     1      50.333   1.955  17.233  0.00  0.00    +0.000 A 
ATOM     19  C   UNL     1      49.118   2.397  16.710  0.00  0.00    +0.000 A 
ENDBRANCH  13  14
ENDBRANCH  12  13
ENDBRANCH   4  12
TORSDOF 4
ENDMDL
MODEL 6
REMARK VINA RESULT:    -5.225      3.424      6.192
REMARK INTER + INTRA:          -6.921
REMARK INTER:                  -6.605
REMARK INTRA:                  -0.316
REMARK UNBOUND:                -0.474
REMARK  Name = 
REMARK  4 active torsions:
REMARK  status: ('A' for Active; 'I' for Inactive)
REMARK    1  A    between atoms: C_2  and  C_4
REMARK    2  A    between atoms: C_7  and  O_8
REMARK    3  A    between atoms: O_8  and  C_9
REMARK    4  A    between atoms: C_9  and  C_10
REMARK                            x       y       z     vdW  Elec       q    Type
REMARK                         _______ _______ _______ _____ _____    ______ ____
ROOT
ATOM      1  C   UNL     1      44.615   4.350  11.715  0.00  0.00    +0.000 A 
ATOM      2  C   UNL     1      45.605   4.287  12.688  0.00  0.00    +0.000 A 
ATOM      3  C   UNL     1      46.105   5.486  13.198  0.00  0.00    +0.000 A 
ATOM      4  C   UNL     1      45.613   6.696  12.714  0.00  0.00    +0.000 A 
ATOM      5  C   UNL     1      44.592   6.651  11.768  0.00  0.00    +0.000 A 
ATOM      6  N   UNL     1      44.087   5.514  11.241  0.00  0.00    +0.000 NA
ENDROOT
BRANCH   1   8
ATOM      7  N   UNL     1      44.883   2.483  10.201  0.00  0.00    +0.000 N 
ATOM      8  C   UNL     1      44.066   3.098  11.113  0.00  0.00    +0.000 C 
ATOM      9  O   UNL     1      42.970   2.640  11.414  0.00  0.00    +0.000 OA
ATOM     10  H   UNL     1      44.588   1.627   9.757  0.00  0.00    +0.000 HD
ATOM     11  H   UNL     1      45.798   2.879  10.009  0.00  0.00    +0.000 HD
ENDBRANCH   1   8
BRANCH   4  12
ATOM     12  O   UNL     1      46.189   7.834  13.207  0.00  0.00    +0.000 OA
BRANCH  12  13
ATOM     13  C   UNL     1      46.487   8.820  12.212  0.00  0.00    +0.000 C 
BRANCH  13  14
ATOM     14  C   UNL     1      47.966   8.902  11.937  0.00  0.00    +0.000 A 
ATOM     15  C   UNL     1      48.693   7.715  11.752  0.00  0.00    +0.000 A 
ATOM     16  C   UNL     1      50.056   7.753  11.472  0.00  0.00    +0.000 A 
ATOM     17  C   UNL     1      50.707   8.979  11.362  0.00  0.00    +0.000 A 
ATOM     18  C   UNL     1      49.993  10.165  11.524  0.00  0.00    +0.000 A 
ATOM     19  C   UNL     1      48.628  10.130  11.804  0.00  0.00    +0.000 A 
ENDBRANCH  13  14
ENDBRANCH  12  13
ENDBRANCH   4  12
TORSDOF 4
ENDMDL
MODEL 7
REMARK VINA RESULT:    -5.186      2.964      6.317
REMARK INTER + INTRA:          -6.872
REMARK INTER:                  -6.469
REMARK INTRA:                  -0.403
REMARK UNBOUND:                -0.474
REMARK  Name = 
REMARK  4 active torsions:
REMARK  status: ('A' for Active; 'I' for Inactive)
REMARK    1  A    between atoms: C_2  and  C_4
REMARK    2  A    between atoms: C_7  and  O_8
REMARK    3  A    between atoms: O_8  and  C_9
REMARK    4  A    between atoms: C_9  and  C_10
REMARK                            x       y       z     vdW  Elec       q    Type
REMARK                         _______ _______ _______ _____ _____    ______ ____
ROOT
ATOM      1  C   UNL     1      44.895   3.667  10.167  0.00  0.00    +0.000 A 
ATOM      2  C   UNL     1      44.911   3.141  11.453  0.00  0.00    +0.000 A 
ATOM      3  C   UNL     1      45.201   4.002  12.512  0.00  0.00    +0.000 A 
ATOM      4  C   UNL     1      45.474   5.343  12.253  0.00  0.00    +0.000 A 
ATOM      5  C   UNL     1      45.391   5.780  10.933  0.00  0.00    +0.000 A 
ATOM      6  N   UNL     1      45.124   4.979   9.878  0.00  0.00    +0.000 NA
ENDROOT
BRANCH   1   8
ATOM      7  N   UNL     1      44.442   3.437   7.802  0.00  0.00    +0.000 N 
ATOM      8  C   UNL     1      44.621   2.784   8.993  0.00  0.00    +0.000 C 
ATOM      9  O   UNL     1      44.567   1.562   9.078  0.00  0.00    +0.000 OA
ATOM     10  H   UNL     1      44.263   2.909   6.961  0.00  0.00    +0.000 HD
ATOM     11  H   UNL     1      44.531   4.447   7.772  0.00  0.00    +0.000 HD
ENDBRANCH   1   8
BRANCH   4  12
ATOM     12  O   UNL     1      45.814   6.119  13.327  0.00  0.00    +0.000 OA
BRANCH  12  13
ATOM     13  C   UNL     1      47.216   6.144  13.613  0.00  0.00    +0.000 C 
BRANCH  13  14
ATOM     14  C   UNL     1      47.913   7.258  12.876  0.00  0.00    +0.000 A 
ATOM     15  C   UNL     1      47.376   8.555  12.930  0.00  0.00    +0.000 A 
ATOM     16  C   UNL     1      48.006   9.613  12.281  0.00  0.00    +0.000 A 
ATOM     17  C   UNL     1      49.188   9.391  11.580  0.00  0.00    +0.000 A 
ATOM     18  C   UNL     1      49.743   8.113  11.535  0.00  0.00    +0.000 A 
ATOM     19  C   UNL     1      49.114   7.051  12.184  0.00  0.00    +0.000 A 
ENDBRANCH  13  14
ENDBRANCH  12  13
ENDBRANCH   4  12
TORSDOF 4
ENDMDL
MODEL 8
REMARK VINA RESULT:    -5.141      3.580      7.533
REMARK INTER + INTRA:          -6.816
REMARK INTER:                  -6.383
REMARK INTRA:                  -0.433
REMARK UNBOUND:                -0.474
REMARK  Name = 
REMARK  4 active torsions:
REMARK  status: ('A' for Active; 'I' for Inactive)
REMARK    1  A    between atoms: C_2  and  C_4
REMARK    2  A    between atoms: C_7  and  O_8
REMARK    3  A    between atoms: O_8  and  C_9
REMARK    4  A    between atoms: C_9  and  C_10
REMARK                            x       y       z     vdW  Elec       q    Type
REMARK                         _______ _______ _______ _____ _____    ______ ____
ROOT
ATOM      1  C   UNL     1      44.634   4.561  12.114  0.00  0.00    +0.000 A 
ATOM      2  C   UNL     1      45.207   5.730  11.630  0.00  0.00    +0.000 A 
ATOM      3  C   UNL     1      46.465   6.096  12.113  0.00  0.00    +0.000 A 
ATOM      4  C   UNL     1      47.095   5.296  13.062  0.00  0.00    +0.000 A 
ATOM      5  C   UNL     1      46.454   4.122  13.452  0.00  0.00    +0.000 A 
ATOM      6  N   UNL     1      45.234   3.737  13.018  0.00  0.00    +0.000 NA
ENDROOT
BRANCH   1   8
ATOM      7  N   UNL     1      42.303   5.098  11.753  0.00  0.00    +0.000 N 
ATOM      8  C   UNL     1      43.276   4.139  11.654  0.00  0.00    +0.000 C 
ATOM      9  O   UNL     1      43.042   3.021  11.209  0.00  0.00    +0.000 OA
ATOM     10  H   UNL     1      41.362   4.893  11.454  0.00  0.00    +0.000 HD
ATOM     11  H   UNL     1      42.550   6.021  12.094  0.00  0.00    +0.000 HD
ENDBRANCH   1   8
BRANCH   4  12
ATOM     12  O   UNL     1      48.295   5.742  13.543  0.00  0.00    +0.000 OA
BRANCH  12  13
ATOM     13  C   UNL     1      48.409   7.168  13.606  0.00  0.00    +0.000 C 
BRANCH  13  14
ATOM     14  C   UNL     1      48.518   7.653  15.028  0.00  0.00    +0.000 A 
ATOM     15  C   UNL     1      48.198   8.990  15.321  0.00  0.00    +0.000 A 
ATOM     16  C   UNL     1      48.265   9.466  16.627  0.00  0.00    +0.000 A 
ATOM     17  C   UNL     1      48.641   8.611  17.659  0.00  0.00    +0.000 A 
ATOM     18  C   UNL     1      48.942   7.277  17.385  0.00  0.00    +0.000 A 
ATOM     19  C   UNL     1      48.877   6.797  16.078  0.00  0.00    +0.000 A 
ENDBRANCH  13  14
ENDBRANCH  12  13
ENDBRANCH   4  12
TORSDOF 4
ENDMDL
MODEL 9
REMARK VINA RESULT:    -5.087      3.850      5.813
REMARK INTER + INTRA:          -6.750
REMARK INTER:                  -6.492
REMARK INTRA:                  -0.258
REMARK UNBOUND:                -0.474
REMARK  Name = 
REMARK  4 active torsions:
REMARK  status: ('A' for Active; 'I' for Inactive)
REMARK    1  A    between atoms: C_2  and  C_4
REMARK    2  A    between atoms: C_7  and  O_8
REMARK    3  A    between atoms: O_8  and  C_9
REMARK    4  A    between atoms: C_9  and  C_10
REMARK                            x       y       z     vdW  Elec       q    Type
REMARK                         _______ _______ _______ _____ _____    ______ ____
ROOT
ATOM      1  C   UNL     1      49.736   3.841  17.419  0.00  0.00    +0.000 A 
ATOM      2  C   UNL     1      49.021   2.717  17.026  0.00  0.00    +0.000 A 
ATOM      3  C   UNL     1      47.888   2.901  16.232  0.00  0.00    +0.000 A 
ATOM      4  C   UNL     1      47.504   4.190  15.872  0.00  0.00    +0.000 A 
ATOM      5  C   UNL     1      48.311   5.247  16.284  0.00  0.00    +0.000 A 
ATOM      6  N   UNL     1      49.409   5.114  17.060  0.00  0.00    +0.000 NA
ENDROOT
BRANCH   1   8
ATOM      7  N   UNL     1      50.876   4.385  19.482  0.00  0.00    +0.000 N 
ATOM      8  C   UNL     1      50.939   3.704  18.295  0.00  0.00    +0.000 C 
ATOM      9  O   UNL     1      51.912   3.026  17.986  0.00  0.00    +0.000 OA
ATOM     10  H   UNL     1      51.646   4.334  20.132  0.00  0.00    +0.000 HD
ATOM     11  H   UNL     1      50.036   4.905  19.711  0.00  0.00    +0.000 HD
ENDBRANCH   1   8
BRANCH   4  12
ATOM     12  O   UNL     1      46.349   4.307  15.149  0.00  0.00    +0.000 OA
BRANCH  12  13
ATOM     13  C   UNL     1      46.548   4.692  13.784  0.00  0.00    +0.000 C 
BRANCH  13  14
ATOM     14  C   UNL     1      45.283   4.549  12.978  0.00  0.00    +0.000 A 
ATOM     15  C   UNL     1      45.071   3.372  12.241  0.00  0.00    +0.000 A 
ATOM     16  C   UNL     1      43.904   3.196  11.504  0.00  0.00    +0.000 A 
ATOM     17  C   UNL     1      42.928   4.188  11.503  0.00  0.00    +0.000 A 
ATOM     18  C   UNL     1      43.117   5.354  12.245  0.00  0.00    +0.000 A 
ATOM     19  C   UNL     1      44.285   5.533  12.984  0.00  0.00    +0.000 A 
ENDBRANCH  13  14
ENDBRANCH  12  13
ENDBRANCH   4  12
TORSDOF 4
ENDMDL
