MODEL 1
REMARK VINA RESULT:    -8.345      0.000      0.000
REMARK INTER + INTRA:         -11.671
REMARK INTER:                 -10.785
REMARK INTRA:                  -0.886
REMARK UNBOUND:                -0.886
REMARK  Name = 
REMARK  5 active torsions:
REMARK  status: ('A' for Active; 'I' for Inactive)
REMARK    1  A    between atoms: C_2  and  C_18
REMARK    2  A    between atoms: N_3  and  C_4
REMARK    3  A    between atoms: C_7  and  C_8
REMARK    4  A    between atoms: C_8  and  O_9
REMARK    5  A    between atoms: O_9  and  C_10
REMARK                            x       y       z     vdW  Elec       q    Type
REMARK                         _______ _______ _______ _____ _____    ______ ____
ROOT
ATOM      1  O   UNL     1      47.520   3.133  14.633  0.00  0.00    +0.000 OA
ATOM      2  C   UNL     1      47.201   4.252  15.020  0.00  0.00    +0.000 C 
ATOM      3  N   UNL     1      46.347   5.103  14.351  0.00  0.00    +0.000 N 
ATOM      4  H   UNL     1      46.255   6.054  14.701  0.00  0.00    +0.000 HD
ENDROOT
BRANCH   2   5
ATOM      5  C   UNL     1      47.760   4.761  16.280  0.00  0.00    +0.000 A 
ATOM      6  C   UNL     1      47.365   4.189  17.481  0.00  0.00    +0.000 A 
ATOM      7  S   UNL     1      48.173   4.828  18.838  0.00  0.00    +0.000 S 
ATOM      8  C   UNL     1      49.106   5.863  17.862  0.00  0.00    +0.000 A 
ATOM      9  N   UNL     1      50.071   6.656  18.404  0.00  0.00    +0.000 NA
ATOM     10  C   UNL     1      50.735   7.346  17.540  0.00  0.00    +0.000 A 
ATOM     11  N   UNL     1      50.507   7.343  16.188  0.00  0.00    +0.000 N 
ATOM     12  C   UNL     1      49.484   6.630  15.610  0.00  0.00    +0.000 A 
ATOM     13  O   UNL     1      49.193   6.764  14.425  0.00  0.00    +0.000 OA
ATOM     14  C   UNL     1      48.762   5.770  16.526  0.00  0.00    +0.000 A 
ATOM     15  H   UNL     1      51.034   7.945  15.573  0.00  0.00    +0.000 HD
ENDBRANCH   2   5
BRANCH   3  16
ATOM     16  C   UNL     1      45.751   4.867  13.095  0.00  0.00    +0.000 A 
ATOM     17  C   UNL     1      44.819   3.864  12.858  0.00  0.00    +0.000 A 
ATOM     18  C   UNL     1      44.346   3.649  11.568  0.00  0.00    +0.000 A 
ATOM     19  C   UNL     1      44.817   4.451  10.534  0.00  0.00    +0.000 A 
ATOM     20  N   UNL     1      45.686   5.472  10.742  0.00  0.00    +0.000 NA
ATOM     21  C   UNL     1      46.127   5.656  12.010  0.00  0.00    +0.000 A 
BRANCH  19  22
ATOM     22  C   UNL     1      44.365   4.179   9.120  0.00  0.00    +0.000 C 
BRANCH  22  23
ATOM     23  O   UNL     1      44.586   2.801   8.816  0.00  0.00    +0.000 OA
BRANCH  23  24
ATOM     24  C   UNL     1      45.672   2.629   7.988  0.00  0.00    +0.000 A 
ATOM     25  C   UNL     1      46.334   1.410   8.030  0.00  0.00    +0.000 A 
ATOM     26  N   UNL     1      47.413   1.140   7.252  0.00  0.00    +0.000 NA
ATOM     27  C   UNL     1      47.793   2.145   6.430  0.00  0.00    +0.000 A 
ATOM     28  C   UNL     1      47.135   3.362   6.392  0.00  0.00    +0.000 A 
ATOM     29  N   UNL     1      46.065   3.634   7.173  0.00  0.00    +0.000 NA
ENDBRANCH  23  24
ENDBRANCH  22  23
ENDBRANCH  19  22
ENDBRANCH   3  16
TORSDOF 5
ENDMDL
MODEL 2
REMARK VINA RESULT:    -8.080      1.665      2.396
REMARK INTER + INTRA:         -11.328
REMARK INTER:                 -10.520
REMARK INTRA:                  -0.808
REMARK UNBOUND:                -0.886
REMARK  Name = 
REMARK  5 active torsions:
REMARK  status: ('A' for Active; 'I' for Inactive)
REMARK    1  A    between atoms: C_2  and  C_18
REMARK    2  A    between atoms: N_3  and  C_4
REMARK    3  A    between atoms: C_7  and  C_8
REMARK    4  A    between atoms: C_8  and  O_9
REMARK    5  A    between atoms: O_9  and  C_10
REMARK                            x       y       z     vdW  Elec       q    Type
REMARK                         _______ _______ _______ _____ _____    ______ ____
ROOT
ATOM      1  O   UNL     1      48.973   6.421  13.697  0.00  0.00    +0.000 OA
ATOM      2  C   UNL     1      48.366   6.142  14.725  0.00  0.00    +0.000 C 
ATOM      3  N   UNL     1      47.151   5.490  14.769  0.00  0.00    +0.000 N 
ATOM      4  H   UNL     1      46.681   5.426  15.669  0.00  0.00    +0.000 HD
ENDROOT
BRANCH   2   5
ATOM      5  C   UNL     1      48.939   6.525  16.022  0.00  0.00    +0.000 A 
ATOM      6  C   UNL     1      49.199   7.863  16.284  0.00  0.00    +0.000 A 
ATOM      7  S   UNL     1      49.772   8.149  17.863  0.00  0.00    +0.000 S 
ATOM      8  C   UNL     1      49.657   6.499  18.261  0.00  0.00    +0.000 A 
ATOM      9  N   UNL     1      49.941   6.060  19.518  0.00  0.00    +0.000 NA
ATOM     10  C   UNL     1      49.756   4.795  19.691  0.00  0.00    +0.000 A 
ATOM     11  N   UNL     1      49.345   3.920  18.718  0.00  0.00    +0.000 N 
ATOM     12  C   UNL     1      49.138   4.303  17.415  0.00  0.00    +0.000 A 
ATOM     13  O   UNL     1      48.930   3.483  16.527  0.00  0.00    +0.000 OA
ATOM     14  C   UNL     1      49.247   5.730  17.187  0.00  0.00    +0.000 A 
ATOM     15  H   UNL     1      49.268   2.932  18.911  0.00  0.00    +0.000 HD
ENDBRANCH   2   5
BRANCH   3  16
ATOM     16  C   UNL     1      46.377   5.096  13.659  0.00  0.00    +0.000 A 
ATOM     17  C   UNL     1      45.709   5.985  12.827  0.00  0.00    +0.000 A 
ATOM     18  C   UNL     1      44.901   5.502  11.804  0.00  0.00    +0.000 A 
ATOM     19  C   UNL     1      44.779   4.128  11.631  0.00  0.00    +0.000 A 
ATOM     20  N   UNL     1      45.460   3.235  12.393  0.00  0.00    +0.000 NA
ATOM     21  C   UNL     1      46.240   3.737  13.380  0.00  0.00    +0.000 A 
BRANCH  19  22
ATOM     22  C   UNL     1      43.848   3.593  10.570  0.00  0.00    +0.000 C 
BRANCH  22  23
ATOM     23  O   UNL     1      44.174   4.195   9.316  0.00  0.00    +0.000 OA
BRANCH  23  24
ATOM     24  C   UNL     1      45.124   3.470   8.634  0.00  0.00    +0.000 A 
ATOM     25  C   UNL     1      45.239   2.117   8.919  0.00  0.00    +0.000 A 
ATOM     26  N   UNL     1      46.141   1.315   8.300  0.00  0.00    +0.000 NA
ATOM     27  C   UNL     1      46.919   1.931   7.381  0.00  0.00    +0.000 A 
ATOM     28  C   UNL     1      46.807   3.282   7.099  0.00  0.00    +0.000 A 
ATOM     29  N   UNL     1      45.914   4.083   7.722  0.00  0.00    +0.000 NA
ENDBRANCH  23  24
ENDBRANCH  22  23
ENDBRANCH  19  22
ENDBRANCH   3  16
TORSDOF 5
ENDMDL
MODEL 3
REMARK VINA RESULT:    -6.761      3.591      9.235
REMARK INTER + INTRA:          -9.623
REMARK INTER:                  -8.836
REMARK INTRA:                  -0.787
REMARK UNBOUND:                -0.886
REMARK  Name = 
REMARK  5 active torsions:
REMARK  status: ('A' for Active; 'I' for Inactive)
REMARK    1  A    between atoms: C_2  and  C_18
REMARK    2  A    between atoms: N_3  and  C_4
REMARK    3  A    between atoms: C_7  and  C_8
REMARK    4  A    between atoms: C_8  and  O_9
REMARK    5  A    between atoms: O_9  and  C_10
REMARK                            x       y       z     vdW  Elec       q    Type
REMARK                         _______ _______ _______ _____ _____    ______ ____
ROOT
ATOM      1  O   UNL     1      48.563   6.048  13.417  0.00  0.00    +0.000 OA
ATOM      2  C   UNL     1      47.438   5.786  13.828  0.00  0.00    +0.000 C 
ATOM      3  N   UNL     1      47.146   5.356  15.106  0.00  0.00    +0.000 N 
ATOM      4  H   UNL     1      46.195   5.047  15.296  0.00  0.00    +0.000 HD
ENDROOT
BRANCH   2   5
ATOM      5  C   UNL     1      46.294   5.916  12.915  0.00  0.00    +0.000 A 
ATOM      6  C   UNL     1      45.903   7.178  12.488  0.00  0.00    +0.000 A 
ATOM      7  S   UNL     1      44.624   7.149  11.363  0.00  0.00    +0.000 S 
ATOM      8  C   UNL     1      44.575   5.449  11.381  0.00  0.00    +0.000 A 
ATOM      9  N   UNL     1      43.725   4.764  10.566  0.00  0.00    +0.000 NA
ATOM     10  C   UNL     1      43.837   3.481  10.646  0.00  0.00    +0.000 A 
ATOM     11  N   UNL     1      44.694   2.816  11.484  0.00  0.00    +0.000 N 
ATOM     12  C   UNL     1      45.500   3.465  12.387  0.00  0.00    +0.000 A 
ATOM     13  O   UNL     1      46.139   2.854  13.238  0.00  0.00    +0.000 OA
ATOM     14  C   UNL     1      45.478   4.910  12.279  0.00  0.00    +0.000 A 
ATOM     15  H   UNL     1      44.694   1.808  11.529  0.00  0.00    +0.000 HD
ENDBRANCH   2   5
BRANCH   3  16
ATOM     16  C   UNL     1      48.079   5.087  16.127  0.00  0.00    +0.000 A 
ATOM     17  C   UNL     1      48.306   3.821  16.653  0.00  0.00    +0.000 A 
ATOM     18  C   UNL     1      49.186   3.661  17.717  0.00  0.00    +0.000 A 
ATOM     19  C   UNL     1      49.831   4.779  18.234  0.00  0.00    +0.000 A 
ATOM     20  N   UNL     1      49.672   6.019  17.708  0.00  0.00    +0.000 NA
ATOM     21  C   UNL     1      48.808   6.142  16.672  0.00  0.00    +0.000 A 
BRANCH  19  22
ATOM     22  C   UNL     1      50.733   4.626  19.435  0.00  0.00    +0.000 C 
BRANCH  22  23
ATOM     23  O   UNL     1      52.081   4.892  19.043  0.00  0.00    +0.000 OA
BRANCH  23  24
ATOM     24  C   UNL     1      52.826   3.738  18.962  0.00  0.00    +0.000 A 
ATOM     25  C   UNL     1      53.582   3.374  20.068  0.00  0.00    +0.000 A 
ATOM     26  N   UNL     1      54.348   2.254  20.090  0.00  0.00    +0.000 NA
ATOM     27  C   UNL     1      54.316   1.515  18.958  0.00  0.00    +0.000 A 
ATOM     28  C   UNL     1      53.565   1.880  17.854  0.00  0.00    +0.000 A 
ATOM     29  N   UNL     1      52.809   3.001  17.828  0.00  0.00    +0.000 NA
ENDBRANCH  23  24
ENDBRANCH  22  23
ENDBRANCH  19  22
ENDBRANCH   3  16
TORSDOF 5
ENDMDL
MODEL 4
REMARK VINA RESULT:    -6.277      2.443      3.253
REMARK INTER + INTRA:          -8.998
REMARK INTER:                  -8.437
REMARK INTRA:                  -0.561
REMARK UNBOUND:                -0.886
REMARK  Name = 
REMARK  5 active torsions:
REMARK  status: ('A' for Active; 'I' for Inactive)
REMARK    1  A    between atoms: C_2  and  C_18
REMARK    2  A    between atoms: N_3  and  C_4
REMARK    3  A    between atoms: C_7  and  C_8
REMARK    4  A    between atoms: C_8  and  O_9
REMARK    5  A    between atoms: O_9  and  C_10
REMARK                            x       y       z     vdW  Elec       q    Type
REMARK                         _______ _______ _______ _____ _____    ______ ____
ROOT
ATOM      1  O   UNL     1      47.324   5.003  17.634  0.00  0.00    +0.000 OA
ATOM      2  C   UNL     1      48.381   5.366  17.133  0.00  0.00    +0.000 C 
ATOM      3  N   UNL     1      48.556   5.674  15.799  0.00  0.00    +0.000 N 
ATOM      4  H   UNL     1      49.505   5.841  15.472  0.00  0.00    +0.000 HD
ENDROOT
BRANCH   2   5
ATOM      5  C   UNL     1      49.575   5.481  17.981  0.00  0.00    +0.000 A 
ATOM      6  C   UNL     1      49.727   6.596  18.796  0.00  0.00    +0.000 A 
ATOM      7  S   UNL     1      51.113   6.533  19.784  0.00  0.00    +0.000 S 
ATOM      8  C   UNL     1      51.536   4.998  19.184  0.00  0.00    +0.000 A 
ATOM      9  N   UNL     1      52.614   4.326  19.676  0.00  0.00    +0.000 NA
ATOM     10  C   UNL     1      52.781   3.152  19.169  0.00  0.00    +0.000 A 
ATOM     11  N   UNL     1      51.993   2.596  18.194  0.00  0.00    +0.000 N 
ATOM     12  C   UNL     1      50.954   3.275  17.604  0.00  0.00    +0.000 A 
ATOM     13  O   UNL     1      50.364   2.827  16.626  0.00  0.00    +0.000 OA
ATOM     14  C   UNL     1      50.668   4.565  18.198  0.00  0.00    +0.000 A 
ATOM     15  H   UNL     1      52.211   1.690  17.807  0.00  0.00    +0.000 HD
ENDBRANCH   2   5
BRANCH   3  16
ATOM     16  C   UNL     1      47.582   5.566  14.786  0.00  0.00    +0.000 A 
ATOM     17  C   UNL     1      46.775   4.450  14.606  0.00  0.00    +0.000 A 
ATOM     18  C   UNL     1      45.898   4.396  13.528  0.00  0.00    +0.000 A 
ATOM     19  C   UNL     1      45.845   5.470  12.647  0.00  0.00    +0.000 A 
ATOM     20  N   UNL     1      46.581   6.595  12.825  0.00  0.00    +0.000 NA
ATOM     21  C   UNL     1      47.424   6.617  13.885  0.00  0.00    +0.000 A 
BRANCH  19  22
ATOM     22  C   UNL     1      44.950   5.391  11.434  0.00  0.00    +0.000 C 
BRANCH  22  23
ATOM     23  O   UNL     1      44.692   4.019  11.133  0.00  0.00    +0.000 OA
BRANCH  23  24
ATOM     24  C   UNL     1      45.154   3.674   9.883  0.00  0.00    +0.000 A 
ATOM     25  C   UNL     1      45.527   4.698   9.023  0.00  0.00    +0.000 A 
ATOM     26  N   UNL     1      45.997   4.464   7.772  0.00  0.00    +0.000 NA
ATOM     27  C   UNL     1      46.080   3.159   7.426  0.00  0.00    +0.000 A 
ATOM     28  C   UNL     1      45.705   2.138   8.283  0.00  0.00    +0.000 A 
ATOM     29  N   UNL     1      45.228   2.372   9.526  0.00  0.00    +0.000 NA
ENDBRANCH  23  24
ENDBRANCH  22  23
ENDBRANCH  19  22
ENDBRANCH   3  16
TORSDOF 5
ENDMDL
MODEL 5
REMARK VINA RESULT:    -6.245      3.913      8.636
REMARK INTER + INTRA:          -8.956
REMARK INTER:                  -8.449
REMARK INTRA:                  -0.507
REMARK UNBOUND:                -0.886
REMARK  Name = 
REMARK  5 active torsions:
REMARK  status: ('A' for Active; 'I' for Inactive)
REMARK    1  A    between atoms: C_2  and  C_18
REMARK    2  A    between atoms: N_3  and  C_4
REMARK    3  A    between atoms: C_7  and  C_8
REMARK    4  A    between atoms: C_8  and  O_9
REMARK    5  A    between atoms: O_9  and  C_10
REMARK                            x       y       z     vdW  Elec       q    Type
REMARK                         _______ _______ _______ _____ _____    ______ ____
ROOT
ATOM      1  O   UNL     1      47.462   3.282  13.584  0.00  0.00    +0.000 OA
ATOM      2  C   UNL     1      46.638   4.157  13.825  0.00  0.00    +0.000 C 
ATOM      3  N   UNL     1      46.687   5.009  14.908  0.00  0.00    +0.000 N 
ATOM      4  H   UNL     1      45.883   5.610  15.075  0.00  0.00    +0.000 HD
ENDROOT
BRANCH   2   5
ATOM      5  C   UNL     1      45.494   4.331  12.920  0.00  0.00    +0.000 A 
ATOM      6  C   UNL     1      44.762   3.220  12.525  0.00  0.00    +0.000 A 
ATOM      7  S   UNL     1      43.415   3.602  11.554  0.00  0.00    +0.000 S 
ATOM      8  C   UNL     1      43.743   5.268  11.660  0.00  0.00    +0.000 A 
ATOM      9  N   UNL     1      42.911   6.184  11.093  0.00  0.00    +0.000 NA
ATOM     10  C   UNL     1      43.253   7.410  11.301  0.00  0.00    +0.000 A 
ATOM     11  N   UNL     1      44.366   7.809  11.996  0.00  0.00    +0.000 N 
ATOM     12  C   UNL     1      45.282   6.919  12.504  0.00  0.00    +0.000 A 
ATOM     13  O   UNL     1      46.349   7.293  12.979  0.00  0.00    +0.000 OA
ATOM     14  C   UNL     1      44.899   5.528  12.373  0.00  0.00    +0.000 A 
ATOM     15  H   UNL     1      44.600   8.787  12.080  0.00  0.00    +0.000 HD
ENDBRANCH   2   5
BRANCH   3  16
ATOM     16  C   UNL     1      47.641   4.982  15.945  0.00  0.00    +0.000 A 
ATOM     17  C   UNL     1      48.659   5.918  16.084  0.00  0.00    +0.000 A 
ATOM     18  C   UNL     1      49.607   5.766  17.090  0.00  0.00    +0.000 A 
ATOM     19  C   UNL     1      49.514   4.674  17.946  0.00  0.00    +0.000 A 
ATOM     20  N   UNL     1      48.502   3.773  17.870  0.00  0.00    +0.000 NA
ATOM     21  C   UNL     1      47.595   3.950  16.880  0.00  0.00    +0.000 A 
BRANCH  19  22
ATOM     22  C   UNL     1      50.578   4.461  18.995  0.00  0.00    +0.000 C 
BRANCH  22  23
ATOM     23  O   UNL     1      51.857   4.420  18.360  0.00  0.00    +0.000 OA
BRANCH  23  24
ATOM     24  C   UNL     1      52.317   3.130  18.223  0.00  0.00    +0.000 A 
ATOM     25  C   UNL     1      51.536   2.234  17.507  0.00  0.00    +0.000 A 
ATOM     26  N   UNL     1      51.902   0.942  17.312  0.00  0.00    +0.000 NA
ATOM     27  C   UNL     1      53.086   0.592  17.863  0.00  0.00    +0.000 A 
ATOM     28  C   UNL     1      53.863   1.485  18.581  0.00  0.00    +0.000 A 
ATOM     29  N   UNL     1      53.495   2.770  18.782  0.00  0.00    +0.000 NA
ENDBRANCH  23  24
ENDBRANCH  22  23
ENDBRANCH  19  22
ENDBRANCH   3  16
TORSDOF 5
ENDMDL
MODEL 6
REMARK VINA RESULT:    -5.397      3.543      8.909
REMARK INTER + INTRA:          -7.860
REMARK INTER:                  -7.065
REMARK INTRA:                  -0.795
REMARK UNBOUND:                -0.886
REMARK  Name = 
REMARK  5 active torsions:
REMARK  status: ('A' for Active; 'I' for Inactive)
REMARK    1  A    between atoms: C_2  and  C_18
REMARK    2  A    between atoms: N_3  and  C_4
REMARK    3  A    between atoms: C_7  and  C_8
REMARK    4  A    between atoms: C_8  and  O_9
REMARK    5  A    between atoms: O_9  and  C_10
REMARK                            x       y       z     vdW  Elec       q    Type
REMARK                         _______ _______ _______ _____ _____    ______ ____
ROOT
ATOM      1  O   UNL     1      44.931   7.482  11.477  0.00  0.00    +0.000 OA
ATOM      2  C   UNL     1      45.605   6.504  11.779  0.00  0.00    +0.000 C 
ATOM      3  N   UNL     1      46.870   6.558  12.327  0.00  0.00    +0.000 N 
ATOM      4  H   UNL     1      47.384   5.685  12.418  0.00  0.00    +0.000 HD
ENDROOT
BRANCH   2   5
ATOM      5  C   UNL     1      45.063   5.160  11.543  0.00  0.00    +0.000 A 
ATOM      6  C   UNL     1      44.389   4.507  12.567  0.00  0.00    +0.000 A 
ATOM      7  S   UNL     1      43.743   3.000  12.104  0.00  0.00    +0.000 S 
ATOM      8  C   UNL     1      44.308   3.187  10.510  0.00  0.00    +0.000 A 
ATOM      9  N   UNL     1      44.027   2.259   9.554  0.00  0.00    +0.000 NA
ATOM     10  C   UNL     1      44.471   2.558   8.380  0.00  0.00    +0.000 A 
ATOM     11  N   UNL     1      45.196   3.681   8.077  0.00  0.00    +0.000 N 
ATOM     12  C   UNL     1      45.581   4.595   9.027  0.00  0.00    +0.000 A 
ATOM     13  O   UNL     1      46.363   5.505   8.769  0.00  0.00    +0.000 OA
ATOM     14  C   UNL     1      45.034   4.352  10.347  0.00  0.00    +0.000 A 
ATOM     15  H   UNL     1      45.554   3.829   7.145  0.00  0.00    +0.000 HD
ENDBRANCH   2   5
BRANCH   3  16
ATOM     16  C   UNL     1      47.622   7.725  12.572  0.00  0.00    +0.000 A 
ATOM     17  C   UNL     1      48.498   8.287  11.652  0.00  0.00    +0.000 A 
ATOM     18  C   UNL     1      49.262   9.393  12.009  0.00  0.00    +0.000 A 
ATOM     19  C   UNL     1      49.130   9.919  13.289  0.00  0.00    +0.000 A 
ATOM     20  N   UNL     1      48.245   9.425  14.192  0.00  0.00    +0.000 NA
ATOM     21  C   UNL     1      47.515   8.349  13.813  0.00  0.00    +0.000 A 
BRANCH  19  22
ATOM     22  C   UNL     1      50.006  11.073  13.711  0.00  0.00    +0.000 C 
BRANCH  22  23
ATOM     23  O   UNL     1      51.376  10.692  13.578  0.00  0.00    +0.000 OA
BRANCH  23  24
ATOM     24  C   UNL     1      51.785   9.887  14.618  0.00  0.00    +0.000 A 
ATOM     25  C   UNL     1      52.317   8.644  14.307  0.00  0.00    +0.000 A 
ATOM     26  N   UNL     1      52.752   7.779  15.258  0.00  0.00    +0.000 NA
ATOM     27  C   UNL     1      52.631   8.219  16.531  0.00  0.00    +0.000 A 
ATOM     28  C   UNL     1      52.096   9.457  16.841  0.00  0.00    +0.000 A 
ATOM     29  N   UNL     1      51.656  10.316  15.894  0.00  0.00    +0.000 NA
ENDBRANCH  23  24
ENDBRANCH  22  23
ENDBRANCH  19  22
ENDBRANCH   3  16
TORSDOF 5
ENDMDL
