MODEL 1
REMARK VINA RESULT:    -7.108      0.000      0.000
REMARK INTER + INTRA:         -11.678
REMARK INTER:                 -10.847
REMARK INTRA:                  -0.830
REMARK UNBOUND:                -0.830
REMARK  Name = 
REMARK  9 active torsions:
REMARK  status: ('A' for Active; 'I' for Inactive)
REMARK    1  A    between atoms: C_2  and  C_3
REMARK    2  A    between atoms: C_3  and  N_4
REMARK    3  A    between atoms: C_3  and  C_20
REMARK    4  A    between atoms: N_4  and  C_5
REMARK    5  A    between atoms: C_5  and  C_6
REMARK    6  A    between atoms: C_9  and  C_10
REMARK    7  A    between atoms: C_10  and  C_11
REMARK    8  A    between atoms: C_11  and  N_12
REMARK    9  A    between atoms: N_12  and  C_13
REMARK                            x       y       z     vdW  Elec       q    Type
REMARK                         _______ _______ _______ _____ _____    ______ ____
ROOT
ATOM      1  C   UNL     1      47.413   4.319  16.171  0.00  0.00    +0.000 C 
ENDROOT
BRANCH   1   2
ATOM      2  C   UNL     1      47.011   4.783  14.781  0.00  0.00    +0.000 A 
ATOM      3  N   UNL     1      47.712   5.788  14.218  0.00  0.00    +0.000 NA
ATOM      4  C   UNL     1      47.289   6.211  13.012  0.00  0.00    +0.000 A 
ATOM      5  C   UNL     1      46.213   5.670  12.335  0.00  0.00    +0.000 A 
ATOM      6  C   UNL     1      45.582   4.635  12.995  0.00  0.00    +0.000 A 
ATOM      7  N   UNL     1      45.953   4.176  14.207  0.00  0.00    +0.000 NA
BRANCH   5   8
ATOM      8  C   UNL     1      45.741   6.181  11.004  0.00  0.00    +0.000 C 
BRANCH   8   9
ATOM      9  C   UNL     1      45.042   5.097  10.169  0.00  0.00    +0.000 C 
BRANCH   9  10
ATOM     10  N   UNL     1      45.719   4.899   8.881  0.00  0.00    +0.000 NA
ATOM     11  H   UNL     1      46.623   4.463   9.051  0.00  0.00    +0.000 HD
BRANCH  10  12
ATOM     12  C   UNL     1      44.970   4.019   7.997  0.00  0.00    +0.000 C 
ATOM     13  C   UNL     1      45.784   3.206   6.996  0.00  0.00    +0.000 C 
ATOM     14  C   UNL     1      46.433   2.146   7.858  0.00  0.00    +0.000 C 
ATOM     15  C   UNL     1      45.388   1.885   8.930  0.00  0.00    +0.000 C 
ATOM     16  N   UNL     1      44.417   2.988   8.859  0.00  0.00    +0.000 NA
ATOM     17  H   UNL     1      44.262   3.365   9.787  0.00  0.00    +0.000 HD
ENDBRANCH  10  12
ENDBRANCH   9  10
ENDBRANCH   8   9
ENDBRANCH   5   8
ENDBRANCH   1   2
BRANCH   1  18
ATOM     18  N   UNL     1      48.874   4.149  16.346  0.00  0.00    +0.000 NA
ATOM     19  H   UNL     1      49.281   5.066  16.564  0.00  0.00    +0.000 HD
BRANCH  18  20
ATOM     20  C   UNL     1      49.145   3.227  17.454  0.00  0.00    +0.000 C 
BRANCH  20  21
ATOM     21  C   UNL     1      50.575   2.734  17.410  0.00  0.00    +0.000 A 
ATOM     22  C   UNL     1      50.932   1.409  17.204  0.00  0.00    +0.000 A 
ATOM     23  S   UNL     1      52.513   1.064  17.764  0.00  0.00    +0.000 S 
ATOM     24  C   UNL     1      52.801   2.702  18.126  0.00  0.00    +0.000 A 
ATOM     25  N   UNL     1      53.933   3.118  18.755  0.00  0.00    +0.000 NA
ATOM     26  C   UNL     1      54.041   4.403  18.852  0.00  0.00    +0.000 A 
ATOM     27  N   UNL     1      53.146   5.309  18.334  0.00  0.00    +0.000 N 
ATOM     28  C   UNL     1      51.971   4.933  17.718  0.00  0.00    +0.000 A 
ATOM     29  O   UNL     1      51.201   5.740  17.211  0.00  0.00    +0.000 OA
ATOM     30  C   UNL     1      51.763   3.501  17.688  0.00  0.00    +0.000 A 
ATOM     31  H   UNL     1      53.339   6.299  18.365  0.00  0.00    +0.000 HD
ENDBRANCH  20  21
BRANCH  20  33
ATOM     32  N   UNL     1      48.653   4.206  19.870  0.00  0.00    +0.000 NA
ATOM     33  C   UNL     1      48.870   3.773  18.819  0.00  0.00    +0.000 C 
ENDBRANCH  20  33
ENDBRANCH  18  20
ENDBRANCH   1  18
TORSDOF 9
ENDMDL
MODEL 2
REMARK VINA RESULT:    -7.055      1.876      2.533
REMARK INTER + INTRA:         -11.597
REMARK INTER:                 -10.855
REMARK INTRA:                  -0.742
REMARK UNBOUND:                -0.830
REMARK  Name = 
REMARK  9 active torsions:
REMARK  status: ('A' for Active; 'I' for Inactive)
REMARK    1  A    between atoms: C_2  and  C_3
REMARK    2  A    between atoms: C_3  and  N_4
REMARK    3  A    between atoms: C_3  and  C_20
REMARK    4  A    between atoms: N_4  and  C_5
REMARK    5  A    between atoms: C_5  and  C_6
REMARK    6  A    between atoms: C_9  and  C_10
REMARK    7  A    between atoms: C_10  and  C_11
REMARK    8  A    between atoms: C_11  and  N_12
REMARK    9  A    between atoms: N_12  and  C_13
REMARK                            x       y       z     vdW  Elec       q    Type
REMARK                         _______ _______ _______ _____ _____    ______ ____
ROOT
ATOM      1  C   UNL     1      48.366   5.999  14.785  0.00  0.00    +0.000 C 
ENDROOT
BRANCH   1   2
ATOM      2  C   UNL     1      47.203   5.749  13.841  0.00  0.00    +0.000 A 
ATOM      3  N   UNL     1      46.275   4.841  14.201  0.00  0.00    +0.000 NA
ATOM      4  C   UNL     1      45.292   4.604  13.311  0.00  0.00    +0.000 A 
ATOM      5  C   UNL     1      45.182   5.240  12.090  0.00  0.00    +0.000 A 
ATOM      6  C   UNL     1      46.175   6.165  11.835  0.00  0.00    +0.000 A 
ATOM      7  N   UNL     1      47.189   6.436  12.681  0.00  0.00    +0.000 NA
BRANCH   5   8
ATOM      8  C   UNL     1      44.094   4.936  11.102  0.00  0.00    +0.000 C 
BRANCH   8   9
ATOM      9  C   UNL     1      43.845   3.428  10.942  0.00  0.00    +0.000 C 
BRANCH   9  10
ATOM     10  N   UNL     1      44.948   2.779  10.223  0.00  0.00    +0.000 NA
ATOM     11  H   UNL     1      45.269   1.982  10.768  0.00  0.00    +0.000 HD
BRANCH  10  12
ATOM     12  C   UNL     1      44.537   2.280   8.920  0.00  0.00    +0.000 C 
ATOM     13  C   UNL     1      44.889   3.148   7.716  0.00  0.00    +0.000 C 
ATOM     14  C   UNL     1      46.381   2.943   7.567  0.00  0.00    +0.000 C 
ATOM     15  C   UNL     1      46.578   1.502   8.008  0.00  0.00    +0.000 C 
ATOM     16  N   UNL     1      45.342   1.092   8.693  0.00  0.00    +0.000 NA
ATOM     17  H   UNL     1      45.573   0.660   9.581  0.00  0.00    +0.000 HD
ENDBRANCH  10  12
ENDBRANCH   9  10
ENDBRANCH   8   9
ENDBRANCH   5   8
ENDBRANCH   1   2
BRANCH   1  18
ATOM     18  N   UNL     1      48.025   5.822  16.216  0.00  0.00    +0.000 NA
ATOM     19  H   UNL     1      47.007   5.910  16.317  0.00  0.00    +0.000 HD
BRANCH  18  20
ATOM     20  C   UNL     1      48.441   4.492  16.673  0.00  0.00    +0.000 C 
BRANCH  20  21
ATOM     21  C   UNL     1      49.484   4.597  17.766  0.00  0.00    +0.000 A 
ATOM     22  C   UNL     1      49.534   5.630  18.692  0.00  0.00    +0.000 A 
ATOM     23  S   UNL     1      51.085   5.796  19.399  0.00  0.00    +0.000 S 
ATOM     24  C   UNL     1      51.653   4.397  18.615  0.00  0.00    +0.000 A 
ATOM     25  N   UNL     1      52.954   4.007  18.679  0.00  0.00    +0.000 NA
ATOM     26  C   UNL     1      53.191   2.864  18.121  0.00  0.00    +0.000 A 
ATOM     27  N   UNL     1      52.238   2.056  17.548  0.00  0.00    +0.000 N 
ATOM     28  C   UNL     1      50.914   2.424  17.432  0.00  0.00    +0.000 A 
ATOM     29  O   UNL     1      50.058   1.681  16.969  0.00  0.00    +0.000 OA
ATOM     30  C   UNL     1      50.632   3.747  17.950  0.00  0.00    +0.000 A 
ATOM     31  H   UNL     1      52.478   1.135  17.213  0.00  0.00    +0.000 HD
ENDBRANCH  20  21
BRANCH  20  33
ATOM     32  N   UNL     1      46.487   2.916  17.530  0.00  0.00    +0.000 NA
ATOM     33  C   UNL     1      47.335   3.607  17.153  0.00  0.00    +0.000 C 
ENDBRANCH  20  33
ENDBRANCH  18  20
ENDBRANCH   1  18
TORSDOF 9
ENDMDL
MODEL 3
REMARK VINA RESULT:    -7.045      2.116      2.885
REMARK INTER + INTRA:         -11.582
REMARK INTER:                 -10.650
REMARK INTRA:                  -0.932
REMARK UNBOUND:                -0.830
REMARK  Name = 
REMARK  9 active torsions:
REMARK  status: ('A' for Active; 'I' for Inactive)
REMARK    1  A    between atoms: C_2  and  C_3
REMARK    2  A    between atoms: C_3  and  N_4
REMARK    3  A    between atoms: C_3  and  C_20
REMARK    4  A    between atoms: N_4  and  C_5
REMARK    5  A    between atoms: C_5  and  C_6
REMARK    6  A    between atoms: C_9  and  C_10
REMARK    7  A    between atoms: C_10  and  C_11
REMARK    8  A    between atoms: C_11  and  N_12
REMARK    9  A    between atoms: N_12  and  C_13
REMARK                            x       y       z     vdW  Elec       q    Type
REMARK                         _______ _______ _______ _____ _____    ______ ____
ROOT
ATOM      1  C   UNL     1      48.339   6.663  14.577  0.00  0.00    +0.000 C 
ENDROOT
BRANCH   1   2
ATOM      2  C   UNL     1      47.258   5.762  14.004  0.00  0.00    +0.000 A 
ATOM      3  N   UNL     1      47.443   4.429  14.065  0.00  0.00    +0.000 NA
ATOM      4  C   UNL     1      46.492   3.666  13.493  0.00  0.00    +0.000 A 
ATOM      5  C   UNL     1      45.360   4.168  12.882  0.00  0.00    +0.000 A 
ATOM      6  C   UNL     1      45.263   5.545  12.897  0.00  0.00    +0.000 A 
ATOM      7  N   UNL     1      46.187   6.359  13.442  0.00  0.00    +0.000 NA
BRANCH   5   8
ATOM      8  C   UNL     1      44.328   3.296  12.225  0.00  0.00    +0.000 C 
BRANCH   8   9
ATOM      9  C   UNL     1      44.339   3.420  10.693  0.00  0.00    +0.000 C 
BRANCH   9  10
ATOM     10  N   UNL     1      45.302   2.489  10.091  0.00  0.00    +0.000 NA
ATOM     11  H   UNL     1      45.353   1.653  10.669  0.00  0.00    +0.000 HD
BRANCH  10  12
ATOM     12  C   UNL     1      44.902   2.072   8.756  0.00  0.00    +0.000 C 
ATOM     13  C   UNL     1      44.878   3.156   7.683  0.00  0.00    +0.000 C 
ATOM     14  C   UNL     1      46.345   3.399   7.405  0.00  0.00    +0.000 C 
ATOM     15  C   UNL     1      46.967   2.027   7.600  0.00  0.00    +0.000 C 
ATOM     16  N   UNL     1      45.967   1.199   8.292  0.00  0.00    +0.000 NA
ATOM     17  H   UNL     1      46.399   0.736   9.084  0.00  0.00    +0.000 HD
ENDBRANCH  10  12
ENDBRANCH   9  10
ENDBRANCH   8   9
ENDBRANCH   5   8
ENDBRANCH   1   2
BRANCH   1  18
ATOM     18  N   UNL     1      49.337   5.948  15.406  0.00  0.00    +0.000 NA
ATOM     19  H   UNL     1      50.240   6.427  15.307  0.00  0.00    +0.000 HD
BRANCH  18  20
ATOM     20  C   UNL     1      48.932   5.972  16.815  0.00  0.00    +0.000 C 
BRANCH  20  21
ATOM     21  C   UNL     1      49.944   5.251  17.681  0.00  0.00    +0.000 A 
ATOM     22  C   UNL     1      50.801   5.889  18.566  0.00  0.00    +0.000 A 
ATOM     23  S   UNL     1      52.168   4.933  18.953  0.00  0.00    +0.000 S 
ATOM     24  C   UNL     1      51.552   3.603  18.089  0.00  0.00    +0.000 A 
ATOM     25  N   UNL     1      52.271   2.463  17.902  0.00  0.00    +0.000 NA
ATOM     26  C   UNL     1      51.612   1.514  17.322  0.00  0.00    +0.000 A 
ATOM     27  N   UNL     1      50.288   1.583  16.957  0.00  0.00    +0.000 N 
ATOM     28  C   UNL     1      49.531   2.727  17.098  0.00  0.00    +0.000 A 
ATOM     29  O   UNL     1      48.339   2.770  16.821  0.00  0.00    +0.000 OA
ATOM     30  C   UNL     1      50.267   3.847  17.645  0.00  0.00    +0.000 A 
ATOM     31  H   UNL     1      49.812   0.772  16.591  0.00  0.00    +0.000 HD
ENDBRANCH  20  21
BRANCH  20  33
ATOM     32  N   UNL     1      48.504   8.382  17.836  0.00  0.00    +0.000 NA
ATOM     33  C   UNL     1      48.697   7.333  17.389  0.00  0.00    +0.000 C 
ENDBRANCH  20  33
ENDBRANCH  18  20
ENDBRANCH   1  18
TORSDOF 9
ENDMDL
MODEL 4
REMARK VINA RESULT:    -6.983      2.214      3.415
REMARK INTER + INTRA:         -11.488
REMARK INTER:                 -10.280
REMARK INTRA:                  -1.208
REMARK UNBOUND:                -0.830
REMARK  Name = 
REMARK  9 active torsions:
REMARK  status: ('A' for Active; 'I' for Inactive)
REMARK    1  A    between atoms: C_2  and  C_3
REMARK    2  A    between atoms: C_3  and  N_4
REMARK    3  A    between atoms: C_3  and  C_20
REMARK    4  A    between atoms: N_4  and  C_5
REMARK    5  A    between atoms: C_5  and  C_6
REMARK    6  A    between atoms: C_9  and  C_10
REMARK    7  A    between atoms: C_10  and  C_11
REMARK    8  A    between atoms: C_11  and  N_12
REMARK    9  A    between atoms: N_12  and  C_13
REMARK                            x       y       z     vdW  Elec       q    Type
REMARK                         _______ _______ _______ _____ _____    ______ ____
ROOT
ATOM      1  C   UNL     1      49.130   7.071  15.953  0.00  0.00    +0.000 C 
ENDROOT
BRANCH   1   2
ATOM      2  C   UNL     1      48.270   6.765  14.739  0.00  0.00    +0.000 A 
ATOM      3  N   UNL     1      47.894   5.487  14.532  0.00  0.00    +0.000 NA
ATOM      4  C   UNL     1      47.183   5.246  13.414  0.00  0.00    +0.000 A 
ATOM      5  C   UNL     1      46.815   6.218  12.505  0.00  0.00    +0.000 A 
ATOM      6  C   UNL     1      47.235   7.493  12.828  0.00  0.00    +0.000 A 
ATOM      7  N   UNL     1      47.958   7.793  13.925  0.00  0.00    +0.000 NA
BRANCH   5   8
ATOM      8  C   UNL     1      46.049   5.918  11.250  0.00  0.00    +0.000 C 
BRANCH   8   9
ATOM      9  C   UNL     1      44.890   4.936  11.484  0.00  0.00    +0.000 C 
BRANCH   9  10
ATOM     10  N   UNL     1      45.192   3.613  10.923  0.00  0.00    +0.000 NA
ATOM     11  H   UNL     1      45.054   2.912  11.647  0.00  0.00    +0.000 HD
BRANCH  10  12
ATOM     12  C   UNL     1      44.316   3.274   9.812  0.00  0.00    +0.000 C 
ATOM     13  C   UNL     1      44.629   3.932   8.473  0.00  0.00    +0.000 C 
ATOM     14  C   UNL     1      45.865   3.194   8.006  0.00  0.00    +0.000 C 
ATOM     15  C   UNL     1      45.654   1.789   8.545  0.00  0.00    +0.000 C 
ATOM     16  N   UNL     1      44.571   1.870   9.537  0.00  0.00    +0.000 NA
ATOM     17  H   UNL     1      44.856   1.401  10.390  0.00  0.00    +0.000 HD
ENDBRANCH  10  12
ENDBRANCH   9  10
ENDBRANCH   8   9
ENDBRANCH   5   8
ENDBRANCH   1   2
BRANCH   1  18
ATOM     18  N   UNL     1      48.366   7.173  17.219  0.00  0.00    +0.000 NA
ATOM     19  H   UNL     1      47.600   6.490  17.188  0.00  0.00    +0.000 HD
BRANCH  18  20
ATOM     20  C   UNL     1      49.236   6.867  18.359  0.00  0.00    +0.000 C 
BRANCH  20  21
ATOM     21  C   UNL     1      49.733   5.438  18.293  0.00  0.00    +0.000 A 
ATOM     22  C   UNL     1      51.030   5.054  18.603  0.00  0.00    +0.000 A 
ATOM     23  S   UNL     1      51.447   3.546  17.906  0.00  0.00    +0.000 S 
ATOM     24  C   UNL     1      49.862   3.310  17.333  0.00  0.00    +0.000 A 
ATOM     25  N   UNL     1      49.528   2.260  16.535  0.00  0.00    +0.000 NA
ATOM     26  C   UNL     1      48.262   2.170  16.284  0.00  0.00    +0.000 A 
ATOM     27  N   UNL     1      47.297   3.005  16.797  0.00  0.00    +0.000 N 
ATOM     28  C   UNL     1      47.592   4.099  17.582  0.00  0.00    +0.000 A 
ATOM     29  O   UNL     1      46.728   4.809  18.081  0.00  0.00    +0.000 OA
ATOM     30  C   UNL     1      49.011   4.294  17.796  0.00  0.00    +0.000 A 
ATOM     31  H   UNL     1      46.318   2.822  16.634  0.00  0.00    +0.000 HD
ENDBRANCH  20  21
BRANCH  20  33
ATOM     32  N   UNL     1      51.332   8.467  18.649  0.00  0.00    +0.000 NA
ATOM     33  C   UNL     1      50.413   7.774  18.524  0.00  0.00    +0.000 C 
ENDBRANCH  20  33
ENDBRANCH  18  20
ENDBRANCH   1  18
TORSDOF 9
ENDMDL
MODEL 5
REMARK VINA RESULT:    -6.922      3.093      3.858
REMARK INTER + INTRA:         -11.394
REMARK INTER:                 -10.263
REMARK INTRA:                  -1.131
REMARK UNBOUND:                -0.830
REMARK  Name = 
REMARK  9 active torsions:
REMARK  status: ('A' for Active; 'I' for Inactive)
REMARK    1  A    between atoms: C_2  and  C_3
REMARK    2  A    between atoms: C_3  and  N_4
REMARK    3  A    between atoms: C_3  and  C_20
REMARK    4  A    between atoms: N_4  and  C_5
REMARK    5  A    between atoms: C_5  and  C_6
REMARK    6  A    between atoms: C_9  and  C_10
REMARK    7  A    between atoms: C_10  and  C_11
REMARK    8  A    between atoms: C_11  and  N_12
REMARK    9  A    between atoms: N_12  and  C_13
REMARK                            x       y       z     vdW  Elec       q    Type
REMARK                         _______ _______ _______ _____ _____    ______ ____
ROOT
ATOM      1  C   UNL     1      47.716   4.387  16.077  0.00  0.00    +0.000 C 
ENDROOT
BRANCH   1   2
ATOM      2  C   UNL     1      47.146   4.889  14.762  0.00  0.00    +0.000 A 
ATOM      3  N   UNL     1      45.984   4.361  14.328  0.00  0.00    +0.000 NA
ATOM      4  C   UNL     1      45.543   4.788  13.130  0.00  0.00    +0.000 A 
ATOM      5  C   UNL     1      46.194   5.727  12.354  0.00  0.00    +0.000 A 
ATOM      6  C   UNL     1      47.362   6.215  12.904  0.00  0.00    +0.000 A 
ATOM      7  N   UNL     1      47.859   5.818  14.092  0.00  0.00    +0.000 NA
BRANCH   5   8
ATOM      8  C   UNL     1      45.697   6.164  11.006  0.00  0.00    +0.000 C 
BRANCH   8   9
ATOM      9  C   UNL     1      45.033   5.022  10.221  0.00  0.00    +0.000 C 
BRANCH   9  10
ATOM     10  N   UNL     1      45.671   4.834   8.912  0.00  0.00    +0.000 NA
ATOM     11  H   UNL     1      46.585   4.408   9.053  0.00  0.00    +0.000 HD
BRANCH  10  12
ATOM     12  C   UNL     1      44.904   3.951   8.048  0.00  0.00    +0.000 C 
ATOM     13  C   UNL     1      45.672   3.264   6.923  0.00  0.00    +0.000 C 
ATOM     14  C   UNL     1      46.480   2.211   7.649  0.00  0.00    +0.000 C 
ATOM     15  C   UNL     1      45.570   1.806   8.797  0.00  0.00    +0.000 C 
ATOM     16  N   UNL     1      44.519   2.830   8.891  0.00  0.00    +0.000 NA
ATOM     17  H   UNL     1      44.431   3.140   9.852  0.00  0.00    +0.000 HD
ENDBRANCH  10  12
ENDBRANCH   9  10
ENDBRANCH   8   9
ENDBRANCH   5   8
ENDBRANCH   1   2
BRANCH   1  18
ATOM     18  N   UNL     1      47.190   5.096  17.268  0.00  0.00    +0.000 NA
ATOM     19  H   UNL     1      46.643   4.429  17.824  0.00  0.00    +0.000 HD
BRANCH  18  20
ATOM     20  C   UNL     1      48.299   5.606  18.081  0.00  0.00    +0.000 C 
BRANCH  20  21
ATOM     21  C   UNL     1      48.630   7.035  17.708  0.00  0.00    +0.000 A 
ATOM     22  C   UNL     1      47.983   8.144  18.236  0.00  0.00    +0.000 A 
ATOM     23  S   UNL     1      48.151   9.530  17.245  0.00  0.00    +0.000 S 
ATOM     24  C   UNL     1      49.223   8.721  16.200  0.00  0.00    +0.000 A 
ATOM     25  N   UNL     1      49.679   9.285  15.049  0.00  0.00    +0.000 NA
ATOM     26  C   UNL     1      50.571   8.580  14.433  0.00  0.00    +0.000 A 
ATOM     27  N   UNL     1      51.082   7.387  14.887  0.00  0.00    +0.000 N 
ATOM     28  C   UNL     1      50.627   6.763  16.029  0.00  0.00    +0.000 A 
ATOM     29  O   UNL     1      51.121   5.728  16.460  0.00  0.00    +0.000 OA
ATOM     30  C   UNL     1      49.551   7.472  16.689  0.00  0.00    +0.000 A 
ATOM     31  H   UNL     1      51.843   6.935  14.402  0.00  0.00    +0.000 HD
ENDBRANCH  20  21
BRANCH  20  33
ATOM     32  N   UNL     1      47.941   5.481  20.706  0.00  0.00    +0.000 NA
ATOM     33  C   UNL     1      48.090   5.535  19.560  0.00  0.00    +0.000 C 
ENDBRANCH  20  33
ENDBRANCH  18  20
ENDBRANCH   1  18
TORSDOF 9
ENDMDL
MODEL 6
REMARK VINA RESULT:    -6.798      3.191      9.725
REMARK INTER + INTRA:         -11.205
REMARK INTER:                 -10.382
REMARK INTRA:                  -0.823
REMARK UNBOUND:                -0.830
REMARK  Name = 
REMARK  9 active torsions:
REMARK  status: ('A' for Active; 'I' for Inactive)
REMARK    1  A    between atoms: C_2  and  C_3
REMARK    2  A    between atoms: C_3  and  N_4
REMARK    3  A    between atoms: C_3  and  C_20
REMARK    4  A    between atoms: N_4  and  C_5
REMARK    5  A    between atoms: C_5  and  C_6
REMARK    6  A    between atoms: C_9  and  C_10
REMARK    7  A    between atoms: C_10  and  C_11
REMARK    8  A    between atoms: C_11  and  N_12
REMARK    9  A    between atoms: N_12  and  C_13
REMARK                            x       y       z     vdW  Elec       q    Type
REMARK                         _______ _______ _______ _____ _____    ______ ____
ROOT
ATOM      1  C   UNL     1      46.935   4.741  13.848  0.00  0.00    +0.000 C 
ENDROOT
BRANCH   1   2
ATOM      2  C   UNL     1      47.416   4.617  15.283  0.00  0.00    +0.000 A 
ATOM      3  N   UNL     1      46.866   3.660  16.057  0.00  0.00    +0.000 NA
ATOM      4  C   UNL     1      47.275   3.620  17.340  0.00  0.00    +0.000 A 
ATOM      5  C   UNL     1      48.215   4.475  17.881  0.00  0.00    +0.000 A 
ATOM      6  C   UNL     1      48.726   5.401  16.993  0.00  0.00    +0.000 A 
ATOM      7  N   UNL     1      48.348   5.496  15.703  0.00  0.00    +0.000 NA
BRANCH   5   8
ATOM      8  C   UNL     1      48.631   4.430  19.323  0.00  0.00    +0.000 C 
BRANCH   8   9
ATOM      9  C   UNL     1      49.988   5.107  19.568  0.00  0.00    +0.000 C 
BRANCH   9  10
ATOM     10  N   UNL     1      51.076   4.122  19.605  0.00  0.00    +0.000 NA
ATOM     11  H   UNL     1      50.681   3.195  19.461  0.00  0.00    +0.000 HD
BRANCH  10  12
ATOM     12  C   UNL     1      52.057   4.347  18.555  0.00  0.00    +0.000 C 
ATOM     13  C   UNL     1      53.521   4.171  18.942  0.00  0.00    +0.000 C 
ATOM     14  C   UNL     1      53.670   2.670  19.059  0.00  0.00    +0.000 C 
ATOM     15  C   UNL     1      52.718   2.144  17.998  0.00  0.00    +0.000 C 
ATOM     16  N   UNL     1      51.854   3.267  17.603  0.00  0.00    +0.000 NA
ATOM     17  H   UNL     1      50.884   2.973  17.621  0.00  0.00    +0.000 HD
ENDBRANCH  10  12
ENDBRANCH   9  10
ENDBRANCH   8   9
ENDBRANCH   5   8
ENDBRANCH   1   2
BRANCH   1  18
ATOM     18  N   UNL     1      45.999   5.868  13.624  0.00  0.00    +0.000 NA
ATOM     19  H   UNL     1      46.427   6.721  14.003  0.00  0.00    +0.000 HD
BRANCH  18  20
ATOM     20  C   UNL     1      45.759   6.047  12.189  0.00  0.00    +0.000 C 
BRANCH  20  21
ATOM     21  C   UNL     1      44.833   4.974  11.658  0.00  0.00    +0.000 A 
ATOM     22  C   UNL     1      43.803   4.406  12.394  0.00  0.00    +0.000 A 
ATOM     23  S   UNL     1      43.324   2.882  11.777  0.00  0.00    +0.000 S 
ATOM     24  C   UNL     1      44.354   3.041  10.432  0.00  0.00    +0.000 A 
ATOM     25  N   UNL     1      44.537   2.035   9.535  0.00  0.00    +0.000 NA
ATOM     26  C   UNL     1      45.264   2.362   8.516  0.00  0.00    +0.000 A 
ATOM     27  N   UNL     1      45.783   3.615   8.290  0.00  0.00    +0.000 N 
ATOM     28  C   UNL     1      45.650   4.655   9.186  0.00  0.00    +0.000 A 
ATOM     29  O   UNL     1      46.067   5.783   8.958  0.00  0.00    +0.000 OA
ATOM     30  C   UNL     1      44.933   4.294  10.391  0.00  0.00    +0.000 A 
ATOM     31  H   UNL     1      46.264   3.825   7.428  0.00  0.00    +0.000 HD
ENDBRANCH  20  21
BRANCH  20  33
ATOM     32  N   UNL     1      44.806   8.423  11.496  0.00  0.00    +0.000 NA
ATOM     33  C   UNL     1      45.216   7.384  11.795  0.00  0.00    +0.000 C 
ENDBRANCH  20  33
ENDBRANCH  18  20
ENDBRANCH   1  18
TORSDOF 9
ENDMDL
MODEL 7
REMARK VINA RESULT:    -6.569      3.494      9.114
REMARK INTER + INTRA:         -10.856
REMARK INTER:                 -10.027
REMARK INTRA:                  -0.829
REMARK UNBOUND:                -0.830
REMARK  Name = 
REMARK  9 active torsions:
REMARK  status: ('A' for Active; 'I' for Inactive)
REMARK    1  A    between atoms: C_2  and  C_3
REMARK    2  A    between atoms: C_3  and  N_4
REMARK    3  A    between atoms: C_3  and  C_20
REMARK    4  A    between atoms: N_4  and  C_5
REMARK    5  A    between atoms: C_5  and  C_6
REMARK    6  A    between atoms: C_9  and  C_10
REMARK    7  A    between atoms: C_10  and  C_11
REMARK    8  A    between atoms: C_11  and  N_12
REMARK    9  A    between atoms: N_12  and  C_13
REMARK                            x       y       z     vdW  Elec       q    Type
REMARK                         _______ _______ _______ _____ _____    ______ ____
ROOT
ATOM      1  C   UNL     1      48.330   7.210  12.245  0.00  0.00    +0.000 C 
ENDROOT
BRANCH   1   2
ATOM      2  C   UNL     1      48.885   7.052  13.651  0.00  0.00    +0.000 A 
ATOM      3  N   UNL     1      48.111   6.450  14.576  0.00  0.00    +0.000 NA
ATOM      4  C   UNL     1      48.613   6.382  15.824  0.00  0.00    +0.000 A 
ATOM      5  C   UNL     1      49.854   6.868  16.187  0.00  0.00    +0.000 A 
ATOM      6  C   UNL     1      50.568   7.444  15.156  0.00  0.00    +0.000 A 
ATOM      7  N   UNL     1      50.114   7.551  13.892  0.00  0.00    +0.000 NA
BRANCH   5   8
ATOM      8  C   UNL     1      50.378   6.808  17.593  0.00  0.00    +0.000 C 
BRANCH   8   9
ATOM      9  C   UNL     1      50.977   5.436  17.942  0.00  0.00    +0.000 C 
BRANCH   9  10
ATOM     10  N   UNL     1      50.519   4.401  17.007  0.00  0.00    +0.000 NA
ATOM     11  H   UNL     1      51.296   4.138  16.405  0.00  0.00    +0.000 HD
BRANCH  10  12
ATOM     12  C   UNL     1      50.072   3.199  17.694  0.00  0.00    +0.000 C 
ATOM     13  C   UNL     1      48.767   3.308  18.476  0.00  0.00    +0.000 C 
ATOM     14  C   UNL     1      47.715   3.341  17.389  0.00  0.00    +0.000 C 
ATOM     15  C   UNL     1      48.305   2.451  16.308  0.00  0.00    +0.000 C 
ATOM     16  N   UNL     1      49.726   2.261  16.639  0.00  0.00    +0.000 NA
ATOM     17  H   UNL     1      50.293   2.444  15.819  0.00  0.00    +0.000 HD
ENDBRANCH  10  12
ENDBRANCH   9  10
ENDBRANCH   8   9
ENDBRANCH   5   8
ENDBRANCH   1   2
BRANCH   1  18
ATOM     18  N   UNL     1      47.286   6.218  11.898  0.00  0.00    +0.000 NA
ATOM     19  H   UNL     1      47.065   5.675  12.740  0.00  0.00    +0.000 HD
BRANCH  18  20
ATOM     20  C   UNL     1      46.074   6.902  11.435  0.00  0.00    +0.000 C 
BRANCH  20  21
ATOM     21  C   UNL     1      44.904   5.944  11.369  0.00  0.00    +0.000 A 
ATOM     22  C   UNL     1      43.856   5.936  12.279  0.00  0.00    +0.000 A 
ATOM     23  S   UNL     1      43.023   4.440  12.301  0.00  0.00    +0.000 S 
ATOM     24  C   UNL     1      43.931   3.853  10.987  0.00  0.00    +0.000 A 
ATOM     25  N   UNL     1      43.820   2.571  10.544  0.00  0.00    +0.000 NA
ATOM     26  C   UNL     1      44.497   2.324   9.470  0.00  0.00    +0.000 A 
ATOM     27  N   UNL     1      45.233   3.253   8.773  0.00  0.00    +0.000 N 
ATOM     28  C   UNL     1      45.399   4.552   9.201  0.00  0.00    +0.000 A 
ATOM     29  O   UNL     1      46.011   5.391   8.551  0.00  0.00    +0.000 OA
ATOM     30  C   UNL     1      44.744   4.837  10.461  0.00  0.00    +0.000 A 
ATOM     31  H   UNL     1      45.661   3.013   7.891  0.00  0.00    +0.000 HD
ENDBRANCH  20  21
BRANCH  20  33
ATOM     32  N   UNL     1      45.344   9.014  12.863  0.00  0.00    +0.000 NA
ATOM     33  C   UNL     1      45.669   8.095  12.240  0.00  0.00    +0.000 C 
ENDBRANCH  20  33
ENDBRANCH  18  20
ENDBRANCH   1  18
TORSDOF 9
ENDMDL
MODEL 8
REMARK VINA RESULT:    -6.544      3.669      9.753
REMARK INTER + INTRA:         -10.817
REMARK INTER:                 -10.196
REMARK INTRA:                  -0.621
REMARK UNBOUND:                -0.830
REMARK  Name = 
REMARK  9 active torsions:
REMARK  status: ('A' for Active; 'I' for Inactive)
REMARK    1  A    between atoms: C_2  and  C_3
REMARK    2  A    between atoms: C_3  and  N_4
REMARK    3  A    between atoms: C_3  and  C_20
REMARK    4  A    between atoms: N_4  and  C_5
REMARK    5  A    between atoms: C_5  and  C_6
REMARK    6  A    between atoms: C_9  and  C_10
REMARK    7  A    between atoms: C_10  and  C_11
REMARK    8  A    between atoms: C_11  and  N_12
REMARK    9  A    between atoms: N_12  and  C_13
REMARK                            x       y       z     vdW  Elec       q    Type
REMARK                         _______ _______ _______ _____ _____    ______ ____
ROOT
ATOM      1  C   UNL     1      46.601   5.029  13.530  0.00  0.00    +0.000 C 
ENDROOT
BRANCH   1   2
ATOM      2  C   UNL     1      47.432   4.820  14.785  0.00  0.00    +0.000 A 
ATOM      3  N   UNL     1      47.311   3.648  15.440  0.00  0.00    +0.000 NA
ATOM      4  C   UNL     1      48.018   3.524  16.580  0.00  0.00    +0.000 A 
ATOM      5  C   UNL     1      48.850   4.503  17.086  0.00  0.00    +0.000 A 
ATOM      6  C   UNL     1      48.913   5.652  16.323  0.00  0.00    +0.000 A 
ATOM      7  N   UNL     1      48.222   5.838  15.182  0.00  0.00    +0.000 NA
BRANCH   5   8
ATOM      8  C   UNL     1      49.603   4.352  18.376  0.00  0.00    +0.000 C 
BRANCH   8   9
ATOM      9  C   UNL     1      48.714   4.572  19.610  0.00  0.00    +0.000 C 
BRANCH   9  10
ATOM     10  N   UNL     1      48.818   5.952  20.101  0.00  0.00    +0.000 NA
ATOM     11  H   UNL     1      49.315   6.508  19.409  0.00  0.00    +0.000 HD
BRANCH  10  12
ATOM     12  C   UNL     1      47.513   6.564  20.298  0.00  0.00    +0.000 C 
ATOM     13  C   UNL     1      47.479   7.840  21.133  0.00  0.00    +0.000 C 
ATOM     14  C   UNL     1      48.068   8.878  20.203  0.00  0.00    +0.000 C 
ATOM     15  C   UNL     1      47.598   8.420  18.832  0.00  0.00    +0.000 C 
ATOM     16  N   UNL     1      47.110   7.041  18.986  0.00  0.00    +0.000 NA
ATOM     17  H   UNL     1      47.522   6.454  18.268  0.00  0.00    +0.000 HD
ENDBRANCH  10  12
ENDBRANCH   9  10
ENDBRANCH   8   9
ENDBRANCH   5   8
ENDBRANCH   1   2
BRANCH   1  18
ATOM     18  N   UNL     1      47.244   5.909  12.526  0.00  0.00    +0.000 NA
ATOM     19  H   UNL     1      47.762   5.318  11.865  0.00  0.00    +0.000 HD
BRANCH  18  20
ATOM     20  C   UNL     1      46.225   6.668  11.795  0.00  0.00    +0.000 C 
BRANCH  20  21
ATOM     21  C   UNL     1      45.005   5.813  11.523  0.00  0.00    +0.000 A 
ATOM     22  C   UNL     1      43.887   5.774  12.344  0.00  0.00    +0.000 A 
ATOM     23  S   UNL     1      42.961   4.352  12.117  0.00  0.00    +0.000 S 
ATOM     24  C   UNL     1      43.935   3.860  10.812  0.00  0.00    +0.000 A 
ATOM     25  N   UNL     1      43.780   2.652  10.206  0.00  0.00    +0.000 NA
ATOM     26  C   UNL     1      44.526   2.485   9.162  0.00  0.00    +0.000 A 
ATOM     27  N   UNL     1      45.376   3.434   8.643  0.00  0.00    +0.000 N 
ATOM     28  C   UNL     1      45.588   4.658   9.241  0.00  0.00    +0.000 A 
ATOM     29  O   UNL     1      46.305   5.520   8.749  0.00  0.00    +0.000 OA
ATOM     30  C   UNL     1      44.850   4.837  10.474  0.00  0.00    +0.000 A 
ATOM     31  H   UNL     1      45.860   3.270   7.773  0.00  0.00    +0.000 HD
ENDBRANCH  20  21
BRANCH  20  33
ATOM     32  N   UNL     1      45.440   8.924  12.949  0.00  0.00    +0.000 NA
ATOM     33  C   UNL     1      45.782   7.937  12.452  0.00  0.00    +0.000 C 
ENDBRANCH  20  33
ENDBRANCH  18  20
ENDBRANCH   1  18
TORSDOF 9
ENDMDL
MODEL 9
REMARK VINA RESULT:    -6.312      2.984      4.330
REMARK INTER + INTRA:         -10.463
REMARK INTER:                  -9.343
REMARK INTRA:                  -1.119
REMARK UNBOUND:                -0.830
REMARK  Name = 
REMARK  9 active torsions:
REMARK  status: ('A' for Active; 'I' for Inactive)
REMARK    1  A    between atoms: C_2  and  C_3
REMARK    2  A    between atoms: C_3  and  N_4
REMARK    3  A    between atoms: C_3  and  C_20
REMARK    4  A    between atoms: N_4  and  C_5
REMARK    5  A    between atoms: C_5  and  C_6
REMARK    6  A    between atoms: C_9  and  C_10
REMARK    7  A    between atoms: C_10  and  C_11
REMARK    8  A    between atoms: C_11  and  N_12
REMARK    9  A    between atoms: N_12  and  C_13
REMARK                            x       y       z     vdW  Elec       q    Type
REMARK                         _______ _______ _______ _____ _____    ______ ____
ROOT
ATOM      1  C   UNL     1      49.189   7.508  13.252  0.00  0.00    +0.000 C 
ENDROOT
BRANCH   1   2
ATOM      2  C   UNL     1      47.803   7.084  12.796  0.00  0.00    +0.000 A 
ATOM      3  N   UNL     1      47.384   5.842  13.105  0.00  0.00    +0.000 NA
ATOM      4  C   UNL     1      46.175   5.483  12.632  0.00  0.00    +0.000 A 
ATOM      5  C   UNL     1      45.360   6.308  11.882  0.00  0.00    +0.000 A 
ATOM      6  C   UNL     1      45.881   7.564  11.643  0.00  0.00    +0.000 A 
ATOM      7  N   UNL     1      47.088   7.976  12.080  0.00  0.00    +0.000 NA
BRANCH   5   8
ATOM      8  C   UNL     1      44.029   5.874  11.340  0.00  0.00    +0.000 C 
BRANCH   8   9
ATOM      9  C   UNL     1      44.113   4.558  10.550  0.00  0.00    +0.000 C 
BRANCH   9  10
ATOM     10  N   UNL     1      45.053   4.670   9.428  0.00  0.00    +0.000 NA
ATOM     11  H   UNL     1      45.954   4.297   9.718  0.00  0.00    +0.000 HD
BRANCH  10  12
ATOM     12  C   UNL     1      44.618   3.909   8.267  0.00  0.00    +0.000 C 
ATOM     13  C   UNL     1      45.695   3.538   7.253  0.00  0.00    +0.000 C 
ATOM     14  C   UNL     1      46.468   2.443   7.954  0.00  0.00    +0.000 C 
ATOM     15  C   UNL     1      45.400   1.732   8.768  0.00  0.00    +0.000 C 
ATOM     16  N   UNL     1      44.221   2.611   8.788  0.00  0.00    +0.000 NA
ATOM     17  H   UNL     1      43.888   2.711   9.740  0.00  0.00    +0.000 HD
ENDBRANCH  10  12
ENDBRANCH   9  10
ENDBRANCH   8   9
ENDBRANCH   5   8
ENDBRANCH   1   2
BRANCH   1  18
ATOM     18  N   UNL     1      49.738   6.677  14.350  0.00  0.00    +0.000 NA
ATOM     19  H   UNL     1      50.503   6.107  13.970  0.00  0.00    +0.000 HD
BRANCH  18  20
ATOM     20  C   UNL     1      50.261   7.534  15.418  0.00  0.00    +0.000 C 
BRANCH  20  21
ATOM     21  C   UNL     1      49.196   7.811  16.459  0.00  0.00    +0.000 A 
ATOM     22  C   UNL     1      48.717   9.078  16.759  0.00  0.00    +0.000 A 
ATOM     23  S   UNL     1      47.986   9.148  18.306  0.00  0.00    +0.000 S 
ATOM     24  C   UNL     1      48.144   7.468  18.518  0.00  0.00    +0.000 A 
ATOM     25  N   UNL     1      47.824   6.850  19.688  0.00  0.00    +0.000 NA
ATOM     26  C   UNL     1      47.897   5.560  19.641  0.00  0.00    +0.000 A 
ATOM     27  N   UNL     1      48.213   4.830  18.519  0.00  0.00    +0.000 N 
ATOM     28  C   UNL     1      48.575   5.413  17.323  0.00  0.00    +0.000 A 
ATOM     29  O   UNL     1      48.804   4.762  16.311  0.00  0.00    +0.000 OA
ATOM     30  C   UNL     1      48.610   6.860  17.369  0.00  0.00    +0.000 A 
ATOM     31  H   UNL     1      48.162   3.823  18.529  0.00  0.00    +0.000 HD
ENDBRANCH  20  21
BRANCH  20  33
ATOM     32  N   UNL     1      52.434   6.627  16.638  0.00  0.00    +0.000 NA
ATOM     33  C   UNL     1      51.482   7.019  16.110  0.00  0.00    +0.000 C 
ENDBRANCH  20  33
ENDBRANCH  18  20
ENDBRANCH   1  18
TORSDOF 9
ENDMDL
