MODEL 1
REMARK VINA RESULT:    -8.183      0.000      0.000
REMARK INTER + INTRA:         -13.350
REMARK INTER:                 -12.010
REMARK INTRA:                  -1.340
REMARK UNBOUND:                -1.340
REMARK  Name = 
REMARK  9 active torsions:
REMARK  status: ('A' for Active; 'I' for Inactive)
REMARK    1  A    between atoms: C_1  and  O_2
REMARK    2  A    between atoms: O_2  and  C_3
REMARK    3  A    between atoms: C_10  and  C_11
REMARK    4  A    between atoms: N_13  and  C_14
REMARK    5  A    between atoms: C_14  and  C_15
REMARK    6  A    between atoms: C_18  and  O_19
REMARK    7  A    between atoms: O_19  and  C_20
REMARK    8  A    between atoms: C_20  and  C_21
REMARK    9  A    between atoms: C_21  and  N_22
REMARK                            x       y       z     vdW  Elec       q    Type
REMARK                         _______ _______ _______ _____ _____    ______ ____
ROOT
ATOM      1  C   UNL     1      46.936   8.182  13.208  0.00  0.00    +0.000 C 
ENDROOT
BRANCH   1   2
ATOM      2  C   UNL     1      46.144   7.215  12.351  0.00  0.00    +0.000 A 
ATOM      3  C   UNL     1      44.895   6.754  12.787  0.00  0.00    +0.000 A 
ATOM      4  C   UNL     1      44.150   5.853  12.014  0.00  0.00    +0.000 A 
ATOM      5  C   UNL     1      44.648   5.371  10.799  0.00  0.00    +0.000 A 
ATOM      6  C   UNL     1      45.902   5.811  10.367  0.00  0.00    +0.000 A 
ATOM      7  C   UNL     1      46.634   6.736  11.126  0.00  0.00    +0.000 A 
BRANCH   5   8
ATOM      8  O   UNL     1      44.014   4.463   9.981  0.00  0.00    +0.000 OA
BRANCH   8   9
ATOM      9  C   UNL     1      44.248   3.098  10.350  0.00  0.00    +0.000 C 
BRANCH   9  10
ATOM     10  C   UNL     1      44.446   2.184   9.124  0.00  0.00    +0.000 C 
BRANCH  10  11
ATOM     11  N   UNL     1      45.724   2.416   8.402  0.00  0.00    +0.000 NA
ATOM     12  C   UNL     1      46.294   1.135   7.944  0.00  0.00    +0.000 C 
ATOM     13  C   UNL     1      47.652   1.325   7.260  0.00  0.00    +0.000 C 
ATOM     14  C   UNL     1      47.569   2.325   6.112  0.00  0.00    +0.000 C 
ATOM     15  C   UNL     1      46.946   3.622   6.599  0.00  0.00    +0.000 C 
ATOM     16  C   UNL     1      45.600   3.361   7.278  0.00  0.00    +0.000 C 
ENDBRANCH  10  11
ENDBRANCH   9  10
ENDBRANCH   8   9
ENDBRANCH   5   8
ENDBRANCH   1   2
BRANCH   1  19
ATOM     17  C   UNL     1      48.613   6.863  14.474  0.00  0.00    +0.000 C 
ATOM     18  O   UNL     1      49.337   6.746  13.489  0.00  0.00    +0.000 OA
ATOM     19  N   UNL     1      47.428   7.557  14.413  0.00  0.00    +0.000 N 
ATOM     20  H   UNL     1      46.868   7.662  15.242  0.00  0.00    +0.000 HD
BRANCH  17  28
ATOM     21  C   UNL     1      47.309   4.257  16.307  0.00  0.00    +0.000 A 
ATOM     22  N   UNL     1      47.041   3.268  17.179  0.00  0.00    +0.000 NA
ATOM     23  C   UNL     1      47.817   3.154  18.257  0.00  0.00    +0.000 A 
ATOM     24  N   UNL     1      48.840   3.936  18.591  0.00  0.00    +0.000 NA
ATOM     25  C   UNL     1      49.078   4.908  17.693  0.00  0.00    +0.000 A 
ATOM     26  S   UNL     1      50.344   6.006  17.958  0.00  0.00    +0.000 S 
ATOM     27  C   UNL     1      50.018   6.814  16.497  0.00  0.00    +0.000 A 
ATOM     28  C   UNL     1      48.959   6.271  15.776  0.00  0.00    +0.000 A 
ATOM     29  C   UNL     1      48.383   5.142  16.511  0.00  0.00    +0.000 A 
BRANCH  21  31
ATOM     30  C   UNL     1      47.038   3.596  14.084  0.00  0.00    +0.000 C 
ATOM     31  O   UNL     1      46.522   4.347  15.180  0.00  0.00    +0.000 OA
ENDBRANCH  21  31
ENDBRANCH  17  28
ENDBRANCH   1  19
TORSDOF 8
ENDMDL
MODEL 2
REMARK VINA RESULT:    -7.455      1.599      1.951
REMARK INTER + INTRA:         -12.281
REMARK INTER:                 -11.238
REMARK INTRA:                  -1.043
REMARK UNBOUND:                -1.340
REMARK  Name = 
REMARK  9 active torsions:
REMARK  status: ('A' for Active; 'I' for Inactive)
REMARK    1  A    between atoms: C_1  and  O_2
REMARK    2  A    between atoms: O_2  and  C_3
REMARK    3  A    between atoms: C_10  and  C_11
REMARK    4  A    between atoms: N_13  and  C_14
REMARK    5  A    between atoms: C_14  and  C_15
REMARK    6  A    between atoms: C_18  and  O_19
REMARK    7  A    between atoms: O_19  and  C_20
REMARK    8  A    between atoms: C_20  and  C_21
REMARK    9  A    between atoms: C_21  and  N_22
REMARK                            x       y       z     vdW  Elec       q    Type
REMARK                         _______ _______ _______ _____ _____    ______ ____
ROOT
ATOM      1  C   UNL     1      48.001   7.508  13.508  0.00  0.00    +0.000 C 
ENDROOT
BRANCH   1   2
ATOM      2  C   UNL     1      46.998   6.538  12.917  0.00  0.00    +0.000 A 
ATOM      3  C   UNL     1      46.458   6.775  11.646  0.00  0.00    +0.000 A 
ATOM      4  C   UNL     1      45.523   5.896  11.086  0.00  0.00    +0.000 A 
ATOM      5  C   UNL     1      45.085   4.770  11.792  0.00  0.00    +0.000 A 
ATOM      6  C   UNL     1      45.604   4.537  13.068  0.00  0.00    +0.000 A 
ATOM      7  C   UNL     1      46.563   5.401  13.618  0.00  0.00    +0.000 A 
BRANCH   5   8
ATOM      8  O   UNL     1      44.149   3.863  11.348  0.00  0.00    +0.000 OA
BRANCH   8   9
ATOM      9  C   UNL     1      44.139   3.701   9.925  0.00  0.00    +0.000 C 
BRANCH   9  10
ATOM     10  C   UNL     1      44.795   2.379   9.479  0.00  0.00    +0.000 C 
BRANCH  10  11
ATOM     11  N   UNL     1      45.917   2.559   8.520  0.00  0.00    +0.000 NA
ATOM     12  C   UNL     1      46.368   1.252   8.008  0.00  0.00    +0.000 C 
ATOM     13  C   UNL     1      47.574   1.390   7.073  0.00  0.00    +0.000 C 
ATOM     14  C   UNL     1      47.292   2.354   5.927  0.00  0.00    +0.000 C 
ATOM     15  C   UNL     1      46.794   3.680   6.477  0.00  0.00    +0.000 C 
ATOM     16  C   UNL     1      45.597   3.471   7.408  0.00  0.00    +0.000 C 
ENDBRANCH  10  11
ENDBRANCH   9  10
ENDBRANCH   8   9
ENDBRANCH   5   8
ENDBRANCH   1   2
BRANCH   1  19
ATOM     17  C   UNL     1      48.986   7.054  15.739  0.00  0.00    +0.000 C 
ATOM     18  O   UNL     1      50.021   6.612  15.246  0.00  0.00    +0.000 OA
ATOM     19  N   UNL     1      47.959   7.516  14.950  0.00  0.00    +0.000 N 
ATOM     20  H   UNL     1      47.134   7.899  15.380  0.00  0.00    +0.000 HD
BRANCH  17  28
ATOM     21  C   UNL     1      48.819   4.660  18.207  0.00  0.00    +0.000 A 
ATOM     22  N   UNL     1      48.774   3.950  19.349  0.00  0.00    +0.000 NA
ATOM     23  C   UNL     1      48.628   4.616  20.496  0.00  0.00    +0.000 A 
ATOM     24  N   UNL     1      48.500   5.932  20.645  0.00  0.00    +0.000 NA
ATOM     25  C   UNL     1      48.555   6.603  19.482  0.00  0.00    +0.000 A 
ATOM     26  S   UNL     1      48.403   8.294  19.479  0.00  0.00    +0.000 S 
ATOM     27  C   UNL     1      48.586   8.359  17.789  0.00  0.00    +0.000 A 
ATOM     28  C   UNL     1      48.774   7.116  17.193  0.00  0.00    +0.000 A 
ATOM     29  C   UNL     1      48.730   6.063  18.212  0.00  0.00    +0.000 A 
BRANCH  21  31
ATOM     30  C   UNL     1      47.774   3.528  16.452  0.00  0.00    +0.000 C 
ATOM     31  O   UNL     1      49.001   3.966  17.031  0.00  0.00    +0.000 OA
ENDBRANCH  21  31
ENDBRANCH  17  28
ENDBRANCH   1  19
TORSDOF 8
ENDMDL
MODEL 3
REMARK VINA RESULT:    -7.028      1.695      2.178
REMARK INTER + INTRA:         -11.654
REMARK INTER:                 -10.618
REMARK INTRA:                  -1.037
REMARK UNBOUND:                -1.340
REMARK  Name = 
REMARK  9 active torsions:
REMARK  status: ('A' for Active; 'I' for Inactive)
REMARK    1  A    between atoms: C_1  and  O_2
REMARK    2  A    between atoms: O_2  and  C_3
REMARK    3  A    between atoms: C_10  and  C_11
REMARK    4  A    between atoms: N_13  and  C_14
REMARK    5  A    between atoms: C_14  and  C_15
REMARK    6  A    between atoms: C_18  and  O_19
REMARK    7  A    between atoms: O_19  and  C_20
REMARK    8  A    between atoms: C_20  and  C_21
REMARK    9  A    between atoms: C_21  and  N_22
REMARK                            x       y       z     vdW  Elec       q    Type
REMARK                         _______ _______ _______ _____ _____    ______ ____
ROOT
ATOM      1  C   UNL     1      47.548   7.604  13.464  0.00  0.00    +0.000 C 
ENDROOT
BRANCH   1   2
ATOM      2  C   UNL     1      46.663   6.465  12.999  0.00  0.00    +0.000 A 
ATOM      3  C   UNL     1      46.840   5.180  13.527  0.00  0.00    +0.000 A 
ATOM      4  C   UNL     1      46.038   4.111  13.104  0.00  0.00    +0.000 A 
ATOM      5  C   UNL     1      45.058   4.296  12.123  0.00  0.00    +0.000 A 
ATOM      6  C   UNL     1      44.890   5.571  11.576  0.00  0.00    +0.000 A 
ATOM      7  C   UNL     1      45.671   6.648  12.022  0.00  0.00    +0.000 A 
BRANCH   5   8
ATOM      8  O   UNL     1      44.242   3.311  11.615  0.00  0.00    +0.000 OA
BRANCH   8   9
ATOM      9  C   UNL     1      44.069   3.384  10.194  0.00  0.00    +0.000 C 
BRANCH   9  10
ATOM     10  C   UNL     1      44.597   2.128   9.472  0.00  0.00    +0.000 C 
BRANCH  10  11
ATOM     11  N   UNL     1      45.763   2.390   8.587  0.00  0.00    +0.000 NA
ATOM     12  C   UNL     1      46.257   1.128   8.005  0.00  0.00    +0.000 C 
ATOM     13  C   UNL     1      47.506   1.347   7.145  0.00  0.00    +0.000 C 
ATOM     14  C   UNL     1      47.267   2.389   6.059  0.00  0.00    +0.000 C 
ATOM     15  C   UNL     1      46.724   3.665   6.678  0.00  0.00    +0.000 C 
ATOM     16  C   UNL     1      45.486   3.377   7.529  0.00  0.00    +0.000 C 
ENDBRANCH  10  11
ENDBRANCH   9  10
ENDBRANCH   8   9
ENDBRANCH   5   8
ENDBRANCH   1   2
BRANCH   1  19
ATOM     17  C   UNL     1      49.093   7.546  15.404  0.00  0.00    +0.000 C 
ATOM     18  O   UNL     1      48.415   8.357  16.030  0.00  0.00    +0.000 OA
ATOM     19  N   UNL     1      48.727   7.127  14.148  0.00  0.00    +0.000 N 
ATOM     20  H   UNL     1      49.285   6.441  13.667  0.00  0.00    +0.000 HD
BRANCH  17  28
ATOM     21  C   UNL     1      49.747   5.052  17.685  0.00  0.00    +0.000 A 
ATOM     22  N   UNL     1      50.273   4.100  18.477  0.00  0.00    +0.000 NA
ATOM     23  C   UNL     1      51.601   3.983  18.521  0.00  0.00    +0.000 A 
ATOM     24  N   UNL     1      52.491   4.727  17.870  0.00  0.00    +0.000 NA
ATOM     25  C   UNL     1      51.925   5.663  17.087  0.00  0.00    +0.000 A 
ATOM     26  S   UNL     1      52.909   6.711  16.185  0.00  0.00    +0.000 S 
ATOM     27  C   UNL     1      51.554   7.492  15.517  0.00  0.00    +0.000 A 
ATOM     28  C   UNL     1      50.335   6.976  15.949  0.00  0.00    +0.000 A 
ATOM     29  C   UNL     1      50.565   5.895  16.910  0.00  0.00    +0.000 A 
BRANCH  21  31
ATOM     30  C   UNL     1      47.784   4.099  16.856  0.00  0.00    +0.000 C 
ATOM     31  O   UNL     1      48.375   5.145  17.623  0.00  0.00    +0.000 OA
ENDBRANCH  21  31
ENDBRANCH  17  28
ENDBRANCH   1  19
TORSDOF 8
ENDMDL
MODEL 4
REMARK VINA RESULT:    -6.911      2.129      3.615
REMARK INTER + INTRA:         -11.483
REMARK INTER:                 -10.387
REMARK INTRA:                  -1.096
REMARK UNBOUND:                -1.340
REMARK  Name = 
REMARK  9 active torsions:
REMARK  status: ('A' for Active; 'I' for Inactive)
REMARK    1  A    between atoms: C_1  and  O_2
REMARK    2  A    between atoms: O_2  and  C_3
REMARK    3  A    between atoms: C_10  and  C_11
REMARK    4  A    between atoms: N_13  and  C_14
REMARK    5  A    between atoms: C_14  and  C_15
REMARK    6  A    between atoms: C_18  and  O_19
REMARK    7  A    between atoms: O_19  and  C_20
REMARK    8  A    between atoms: C_20  and  C_21
REMARK    9  A    between atoms: C_21  and  N_22
REMARK                            x       y       z     vdW  Elec       q    Type
REMARK                         _______ _______ _______ _____ _____    ______ ____
ROOT
ATOM      1  C   UNL     1      47.284   4.019  15.332  0.00  0.00    +0.000 C 
ENDROOT
BRANCH   1   2
ATOM      2  C   UNL     1      46.633   4.415  14.021  0.00  0.00    +0.000 A 
ATOM      3  C   UNL     1      46.616   5.758  13.626  0.00  0.00    +0.000 A 
ATOM      4  C   UNL     1      46.012   6.147  12.423  0.00  0.00    +0.000 A 
ATOM      5  C   UNL     1      45.388   5.204  11.598  0.00  0.00    +0.000 A 
ATOM      6  C   UNL     1      45.385   3.865  11.995  0.00  0.00    +0.000 A 
ATOM      7  C   UNL     1      46.016   3.471  13.185  0.00  0.00    +0.000 A 
BRANCH   5   8
ATOM      8  O   UNL     1      44.741   5.483  10.416  0.00  0.00    +0.000 OA
BRANCH   8   9
ATOM      9  C   UNL     1      45.412   4.969   9.259  0.00  0.00    +0.000 C 
BRANCH   9  10
ATOM     10  C   UNL     1      44.548   3.956   8.480  0.00  0.00    +0.000 C 
BRANCH  10  11
ATOM     11  N   UNL     1      45.340   2.961   7.708  0.00  0.00    +0.000 NA
ATOM     12  C   UNL     1      46.434   3.631   6.981  0.00  0.00    +0.000 C 
ATOM     13  C   UNL     1      47.227   2.650   6.112  0.00  0.00    +0.000 C 
ATOM     14  C   UNL     1      47.755   1.476   6.928  0.00  0.00    +0.000 C 
ATOM     15  C   UNL     1      46.618   0.826   7.696  0.00  0.00    +0.000 C 
ATOM     16  C   UNL     1      45.862   1.860   8.534  0.00  0.00    +0.000 C 
ENDBRANCH  10  11
ENDBRANCH   9  10
ENDBRANCH   8   9
ENDBRANCH   5   8
ENDBRANCH   1   2
BRANCH   1  19
ATOM     17  C   UNL     1      48.700   5.325  16.895  0.00  0.00    +0.000 C 
ATOM     18  O   UNL     1      49.603   4.494  16.848  0.00  0.00    +0.000 OA
ATOM     19  N   UNL     1      47.540   5.162  16.175  0.00  0.00    +0.000 N 
ATOM     20  H   UNL     1      46.827   5.872  16.209  0.00  0.00    +0.000 HD
BRANCH  17  28
ATOM     21  C   UNL     1      48.728   8.687  16.157  0.00  0.00    +0.000 A 
ATOM     22  N   UNL     1      48.699  10.033  16.153  0.00  0.00    +0.000 NA
ATOM     23  C   UNL     1      48.737  10.665  17.326  0.00  0.00    +0.000 A 
ATOM     24  N   UNL     1      48.820  10.108  18.532  0.00  0.00    +0.000 NA
ATOM     25  C   UNL     1      48.842   8.764  18.492  0.00  0.00    +0.000 A 
ATOM     26  S   UNL     1      48.952   7.883  19.938  0.00  0.00    +0.000 S 
ATOM     27  C   UNL     1      48.904   6.403  19.100  0.00  0.00    +0.000 A 
ATOM     28  C   UNL     1      48.793   6.540  17.720  0.00  0.00    +0.000 A 
ATOM     29  C   UNL     1      48.782   7.960  17.359  0.00  0.00    +0.000 A 
BRANCH  21  31
ATOM     30  C   UNL     1      49.939   7.689  14.429  0.00  0.00    +0.000 C 
ATOM     31  O   UNL     1      48.657   8.043  14.941  0.00  0.00    +0.000 OA
ENDBRANCH  21  31
ENDBRANCH  17  28
ENDBRANCH   1  19
TORSDOF 8
ENDMDL
MODEL 5
REMARK VINA RESULT:    -6.709      3.153      7.736
REMARK INTER + INTRA:         -11.187
REMARK INTER:                  -9.587
REMARK INTRA:                  -1.600
REMARK UNBOUND:                -1.340
REMARK  Name = 
REMARK  9 active torsions:
REMARK  status: ('A' for Active; 'I' for Inactive)
REMARK    1  A    between atoms: C_1  and  O_2
REMARK    2  A    between atoms: O_2  and  C_3
REMARK    3  A    between atoms: C_10  and  C_11
REMARK    4  A    between atoms: N_13  and  C_14
REMARK    5  A    between atoms: C_14  and  C_15
REMARK    6  A    between atoms: C_18  and  O_19
REMARK    7  A    between atoms: O_19  and  C_20
REMARK    8  A    between atoms: C_20  and  C_21
REMARK    9  A    between atoms: C_21  and  N_22
REMARK                            x       y       z     vdW  Elec       q    Type
REMARK                         _______ _______ _______ _____ _____    ______ ____
ROOT
ATOM      1  C   UNL     1      48.445   8.061  11.943  0.00  0.00    +0.000 C 
ENDROOT
BRANCH   1   2
ATOM      2  C   UNL     1      48.532   7.987  13.454  0.00  0.00    +0.000 A 
ATOM      3  C   UNL     1      48.116   9.074  14.234  0.00  0.00    +0.000 A 
ATOM      4  C   UNL     1      48.196   9.029  15.632  0.00  0.00    +0.000 A 
ATOM      5  C   UNL     1      48.719   7.907  16.284  0.00  0.00    +0.000 A 
ATOM      6  C   UNL     1      49.155   6.827  15.512  0.00  0.00    +0.000 A 
ATOM      7  C   UNL     1      49.047   6.859  14.113  0.00  0.00    +0.000 A 
BRANCH   5   8
ATOM      8  O   UNL     1      48.871   7.774  17.645  0.00  0.00    +0.000 OA
BRANCH   8   9
ATOM      9  C   UNL     1      49.857   6.804  18.020  0.00  0.00    +0.000 C 
BRANCH   9  10
ATOM     10  C   UNL     1      49.342   5.829  19.099  0.00  0.00    +0.000 C 
BRANCH  10  11
ATOM     11  N   UNL     1      49.087   4.454  18.593  0.00  0.00    +0.000 NA
ATOM     12  C   UNL     1      47.776   4.391  17.921  0.00  0.00    +0.000 C 
ATOM     13  C   UNL     1      47.443   2.971  17.452  0.00  0.00    +0.000 C 
ATOM     14  C   UNL     1      48.539   2.401  16.559  0.00  0.00    +0.000 C 
ATOM     15  C   UNL     1      49.884   2.511  17.257  0.00  0.00    +0.000 C 
ATOM     16  C   UNL     1      50.150   3.949  17.708  0.00  0.00    +0.000 C 
ENDBRANCH  10  11
ENDBRANCH   9  10
ENDBRANCH   8   9
ENDBRANCH   5   8
ENDBRANCH   1   2
BRANCH   1  19
ATOM     17  C   UNL     1      46.310   6.950  11.343  0.00  0.00    +0.000 C 
ATOM     18  O   UNL     1      45.645   7.893  11.763  0.00  0.00    +0.000 OA
ATOM     19  N   UNL     1      47.683   6.965  11.392  0.00  0.00    +0.000 N 
ATOM     20  H   UNL     1      48.206   6.192  11.015  0.00  0.00    +0.000 HD
BRANCH  17  28
ATOM     21  C   UNL     1      44.545   4.322  12.695  0.00  0.00    +0.000 A 
ATOM     22  N   UNL     1      43.791   3.236  12.948  0.00  0.00    +0.000 NA
ATOM     23  C   UNL     1      43.422   2.474  11.917  0.00  0.00    +0.000 A 
ATOM     24  N   UNL     1      43.734   2.656  10.637  0.00  0.00    +0.000 NA
ATOM     25  C   UNL     1      44.484   3.752  10.426  0.00  0.00    +0.000 A 
ATOM     26  S   UNL     1      44.984   4.139   8.851  0.00  0.00    +0.000 S 
ATOM     27  C   UNL     1      45.787   5.536   9.394  0.00  0.00    +0.000 A 
ATOM     28  C   UNL     1      45.689   5.747  10.766  0.00  0.00    +0.000 A 
ATOM     29  C   UNL     1      44.926   4.659  11.384  0.00  0.00    +0.000 A 
BRANCH  21  31
ATOM     30  C   UNL     1      46.174   4.793  14.299  0.00  0.00    +0.000 C 
ATOM     31  O   UNL     1      44.895   5.119  13.762  0.00  0.00    +0.000 OA
ENDBRANCH  21  31
ENDBRANCH  17  28
ENDBRANCH   1  19
TORSDOF 8
ENDMDL
MODEL 6
REMARK VINA RESULT:    -6.557      4.464      9.031
REMARK INTER + INTRA:         -10.964
REMARK INTER:                 -10.019
REMARK INTRA:                  -0.944
REMARK UNBOUND:                -1.340
REMARK  Name = 
REMARK  9 active torsions:
REMARK  status: ('A' for Active; 'I' for Inactive)
REMARK    1  A    between atoms: C_1  and  O_2
REMARK    2  A    between atoms: O_2  and  C_3
REMARK    3  A    between atoms: C_10  and  C_11
REMARK    4  A    between atoms: N_13  and  C_14
REMARK    5  A    between atoms: C_14  and  C_15
REMARK    6  A    between atoms: C_18  and  O_19
REMARK    7  A    between atoms: O_19  and  C_20
REMARK    8  A    between atoms: C_20  and  C_21
REMARK    9  A    between atoms: C_21  and  N_22
REMARK                            x       y       z     vdW  Elec       q    Type
REMARK                         _______ _______ _______ _____ _____    ______ ____
ROOT
ATOM      1  C   UNL     1      47.227   3.435  16.839  0.00  0.00    +0.000 C 
ENDROOT
BRANCH   1   2
ATOM      2  C   UNL     1      48.717   3.518  17.101  0.00  0.00    +0.000 A 
ATOM      3  C   UNL     1      49.495   2.354  17.097  0.00  0.00    +0.000 A 
ATOM      4  C   UNL     1      50.873   2.408  17.347  0.00  0.00    +0.000 A 
ATOM      5  C   UNL     1      51.502   3.625  17.631  0.00  0.00    +0.000 A 
ATOM      6  C   UNL     1      50.728   4.788  17.656  0.00  0.00    +0.000 A 
ATOM      7  C   UNL     1      49.354   4.739  17.377  0.00  0.00    +0.000 A 
BRANCH   5   8
ATOM      8  O   UNL     1      52.838   3.784  17.920  0.00  0.00    +0.000 OA
BRANCH   8   9
ATOM      9  C   UNL     1      53.301   2.936  18.978  0.00  0.00    +0.000 C 
BRANCH   9  10
ATOM     10  C   UNL     1      54.819   2.677  18.903  0.00  0.00    +0.000 C 
BRANCH  10  11
ATOM     11  N   UNL     1      55.183   1.464  18.125  0.00  0.00    +0.000 NA
ATOM     12  C   UNL     1      54.237   0.369  18.411  0.00  0.00    +0.000 C 
ATOM     13  C   UNL     1      54.623  -0.924  17.685  0.00  0.00    +0.000 C 
ATOM     14  C   UNL     1      54.764  -0.706  16.183  0.00  0.00    +0.000 C 
ATOM     15  C   UNL     1      55.713   0.448  15.914  0.00  0.00    +0.000 C 
ATOM     16  C   UNL     1      55.278   1.703  16.674  0.00  0.00    +0.000 C 
ENDBRANCH  10  11
ENDBRANCH   9  10
ENDBRANCH   8   9
ENDBRANCH   5   8
ENDBRANCH   1   2
BRANCH   1  19
ATOM     17  C   UNL     1      46.854   4.188  14.505  0.00  0.00    +0.000 C 
ATOM     18  O   UNL     1      47.273   3.130  14.044  0.00  0.00    +0.000 OA
ATOM     19  N   UNL     1      46.796   4.405  15.861  0.00  0.00    +0.000 N 
ATOM     20  H   UNL     1      46.422   5.271  16.212  0.00  0.00    +0.000 HD
BRANCH  17  28
ATOM     21  C   UNL     1      44.069   4.638  12.532  0.00  0.00    +0.000 A 
ATOM     22  N   UNL     1      43.068   5.089  11.752  0.00  0.00    +0.000 NA
ATOM     23  C   UNL     1      43.165   6.324  11.259  0.00  0.00    +0.000 A 
ATOM     24  N   UNL     1      44.169   7.179  11.435  0.00  0.00    +0.000 NA
ATOM     25  C   UNL     1      45.145   6.692  12.222  0.00  0.00    +0.000 A 
ATOM     26  S   UNL     1      46.511   7.644  12.553  0.00  0.00    +0.000 S 
ATOM     27  C   UNL     1      47.183   6.429  13.536  0.00  0.00    +0.000 A 
ATOM     28  C   UNL     1      46.392   5.289  13.645  0.00  0.00    +0.000 A 
ATOM     29  C   UNL     1      45.182   5.443  12.834  0.00  0.00    +0.000 A 
BRANCH  21  31
ATOM     30  C   UNL     1      43.448   2.425  12.120  0.00  0.00    +0.000 C 
ATOM     31  O   UNL     1      43.945   3.373  13.062  0.00  0.00    +0.000 OA
ENDBRANCH  21  31
ENDBRANCH  17  28
ENDBRANCH   1  19
TORSDOF 8
ENDMDL
MODEL 7
REMARK VINA RESULT:    -6.540      2.816      4.041
REMARK INTER + INTRA:         -10.938
REMARK INTER:                  -9.983
REMARK INTRA:                  -0.955
REMARK UNBOUND:                -1.340
REMARK  Name = 
REMARK  9 active torsions:
REMARK  status: ('A' for Active; 'I' for Inactive)
REMARK    1  A    between atoms: C_1  and  O_2
REMARK    2  A    between atoms: O_2  and  C_3
REMARK    3  A    between atoms: C_10  and  C_11
REMARK    4  A    between atoms: N_13  and  C_14
REMARK    5  A    between atoms: C_14  and  C_15
REMARK    6  A    between atoms: C_18  and  O_19
REMARK    7  A    between atoms: O_19  and  C_20
REMARK    8  A    between atoms: C_20  and  C_21
REMARK    9  A    between atoms: C_21  and  N_22
REMARK                            x       y       z     vdW  Elec       q    Type
REMARK                         _______ _______ _______ _____ _____    ______ ____
ROOT
ATOM      1  C   UNL     1      49.100   6.684  16.866  0.00  0.00    +0.000 C 
ENDROOT
BRANCH   1   2
ATOM      2  C   UNL     1      48.342   6.141  15.671  0.00  0.00    +0.000 A 
ATOM      3  C   UNL     1      48.452   6.773  14.426  0.00  0.00    +0.000 A 
ATOM      4  C   UNL     1      47.753   6.292  13.311  0.00  0.00    +0.000 A 
ATOM      5  C   UNL     1      46.907   5.183  13.420  0.00  0.00    +0.000 A 
ATOM      6  C   UNL     1      46.777   4.560  14.663  0.00  0.00    +0.000 A 
ATOM      7  C   UNL     1      47.500   5.022  15.773  0.00  0.00    +0.000 A 
BRANCH   5   8
ATOM      8  O   UNL     1      46.153   4.652  12.398  0.00  0.00    +0.000 OA
BRANCH   8   9
ATOM      9  C   UNL     1      45.600   5.639  11.519  0.00  0.00    +0.000 C 
BRANCH   9  10
ATOM     10  C   UNL     1      44.279   5.177  10.871  0.00  0.00    +0.000 C 
BRANCH  10  11
ATOM     11  N   UNL     1      44.465   4.218   9.750  0.00  0.00    +0.000 NA
ATOM     12  C   UNL     1      45.628   4.607   8.931  0.00  0.00    +0.000 C 
ATOM     13  C   UNL     1      45.808   3.687   7.720  0.00  0.00    +0.000 C 
ATOM     14  C   UNL     1      45.900   2.223   8.134  0.00  0.00    +0.000 C 
ATOM     15  C   UNL     1      44.711   1.856   9.005  0.00  0.00    +0.000 C 
ATOM     16  C   UNL     1      44.583   2.817  10.189  0.00  0.00    +0.000 C 
ENDBRANCH  10  11
ENDBRANCH   9  10
ENDBRANCH   8   9
ENDBRANCH   5   8
ENDBRANCH   1   2
BRANCH   1  19
ATOM     17  C   UNL     1      51.384   5.728  17.026  0.00  0.00    +0.000 C 
ATOM     18  O   UNL     1      51.840   6.562  16.249  0.00  0.00    +0.000 OA
ATOM     19  N   UNL     1      50.055   5.730  17.379  0.00  0.00    +0.000 N 
ATOM     20  H   UNL     1      49.712   5.052  18.039  0.00  0.00    +0.000 HD
BRANCH  17  28
ATOM     21  C   UNL     1      51.085   2.304  17.227  0.00  0.00    +0.000 A 
ATOM     22  N   UNL     1      51.244   0.978  17.392  0.00  0.00    +0.000 NA
ATOM     23  C   UNL     1      52.350   0.549  18.001  0.00  0.00    +0.000 A 
ATOM     24  N   UNL     1      53.332   1.298  18.495  0.00  0.00    +0.000 NA
ATOM     25  C   UNL     1      53.137   2.615  18.306  0.00  0.00    +0.000 A 
ATOM     26  S   UNL     1      54.287   3.725  18.877  0.00  0.00    +0.000 S 
ATOM     27  C   UNL     1      53.393   5.041  18.276  0.00  0.00    +0.000 A 
ATOM     28  C   UNL     1      52.218   4.674  17.625  0.00  0.00    +0.000 A 
ATOM     29  C   UNL     1      52.058   3.219  17.669  0.00  0.00    +0.000 A 
BRANCH  21  31
ATOM     30  C   UNL     1      48.752   2.396  17.255  0.00  0.00    +0.000 C 
ATOM     31  O   UNL     1      49.955   2.735  16.569  0.00  0.00    +0.000 OA
ENDBRANCH  21  31
ENDBRANCH  17  28
ENDBRANCH   1  19
TORSDOF 8
ENDMDL
MODEL 8
REMARK VINA RESULT:    -6.346      3.677      8.680
REMARK INTER + INTRA:         -10.653
REMARK INTER:                  -9.558
REMARK INTRA:                  -1.096
REMARK UNBOUND:                -1.340
REMARK  Name = 
REMARK  9 active torsions:
REMARK  status: ('A' for Active; 'I' for Inactive)
REMARK    1  A    between atoms: C_1  and  O_2
REMARK    2  A    between atoms: O_2  and  C_3
REMARK    3  A    between atoms: C_10  and  C_11
REMARK    4  A    between atoms: N_13  and  C_14
REMARK    5  A    between atoms: C_14  and  C_15
REMARK    6  A    between atoms: C_18  and  O_19
REMARK    7  A    between atoms: O_19  and  C_20
REMARK    8  A    between atoms: C_20  and  C_21
REMARK    9  A    between atoms: C_21  and  N_22
REMARK                            x       y       z     vdW  Elec       q    Type
REMARK                         _______ _______ _______ _____ _____    ______ ____
ROOT
ATOM      1  C   UNL     1      47.303   3.454  16.938  0.00  0.00    +0.000 C 
ENDROOT
BRANCH   1   2
ATOM      2  C   UNL     1      48.790   3.322  17.202  0.00  0.00    +0.000 A 
ATOM      3  C   UNL     1      49.450   2.122  16.906  0.00  0.00    +0.000 A 
ATOM      4  C   UNL     1      50.822   1.977  17.151  0.00  0.00    +0.000 A 
ATOM      5  C   UNL     1      51.562   3.018  17.722  0.00  0.00    +0.000 A 
ATOM      6  C   UNL     1      50.906   4.210  18.038  0.00  0.00    +0.000 A 
ATOM      7  C   UNL     1      49.538   4.368  17.765  0.00  0.00    +0.000 A 
BRANCH   5   8
ATOM      8  O   UNL     1      52.902   2.967  18.032  0.00  0.00    +0.000 OA
BRANCH   8   9
ATOM      9  C   UNL     1      53.500   4.258  18.202  0.00  0.00    +0.000 C 
BRANCH   9  10
ATOM     10  C   UNL     1      54.756   4.443  17.327  0.00  0.00    +0.000 C 
BRANCH  10  11
ATOM     11  N   UNL     1      54.766   5.712  16.551  0.00  0.00    +0.000 NA
ATOM     12  C   UNL     1      55.494   5.531  15.282  0.00  0.00    +0.000 C 
ATOM     13  C   UNL     1      55.591   6.837  14.487  0.00  0.00    +0.000 C 
ATOM     14  C   UNL     1      54.218   7.452  14.244  0.00  0.00    +0.000 C 
ATOM     15  C   UNL     1      53.474   7.595  15.560  0.00  0.00    +0.000 C 
ATOM     16  C   UNL     1      53.421   6.260  16.306  0.00  0.00    +0.000 C 
ENDBRANCH  10  11
ENDBRANCH   9  10
ENDBRANCH   8   9
ENDBRANCH   5   8
ENDBRANCH   1   2
BRANCH   1  19
ATOM     17  C   UNL     1      47.038   4.189  14.583  0.00  0.00    +0.000 C 
ATOM     18  O   UNL     1      47.289   3.066  14.153  0.00  0.00    +0.000 OA
ATOM     19  N   UNL     1      47.020   4.451  15.932  0.00  0.00    +0.000 N 
ATOM     20  H   UNL     1      46.784   5.373  16.259  0.00  0.00    +0.000 HD
BRANCH  17  28
ATOM     21  C   UNL     1      44.290   5.072  12.706  0.00  0.00    +0.000 A 
ATOM     22  N   UNL     1      43.353   5.670  11.948  0.00  0.00    +0.000 NA
ATOM     23  C   UNL     1      43.651   6.846  11.394  0.00  0.00    +0.000 A 
ATOM     24  N   UNL     1      44.802   7.506  11.489  0.00  0.00    +0.000 NA
ATOM     25  C   UNL     1      45.709   6.877  12.257  0.00  0.00    +0.000 A 
ATOM     26  S   UNL     1      47.241   7.570  12.487  0.00  0.00    +0.000 S 
ATOM     27  C   UNL     1      47.726   6.291  13.498  0.00  0.00    +0.000 A 
ATOM     28  C   UNL     1      46.745   5.323  13.692  0.00  0.00    +0.000 A 
ATOM     29  C   UNL     1      45.546   5.667  12.925  0.00  0.00    +0.000 A 
BRANCH  21  31
ATOM     30  C   UNL     1      43.614   2.865  12.354  0.00  0.00    +0.000 C 
ATOM     31  O   UNL     1      43.962   3.873  13.300  0.00  0.00    +0.000 OA
ENDBRANCH  21  31
ENDBRANCH  17  28
ENDBRANCH   1  19
TORSDOF 8
ENDMDL
MODEL 9
REMARK VINA RESULT:    -6.241      3.587      5.078
REMARK INTER + INTRA:         -10.499
REMARK INTER:                  -9.579
REMARK INTRA:                  -0.920
REMARK UNBOUND:                -1.340
REMARK  Name = 
REMARK  9 active torsions:
REMARK  status: ('A' for Active; 'I' for Inactive)
REMARK    1  A    between atoms: C_1  and  O_2
REMARK    2  A    between atoms: O_2  and  C_3
REMARK    3  A    between atoms: C_10  and  C_11
REMARK    4  A    between atoms: N_13  and  C_14
REMARK    5  A    between atoms: C_14  and  C_15
REMARK    6  A    between atoms: C_18  and  O_19
REMARK    7  A    between atoms: O_19  and  C_20
REMARK    8  A    between atoms: C_20  and  C_21
REMARK    9  A    between atoms: C_21  and  N_22
REMARK                            x       y       z     vdW  Elec       q    Type
REMARK                         _______ _______ _______ _____ _____    ______ ____
ROOT
ATOM      1  C   UNL     1      48.063   6.732  14.062  0.00  0.00    +0.000 C 
ENDROOT
BRANCH   1   2
ATOM      2  C   UNL     1      46.971   6.164  13.176  0.00  0.00    +0.000 A 
ATOM      3  C   UNL     1      46.816   6.636  11.867  0.00  0.00    +0.000 A 
ATOM      4  C   UNL     1      45.808   6.131  11.035  0.00  0.00    +0.000 A 
ATOM      5  C   UNL     1      44.914   5.161  11.501  0.00  0.00    +0.000 A 
ATOM      6  C   UNL     1      45.051   4.700  12.813  0.00  0.00    +0.000 A 
ATOM      7  C   UNL     1      46.079   5.183  13.636  0.00  0.00    +0.000 A 
BRANCH   5   8
ATOM      8  O   UNL     1      43.872   4.623  10.779  0.00  0.00    +0.000 OA
BRANCH   8   9
ATOM      9  C   UNL     1      44.255   3.510   9.962  0.00  0.00    +0.000 C 
BRANCH   9  10
ATOM     10  C   UNL     1      44.462   3.908   8.487  0.00  0.00    +0.000 C 
BRANCH  10  11
ATOM     11  N   UNL     1      45.297   2.947   7.717  0.00  0.00    +0.000 NA
ATOM     12  C   UNL     1      46.383   3.658   7.018  0.00  0.00    +0.000 C 
ATOM     13  C   UNL     1      47.221   2.711   6.153  0.00  0.00    +0.000 C 
ATOM     14  C   UNL     1      47.770   1.544   6.964  0.00  0.00    +0.000 C 
ATOM     15  C   UNL     1      46.638   0.850   7.703  0.00  0.00    +0.000 C 
ATOM     16  C   UNL     1      45.837   1.851   8.539  0.00  0.00    +0.000 C 
ENDBRANCH  10  11
ENDBRANCH   9  10
ENDBRANCH   8   9
ENDBRANCH   5   8
ENDBRANCH   1   2
BRANCH   1  19
ATOM     17  C   UNL     1      49.891   8.205  13.261  0.00  0.00    +0.000 C 
ATOM     18  O   UNL     1      49.427   9.180  13.845  0.00  0.00    +0.000 OA
ATOM     19  N   UNL     1      49.282   6.975  13.327  0.00  0.00    +0.000 N 
ATOM     20  H   UNL     1      49.698   6.185  12.862  0.00  0.00    +0.000 HD
BRANCH  17  28
ATOM     21  C   UNL     1      53.225   8.530  14.053  0.00  0.00    +0.000 A 
ATOM     22  N   UNL     1      54.570   8.589  14.085  0.00  0.00    +0.000 NA
ATOM     23  C   UNL     1      55.228   8.538  12.926  0.00  0.00    +0.000 A 
ATOM     24  N   UNL     1      54.698   8.452  11.709  0.00  0.00    +0.000 NA
ATOM     25  C   UNL     1      53.355   8.391  11.721  0.00  0.00    +0.000 A 
ATOM     26  S   UNL     1      52.505   8.285  10.256  0.00  0.00    +0.000 S 
ATOM     27  C   UNL     1      51.010   8.234  11.066  0.00  0.00    +0.000 A 
ATOM     28  C   UNL     1      51.119   8.285  12.453  0.00  0.00    +0.000 A 
ATOM     29  C   UNL     1      52.527   8.405  12.839  0.00  0.00    +0.000 A 
BRANCH  21  31
ATOM     30  C   UNL     1      52.376   7.252  15.813  0.00  0.00    +0.000 C 
ATOM     31  O   UNL     1      52.556   8.552  15.256  0.00  0.00    +0.000 OA
ENDBRANCH  21  31
ENDBRANCH  17  28
ENDBRANCH   1  19
TORSDOF 8
ENDMDL
