MODEL 1
REMARK VINA RESULT:    -6.610      0.000      0.000
REMARK INTER + INTRA:          -9.719
REMARK INTER:                  -8.929
REMARK INTRA:                  -0.790
REMARK UNBOUND:                -0.790
REMARK  Name = 
REMARK  6 active torsions:
REMARK  status: ('A' for Active; 'I' for Inactive)
REMARK    1  A    between atoms: C_2  and  C_20
REMARK    2  A    between atoms: N_3  and  C_4
REMARK    3  A    between atoms: C_4  and  C_5
REMARK    4  A    between atoms: C_8  and  C_9
REMARK    5  A    between atoms: C_10  and  C_11
REMARK    6  A    between atoms: C_11  and  N_12
REMARK                            x       y       z     vdW  Elec       q    Type
REMARK                         _______ _______ _______ _____ _____    ______ ____
ROOT
ATOM      1  C   UNL     1      48.968   6.022  17.482  0.00  0.00    +0.000 C 
ENDROOT
BRANCH   1   2
ATOM      2  C   UNL     1      49.861   4.805  17.464  0.00  0.00    +0.000 A 
ATOM      3  C   UNL     1      51.255   4.950  17.476  0.00  0.00    +0.000 A 
ATOM      4  C   UNL     1      52.086   3.826  17.502  0.00  0.00    +0.000 A 
ATOM      5  C   UNL     1      51.541   2.541  17.496  0.00  0.00    +0.000 A 
ATOM      6  C   UNL     1      50.155   2.384  17.442  0.00  0.00    +0.000 A 
ATOM      7  C   UNL     1      49.318   3.511  17.419  0.00  0.00    +0.000 A 
BRANCH   5   8
ATOM      8  C   UNL     1      52.426   1.413  17.523  0.00  0.00    +0.000 C 
ATOM      9  C   UNL     1      53.104   0.428  17.653  0.00  0.00    +0.000 C 
BRANCH   9  10
ATOM     10  C   UNL     1      53.890  -0.794  17.924  0.00  0.00    +0.000 C 
BRANCH  10  11
ATOM     11  N   UNL     1      53.728  -1.226  19.324  0.00  0.00    +0.000 NA
ATOM     12  C   UNL     1      55.014  -1.422  20.027  0.00  0.00    +0.000 C 
ATOM     13  C   UNL     1      55.774  -2.687  19.603  0.00  0.00    +0.000 C 
ATOM     14  O   UNL     1      54.971  -3.861  19.761  0.00  0.00    +0.000 OA
ATOM     15  C   UNL     1      53.733  -3.753  19.049  0.00  0.00    +0.000 C 
ATOM     16  C   UNL     1      52.954  -2.483  19.435  0.00  0.00    +0.000 C 
ENDBRANCH  10  11
ENDBRANCH   9  10
ENDBRANCH   5   8
ENDBRANCH   1   2
BRANCH   1  19
ATOM     17  O   UNL     1      49.707   6.770  14.906  0.00  0.00    +0.000 OA
ATOM     18  C   UNL     1      48.561   6.371  15.094  0.00  0.00    +0.000 C 
ATOM     19  N   UNL     1      48.089   6.052  16.345  0.00  0.00    +0.000 N 
ATOM     20  H   UNL     1      47.236   5.508  16.422  0.00  0.00    +0.000 HD
BRANCH  18  21
ATOM     21  C   UNL     1      47.600   6.252  13.991  0.00  0.00    +0.000 A 
ATOM     22  C   UNL     1      47.258   7.365  13.234  0.00  0.00    +0.000 A 
ATOM     23  S   UNL     1      46.119   7.029  12.008  0.00  0.00    +0.000 S 
ATOM     24  C   UNL     1      46.073   5.379  12.421  0.00  0.00    +0.000 A 
ATOM     25  N   UNL     1      45.299   4.499  11.731  0.00  0.00    +0.000 NA
ATOM     26  C   UNL     1      45.392   3.276  12.135  0.00  0.00    +0.000 A 
ATOM     27  N   UNL     1      46.183   2.853  13.171  0.00  0.00    +0.000 N 
ATOM     28  C   UNL     1      46.948   3.707  13.923  0.00  0.00    +0.000 A 
ATOM     29  O   UNL     1      47.587   3.306  14.885  0.00  0.00    +0.000 OA
ATOM     30  C   UNL     1      46.899   5.093  13.494  0.00  0.00    +0.000 A 
ATOM     31  H   UNL     1      46.195   1.883  13.454  0.00  0.00    +0.000 HD
ENDBRANCH  18  21
ENDBRANCH   1  19
TORSDOF 6
ENDMDL
MODEL 2
REMARK VINA RESULT:    -6.467      8.147      9.426
REMARK INTER + INTRA:          -9.526
REMARK INTER:                  -8.674
REMARK INTRA:                  -0.852
REMARK UNBOUND:                -0.790
REMARK  Name = 
REMARK  6 active torsions:
REMARK  status: ('A' for Active; 'I' for Inactive)
REMARK    1  A    between atoms: C_2  and  C_20
REMARK    2  A    between atoms: N_3  and  C_4
REMARK    3  A    between atoms: C_4  and  C_5
REMARK    4  A    between atoms: C_8  and  C_9
REMARK    5  A    between atoms: C_10  and  C_11
REMARK    6  A    between atoms: C_11  and  N_12
REMARK                            x       y       z     vdW  Elec       q    Type
REMARK                         _______ _______ _______ _____ _____    ______ ____
ROOT
ATOM      1  C   UNL     1      46.417   8.106  13.295  0.00  0.00    +0.000 C 
ENDROOT
BRANCH   1   2
ATOM      2  C   UNL     1      47.759   8.304  12.633  0.00  0.00    +0.000 A 
ATOM      3  C   UNL     1      48.657   7.235  12.518  0.00  0.00    +0.000 A 
ATOM      4  C   UNL     1      49.884   7.403  11.869  0.00  0.00    +0.000 A 
ATOM      5  C   UNL     1      50.243   8.645  11.343  0.00  0.00    +0.000 A 
ATOM      6  C   UNL     1      49.374   9.729  11.488  0.00  0.00    +0.000 A 
ATOM      7  C   UNL     1      48.141   9.561  12.137  0.00  0.00    +0.000 A 
BRANCH   5   8
ATOM      8  C   UNL     1      51.510   8.779  10.684  0.00  0.00    +0.000 C 
ATOM      9  C   UNL     1      52.566   8.762  10.109  0.00  0.00    +0.000 C 
BRANCH   9  10
ATOM     10  C   UNL     1      53.860   8.621   9.411  0.00  0.00    +0.000 C 
BRANCH  10  11
ATOM     11  N   UNL     1      53.973   7.299   8.770  0.00  0.00    +0.000 NA
ATOM     12  C   UNL     1      55.215   7.134   7.984  0.00  0.00    +0.000 C 
ATOM     13  C   UNL     1      55.224   7.906   6.657  0.00  0.00    +0.000 C 
ATOM     14  O   UNL     1      54.103   7.558   5.838  0.00  0.00    +0.000 OA
ATOM     15  C   UNL     1      52.864   7.755   6.529  0.00  0.00    +0.000 C 
ATOM     16  C   UNL     1      52.829   7.011   7.877  0.00  0.00    +0.000 C 
ENDBRANCH  10  11
ENDBRANCH   9  10
ENDBRANCH   5   8
ENDBRANCH   1   2
BRANCH   1  19
ATOM     17  O   UNL     1      44.502   7.590  11.343  0.00  0.00    +0.000 OA
ATOM     18  C   UNL     1      44.970   6.642  11.969  0.00  0.00    +0.000 C 
ATOM     19  N   UNL     1      45.865   6.812  12.999  0.00  0.00    +0.000 N 
ATOM     20  H   UNL     1      46.400   6.011  13.317  0.00  0.00    +0.000 HD
BRANCH  18  21
ATOM     21  C   UNL     1      44.568   5.261  11.683  0.00  0.00    +0.000 A 
ATOM     22  C   UNL     1      43.802   4.549  12.597  0.00  0.00    +0.000 A 
ATOM     23  S   UNL     1      43.445   2.958  12.092  0.00  0.00    +0.000 S 
ATOM     24  C   UNL     1      44.268   3.178  10.620  0.00  0.00    +0.000 A 
ATOM     25  N   UNL     1      44.327   2.189   9.688  0.00  0.00    +0.000 NA
ATOM     26  C   UNL     1      44.957   2.510   8.607  0.00  0.00    +0.000 A 
ATOM     27  N   UNL     1      45.539   3.729   8.375  0.00  0.00    +0.000 N 
ATOM     28  C   UNL     1      45.544   4.743   9.299  0.00  0.00    +0.000 A 
ATOM     29  O   UNL     1      46.134   5.792   9.086  0.00  0.00    +0.000 OA
ATOM     30  C   UNL     1      44.827   4.440  10.525  0.00  0.00    +0.000 A 
ATOM     31  H   UNL     1      46.037   3.911   7.515  0.00  0.00    +0.000 HD
ENDBRANCH  18  21
ENDBRANCH   1  19
TORSDOF 6
ENDMDL
MODEL 3
REMARK VINA RESULT:    -6.402      3.566      9.615
REMARK INTER + INTRA:          -9.438
REMARK INTER:                  -8.867
REMARK INTRA:                  -0.571
REMARK UNBOUND:                -0.790
REMARK  Name = 
REMARK  6 active torsions:
REMARK  status: ('A' for Active; 'I' for Inactive)
REMARK    1  A    between atoms: C_2  and  C_20
REMARK    2  A    between atoms: N_3  and  C_4
REMARK    3  A    between atoms: C_4  and  C_5
REMARK    4  A    between atoms: C_8  and  C_9
REMARK    5  A    between atoms: C_10  and  C_11
REMARK    6  A    between atoms: C_11  and  N_12
REMARK                            x       y       z     vdW  Elec       q    Type
REMARK                         _______ _______ _______ _____ _____    ______ ____
ROOT
ATOM      1  C   UNL     1      49.690   6.610  17.311  0.00  0.00    +0.000 C 
ENDROOT
BRANCH   1   2
ATOM      2  C   UNL     1      48.741   5.961  16.333  0.00  0.00    +0.000 A 
ATOM      3  C   UNL     1      48.588   6.484  15.042  0.00  0.00    +0.000 A 
ATOM      4  C   UNL     1      47.742   5.864  14.119  0.00  0.00    +0.000 A 
ATOM      5  C   UNL     1      47.019   4.724  14.474  0.00  0.00    +0.000 A 
ATOM      6  C   UNL     1      47.132   4.217  15.771  0.00  0.00    +0.000 A 
ATOM      7  C   UNL     1      47.983   4.837  16.699  0.00  0.00    +0.000 A 
BRANCH   5   8
ATOM      8  C   UNL     1      46.162   4.115  13.499  0.00  0.00    +0.000 C 
ATOM      9  C   UNL     1      45.534   3.633  12.593  0.00  0.00    +0.000 C 
BRANCH   9  10
ATOM     10  C   UNL     1      44.839   3.098  11.405  0.00  0.00    +0.000 C 
BRANCH  10  11
ATOM     11  N   UNL     1      44.156   4.173  10.663  0.00  0.00    +0.000 NA
ATOM     12  C   UNL     1      44.102   3.934   9.205  0.00  0.00    +0.000 C 
ATOM     13  C   UNL     1      45.444   4.135   8.486  0.00  0.00    +0.000 C 
ATOM     14  O   UNL     1      45.979   5.440   8.728  0.00  0.00    +0.000 OA
ATOM     15  C   UNL     1      46.112   5.706  10.128  0.00  0.00    +0.000 C 
ATOM     16  C   UNL     1      44.787   5.493  10.884  0.00  0.00    +0.000 C 
ENDBRANCH  10  11
ENDBRANCH   9  10
ENDBRANCH   5   8
ENDBRANCH   1   2
BRANCH   1  19
ATOM     17  O   UNL     1      50.094   5.333  19.750  0.00  0.00    +0.000 OA
ATOM     18  C   UNL     1      50.882   5.109  18.835  0.00  0.00    +0.000 C 
ATOM     19  N   UNL     1      50.801   5.752  17.622  0.00  0.00    +0.000 N 
ATOM     20  H   UNL     1      51.308   5.368  16.831  0.00  0.00    +0.000 HD
BRANCH  18  21
ATOM     21  C   UNL     1      51.995   4.167  18.994  0.00  0.00    +0.000 A 
ATOM     22  C   UNL     1      53.049   4.463  19.849  0.00  0.00    +0.000 A 
ATOM     23  S   UNL     1      54.251   3.252  19.890  0.00  0.00    +0.000 S 
ATOM     24  C   UNL     1      53.387   2.274  18.798  0.00  0.00    +0.000 A 
ATOM     25  N   UNL     1      53.855   1.055  18.417  0.00  0.00    +0.000 NA
ATOM     26  C   UNL     1      53.077   0.412  17.611  0.00  0.00    +0.000 A 
ATOM     27  N   UNL     1      51.876   0.881  17.144  0.00  0.00    +0.000 N 
ATOM     28  C   UNL     1      51.382   2.119  17.466  0.00  0.00    +0.000 A 
ATOM     29  O   UNL     1      50.342   2.533  16.975  0.00  0.00    +0.000 OA
ATOM     30  C   UNL     1      52.208   2.874  18.390  0.00  0.00    +0.000 A 
ATOM     31  H   UNL     1      51.323   0.338  16.497  0.00  0.00    +0.000 HD
ENDBRANCH  18  21
ENDBRANCH   1  19
TORSDOF 6
ENDMDL
MODEL 4
REMARK VINA RESULT:    -6.264      3.788      9.396
REMARK INTER + INTRA:          -9.251
REMARK INTER:                  -8.692
REMARK INTRA:                  -0.559
REMARK UNBOUND:                -0.790
REMARK  Name = 
REMARK  6 active torsions:
REMARK  status: ('A' for Active; 'I' for Inactive)
REMARK    1  A    between atoms: C_2  and  C_20
REMARK    2  A    between atoms: N_3  and  C_4
REMARK    3  A    between atoms: C_4  and  C_5
REMARK    4  A    between atoms: C_8  and  C_9
REMARK    5  A    between atoms: C_10  and  C_11
REMARK    6  A    between atoms: C_11  and  N_12
REMARK                            x       y       z     vdW  Elec       q    Type
REMARK                         _______ _______ _______ _____ _____    ______ ____
ROOT
ATOM      1  C   UNL     1      51.315   7.912  16.238  0.00  0.00    +0.000 C 
ENDROOT
BRANCH   1   2
ATOM      2  C   UNL     1      50.310   7.562  15.169  0.00  0.00    +0.000 A 
ATOM      3  C   UNL     1      49.163   6.823  15.489  0.00  0.00    +0.000 A 
ATOM      4  C   UNL     1      48.208   6.531  14.511  0.00  0.00    +0.000 A 
ATOM      5  C   UNL     1      48.391   6.954  13.193  0.00  0.00    +0.000 A 
ATOM      6  C   UNL     1      49.550   7.656  12.853  0.00  0.00    +0.000 A 
ATOM      7  C   UNL     1      50.508   7.952  13.834  0.00  0.00    +0.000 A 
BRANCH   5   8
ATOM      8  C   UNL     1      47.389   6.637  12.218  0.00  0.00    +0.000 C 
ATOM      9  C   UNL     1      46.506   6.280  11.483  0.00  0.00    +0.000 C 
BRANCH   9  10
ATOM     10  C   UNL     1      45.407   5.746  10.653  0.00  0.00    +0.000 C 
BRANCH  10  11
ATOM     11  N   UNL     1      44.131   5.761  11.392  0.00  0.00    +0.000 NA
ATOM     12  C   UNL     1      44.300   5.599  12.852  0.00  0.00    +0.000 C 
ATOM     13  C   UNL     1      44.667   4.173  13.287  0.00  0.00    +0.000 C 
ATOM     14  O   UNL     1      43.710   3.218  12.818  0.00  0.00    +0.000 OA
ATOM     15  C   UNL     1      43.549   3.287  11.397  0.00  0.00    +0.000 C 
ATOM     16  C   UNL     1      43.201   4.710  10.923  0.00  0.00    +0.000 C 
ENDBRANCH  10  11
ENDBRANCH   9  10
ENDBRANCH   5   8
ENDBRANCH   1   2
BRANCH   1  19
ATOM     17  O   UNL     1      50.876   6.502  18.596  0.00  0.00    +0.000 OA
ATOM     18  C   UNL     1      51.727   6.086  17.815  0.00  0.00    +0.000 C 
ATOM     19  N   UNL     1      52.061   6.759  16.664  0.00  0.00    +0.000 N 
ATOM     20  H   UNL     1      52.580   6.268  15.944  0.00  0.00    +0.000 HD
BRANCH  18  21
ATOM     21  C   UNL     1      52.480   4.856  18.085  0.00  0.00    +0.000 A 
ATOM     22  C   UNL     1      53.757   4.919  18.628  0.00  0.00    +0.000 A 
ATOM     23  S   UNL     1      54.474   3.388  18.858  0.00  0.00    +0.000 S 
ATOM     24  C   UNL     1      53.091   2.587  18.278  0.00  0.00    +0.000 A 
ATOM     25  N   UNL     1      53.027   1.229  18.231  0.00  0.00    +0.000 NA
ATOM     26  C   UNL     1      51.903   0.761  17.799  0.00  0.00    +0.000 A 
ATOM     27  N   UNL     1      50.838   1.528  17.403  0.00  0.00    +0.000 N 
ATOM     28  C   UNL     1      50.868   2.900  17.393  0.00  0.00    +0.000 A 
ATOM     29  O   UNL     1      49.926   3.551  16.967  0.00  0.00    +0.000 OA
ATOM     30  C   UNL     1      52.103   3.476  17.893  0.00  0.00    +0.000 A 
ATOM     31  H   UNL     1      49.992   1.102  17.054  0.00  0.00    +0.000 HD
ENDBRANCH  18  21
ENDBRANCH   1  19
TORSDOF 6
ENDMDL
MODEL 5
REMARK VINA RESULT:    -5.858      4.337      5.929
REMARK INTER + INTRA:          -8.703
REMARK INTER:                  -8.097
REMARK INTRA:                  -0.606
REMARK UNBOUND:                -0.790
REMARK  Name = 
REMARK  6 active torsions:
REMARK  status: ('A' for Active; 'I' for Inactive)
REMARK    1  A    between atoms: C_2  and  C_20
REMARK    2  A    between atoms: N_3  and  C_4
REMARK    3  A    between atoms: C_4  and  C_5
REMARK    4  A    between atoms: C_8  and  C_9
REMARK    5  A    between atoms: C_10  and  C_11
REMARK    6  A    between atoms: C_11  and  N_12
REMARK                            x       y       z     vdW  Elec       q    Type
REMARK                         _______ _______ _______ _____ _____    ______ ____
ROOT
ATOM      1  C   UNL     1      47.236   3.377  16.605  0.00  0.00    +0.000 C 
ENDROOT
BRANCH   1   2
ATOM      2  C   UNL     1      48.508   3.800  17.300  0.00  0.00    +0.000 A 
ATOM      3  C   UNL     1      48.527   4.946  18.105  0.00  0.00    +0.000 A 
ATOM      4  C   UNL     1      49.691   5.320  18.783  0.00  0.00    +0.000 A 
ATOM      5  C   UNL     1      50.860   4.567  18.653  0.00  0.00    +0.000 A 
ATOM      6  C   UNL     1      50.864   3.446  17.820  0.00  0.00    +0.000 A 
ATOM      7  C   UNL     1      49.696   3.068  17.141  0.00  0.00    +0.000 A 
BRANCH   5   8
ATOM      8  C   UNL     1      52.033   4.982  19.365  0.00  0.00    +0.000 C 
ATOM      9  C   UNL     1      52.987   5.451  19.928  0.00  0.00    +0.000 C 
BRANCH   9  10
ATOM     10  C   UNL     1      54.136   6.131  20.560  0.00  0.00    +0.000 C 
BRANCH  10  11
ATOM     11  N   UNL     1      54.769   7.078  19.625  0.00  0.00    +0.000 NA
ATOM     12  C   UNL     1      55.747   7.977  20.275  0.00  0.00    +0.000 C 
ATOM     13  C   UNL     1      55.111   9.076  21.139  0.00  0.00    +0.000 C 
ATOM     14  O   UNL     1      54.181   9.862  20.387  0.00  0.00    +0.000 OA
ATOM     15  C   UNL     1      53.171   9.049  19.781  0.00  0.00    +0.000 C 
ATOM     16  C   UNL     1      53.775   7.921  18.924  0.00  0.00    +0.000 C 
ENDBRANCH  10  11
ENDBRANCH   9  10
ENDBRANCH   5   8
ENDBRANCH   1   2
BRANCH   1  19
ATOM     17  O   UNL     1      47.171   3.173  13.831  0.00  0.00    +0.000 OA
ATOM     18  C   UNL     1      46.698   4.178  14.356  0.00  0.00    +0.000 C 
ATOM     19  N   UNL     1      46.754   4.395  15.713  0.00  0.00    +0.000 N 
ATOM     20  H   UNL     1      46.151   5.101  16.120  0.00  0.00    +0.000 HD
BRANCH  18  21
ATOM     21  C   UNL     1      46.077   5.240  13.557  0.00  0.00    +0.000 A 
ATOM     22  C   UNL     1      46.720   6.461  13.391  0.00  0.00    +0.000 A 
ATOM     23  S   UNL     1      45.836   7.570  12.441  0.00  0.00    +0.000 S 
ATOM     24  C   UNL     1      44.584   6.446  12.188  0.00  0.00    +0.000 A 
ATOM     25  N   UNL     1      43.503   6.753  11.421  0.00  0.00    +0.000 NA
ATOM     26  C   UNL     1      42.650   5.791  11.291  0.00  0.00    +0.000 A 
ATOM     27  N   UNL     1      42.776   4.552  11.864  0.00  0.00    +0.000 N 
ATOM     28  C   UNL     1      43.826   4.209  12.678  0.00  0.00    +0.000 A 
ATOM     29  O   UNL     1      43.870   3.119  13.229  0.00  0.00    +0.000 OA
ATOM     30  C   UNL     1      44.826   5.249  12.838  0.00  0.00    +0.000 A 
ATOM     31  H   UNL     1      42.063   3.848  11.742  0.00  0.00    +0.000 HD
ENDBRANCH  18  21
ENDBRANCH   1  19
TORSDOF 6
ENDMDL
MODEL 6
REMARK VINA RESULT:    -5.200      4.952      9.690
REMARK INTER + INTRA:          -7.814
REMARK INTER:                  -6.837
REMARK INTRA:                  -0.977
REMARK UNBOUND:                -0.790
REMARK  Name = 
REMARK  6 active torsions:
REMARK  status: ('A' for Active; 'I' for Inactive)
REMARK    1  A    between atoms: C_2  and  C_20
REMARK    2  A    between atoms: N_3  and  C_4
REMARK    3  A    between atoms: C_4  and  C_5
REMARK    4  A    between atoms: C_8  and  C_9
REMARK    5  A    between atoms: C_10  and  C_11
REMARK    6  A    between atoms: C_11  and  N_12
REMARK                            x       y       z     vdW  Elec       q    Type
REMARK                         _______ _______ _______ _____ _____    ______ ____
ROOT
ATOM      1  C   UNL     1      50.009   4.751  20.070  0.00  0.00    +0.000 C 
ENDROOT
BRANCH   1   2
ATOM      2  C   UNL     1      49.227   4.658  18.782  0.00  0.00    +0.000 A 
ATOM      3  C   UNL     1      49.111   5.773  17.943  0.00  0.00    +0.000 A 
ATOM      4  C   UNL     1      48.422   5.682  16.729  0.00  0.00    +0.000 A 
ATOM      5  C   UNL     1      47.822   4.482  16.344  0.00  0.00    +0.000 A 
ATOM      6  C   UNL     1      47.895   3.375  17.192  0.00  0.00    +0.000 A 
ATOM      7  C   UNL     1      48.588   3.464  18.409  0.00  0.00    +0.000 A 
BRANCH   5   8
ATOM      8  C   UNL     1      47.125   4.427  15.092  0.00  0.00    +0.000 C 
ATOM      9  C   UNL     1      46.544   4.251  14.053  0.00  0.00    +0.000 C 
BRANCH   9  10
ATOM     10  C   UNL     1      45.863   3.918  12.785  0.00  0.00    +0.000 C 
BRANCH  10  11
ATOM     11  N   UNL     1      45.362   5.134  12.120  0.00  0.00    +0.000 NA
ATOM     12  C   UNL     1      44.339   5.852  12.909  0.00  0.00    +0.000 C 
ATOM     13  C   UNL     1      42.967   5.162  12.936  0.00  0.00    +0.000 C 
ATOM     14  O   UNL     1      42.466   4.938  11.614  0.00  0.00    +0.000 OA
ATOM     15  C   UNL     1      43.393   4.191  10.818  0.00  0.00    +0.000 C 
ATOM     16  C   UNL     1      44.786   4.845  10.787  0.00  0.00    +0.000 C 
ENDBRANCH  10  11
ENDBRANCH   9  10
ENDBRANCH   5   8
ENDBRANCH   1   2
BRANCH   1  19
ATOM     17  O   UNL     1      52.444   3.662  19.280  0.00  0.00    +0.000 OA
ATOM     18  C   UNL     1      52.370   4.877  19.439  0.00  0.00    +0.000 C 
ATOM     19  N   UNL     1      51.229   5.491  19.898  0.00  0.00    +0.000 N 
ATOM     20  H   UNL     1      51.134   6.494  19.784  0.00  0.00    +0.000 HD
BRANCH  18  21
ATOM     21  C   UNL     1      53.519   5.755  19.188  0.00  0.00    +0.000 A 
ATOM     22  C   UNL     1      54.453   5.992  20.189  0.00  0.00    +0.000 A 
ATOM     23  S   UNL     1      55.707   7.046  19.711  0.00  0.00    +0.000 S 
ATOM     24  C   UNL     1      55.069   7.191  18.141  0.00  0.00    +0.000 A 
ATOM     25  N   UNL     1      55.686   7.945  17.193  0.00  0.00    +0.000 NA
ATOM     26  C   UNL     1      55.105   7.934  16.039  0.00  0.00    +0.000 A 
ATOM     27  N   UNL     1      53.958   7.243  15.749  0.00  0.00    +0.000 N 
ATOM     28  C   UNL     1      53.275   6.503  16.681  0.00  0.00    +0.000 A 
ATOM     29  O   UNL     1      52.217   5.957  16.406  0.00  0.00    +0.000 OA
ATOM     30  C   UNL     1      53.901   6.463  17.990  0.00  0.00    +0.000 A 
ATOM     31  H   UNL     1      53.539   7.293  14.831  0.00  0.00    +0.000 HD
ENDBRANCH  18  21
ENDBRANCH   1  19
TORSDOF 6
ENDMDL
MODEL 7
REMARK VINA RESULT:    -5.149      4.606      6.375
REMARK INTER + INTRA:          -7.745
REMARK INTER:                  -6.907
REMARK INTRA:                  -0.838
REMARK UNBOUND:                -0.790
REMARK  Name = 
REMARK  6 active torsions:
REMARK  status: ('A' for Active; 'I' for Inactive)
REMARK    1  A    between atoms: C_2  and  C_20
REMARK    2  A    between atoms: N_3  and  C_4
REMARK    3  A    between atoms: C_4  and  C_5
REMARK    4  A    between atoms: C_8  and  C_9
REMARK    5  A    between atoms: C_10  and  C_11
REMARK    6  A    between atoms: C_11  and  N_12
REMARK                            x       y       z     vdW  Elec       q    Type
REMARK                         _______ _______ _______ _____ _____    ______ ____
ROOT
ATOM      1  C   UNL     1      47.342   3.499  16.568  0.00  0.00    +0.000 C 
ENDROOT
BRANCH   1   2
ATOM      2  C   UNL     1      48.437   4.252  17.284  0.00  0.00    +0.000 A 
ATOM      3  C   UNL     1      48.289   5.616  17.568  0.00  0.00    +0.000 A 
ATOM      4  C   UNL     1      49.281   6.309  18.268  0.00  0.00    +0.000 A 
ATOM      5  C   UNL     1      50.446   5.657  18.678  0.00  0.00    +0.000 A 
ATOM      6  C   UNL     1      50.623   4.308  18.364  0.00  0.00    +0.000 A 
ATOM      7  C   UNL     1      49.626   3.610  17.664  0.00  0.00    +0.000 A 
BRANCH   5   8
ATOM      8  C   UNL     1      51.441   6.401  19.394  0.00  0.00    +0.000 C 
ATOM      9  C   UNL     1      52.187   7.121  20.004  0.00  0.00    +0.000 C 
BRANCH   9  10
ATOM     10  C   UNL     1      53.026   8.095  20.731  0.00  0.00    +0.000 C 
BRANCH  10  11
ATOM     11  N   UNL     1      54.456   7.764  20.597  0.00  0.00    +0.000 NA
ATOM     12  C   UNL     1      55.352   8.874  20.988  0.00  0.00    +0.000 C 
ATOM     13  C   UNL     1      55.404  10.025  19.973  0.00  0.00    +0.000 C 
ATOM     14  O   UNL     1      55.775   9.561  18.670  0.00  0.00    +0.000 OA
ATOM     15  C   UNL     1      54.903   8.522  18.212  0.00  0.00    +0.000 C 
ATOM     16  C   UNL     1      54.809   7.360  19.218  0.00  0.00    +0.000 C 
ENDBRANCH  10  11
ENDBRANCH   9  10
ENDBRANCH   5   8
ENDBRANCH   1   2
BRANCH   1  19
ATOM     17  O   UNL     1      47.563   3.279  13.803  0.00  0.00    +0.000 OA
ATOM     18  C   UNL     1      46.779   4.105  14.264  0.00  0.00    +0.000 C 
ATOM     19  N   UNL     1      46.661   4.332  15.615  0.00  0.00    +0.000 N 
ATOM     20  H   UNL     1      45.848   4.834  15.956  0.00  0.00    +0.000 HD
BRANCH  18  21
ATOM     21  C   UNL     1      45.945   4.940  13.392  0.00  0.00    +0.000 A 
ATOM     22  C   UNL     1      44.818   4.407  12.779  0.00  0.00    +0.000 A 
ATOM     23  S   UNL     1      43.986   5.528  11.797  0.00  0.00    +0.000 S 
ATOM     24  C   UNL     1      45.079   6.772  12.188  0.00  0.00    +0.000 A 
ATOM     25  N   UNL     1      44.926   8.029  11.692  0.00  0.00    +0.000 NA
ATOM     26  C   UNL     1      45.811   8.876  12.101  0.00  0.00    +0.000 A 
ATOM     27  N   UNL     1      46.841   8.578  12.955  0.00  0.00    +0.000 N 
ATOM     28  C   UNL     1      47.061   7.317  13.449  0.00  0.00    +0.000 A 
ATOM     29  O   UNL     1      48.030   7.072  14.152  0.00  0.00    +0.000 OA
ATOM     30  C   UNL     1      46.078   6.332  13.038  0.00  0.00    +0.000 A 
ATOM     31  H   UNL     1      47.515   9.282  13.221  0.00  0.00    +0.000 HD
ENDBRANCH  18  21
ENDBRANCH   1  19
TORSDOF 6
ENDMDL
MODEL 8
REMARK VINA RESULT:    -5.122      6.662      9.776
REMARK INTER + INTRA:          -7.709
REMARK INTER:                  -7.215
REMARK INTRA:                  -0.494
REMARK UNBOUND:                -0.790
REMARK  Name = 
REMARK  6 active torsions:
REMARK  status: ('A' for Active; 'I' for Inactive)
REMARK    1  A    between atoms: C_2  and  C_20
REMARK    2  A    between atoms: N_3  and  C_4
REMARK    3  A    between atoms: C_4  and  C_5
REMARK    4  A    between atoms: C_8  and  C_9
REMARK    5  A    between atoms: C_10  and  C_11
REMARK    6  A    between atoms: C_11  and  N_12
REMARK                            x       y       z     vdW  Elec       q    Type
REMARK                         _______ _______ _______ _____ _____    ______ ____
ROOT
ATOM      1  C   UNL     1      48.321   9.885  14.249  0.00  0.00    +0.000 C 
ENDROOT
BRANCH   1   2
ATOM      2  C   UNL     1      47.610   8.689  13.666  0.00  0.00    +0.000 A 
ATOM      3  C   UNL     1      48.238   7.437  13.636  0.00  0.00    +0.000 A 
ATOM      4  C   UNL     1      47.568   6.316  13.135  0.00  0.00    +0.000 A 
ATOM      5  C   UNL     1      46.268   6.431  12.639  0.00  0.00    +0.000 A 
ATOM      6  C   UNL     1      45.647   7.682  12.625  0.00  0.00    +0.000 A 
ATOM      7  C   UNL     1      46.317   8.807  13.130  0.00  0.00    +0.000 A 
BRANCH   5   8
ATOM      8  C   UNL     1      45.613   5.259  12.134  0.00  0.00    +0.000 C 
ATOM      9  C   UNL     1      45.172   4.211  11.742  0.00  0.00    +0.000 C 
BRANCH   9  10
ATOM     10  C   UNL     1      44.743   2.879  11.268  0.00  0.00    +0.000 C 
BRANCH  10  11
ATOM     11  N   UNL     1      44.040   2.980   9.976  0.00  0.00    +0.000 NA
ATOM     12  C   UNL     1      44.339   1.859   9.059  0.00  0.00    +0.000 C 
ATOM     13  C   UNL     1      45.740   1.917   8.432  0.00  0.00    +0.000 C 
ATOM     14  O   UNL     1      45.957   3.154   7.746  0.00  0.00    +0.000 OA
ATOM     15  C   UNL     1      45.741   4.279   8.604  0.00  0.00    +0.000 C 
ATOM     16  C   UNL     1      44.352   4.241   9.267  0.00  0.00    +0.000 C 
ENDBRANCH  10  11
ENDBRANCH   9  10
ENDBRANCH   5   8
ENDBRANCH   1   2
BRANCH   1  19
ATOM     17  O   UNL     1      50.769   9.530  15.523  0.00  0.00    +0.000 OA
ATOM     18  C   UNL     1      49.761   9.651  16.214  0.00  0.00    +0.000 C 
ATOM     19  N   UNL     1      48.504   9.756  15.668  0.00  0.00    +0.000 N 
ATOM     20  H   UNL     1      47.745  10.091  16.252  0.00  0.00    +0.000 HD
BRANCH  18  21
ATOM     21  C   UNL     1      49.831   9.645  17.679  0.00  0.00    +0.000 A 
ATOM     22  C   UNL     1      50.375  10.728  18.360  0.00  0.00    +0.000 A 
ATOM     23  S   UNL     1      50.379  10.531  20.055  0.00  0.00    +0.000 S 
ATOM     24  C   UNL     1      49.621   9.012  19.941  0.00  0.00    +0.000 A 
ATOM     25  N   UNL     1      49.304   8.294  21.051  0.00  0.00    +0.000 NA
ATOM     26  C   UNL     1      48.703   7.177  20.812  0.00  0.00    +0.000 A 
ATOM     27  N   UNL     1      48.395   6.708  19.561  0.00  0.00    +0.000 N 
ATOM     28  C   UNL     1      48.731   7.374  18.410  0.00  0.00    +0.000 A 
ATOM     29  O   UNL     1      48.504   6.893  17.309  0.00  0.00    +0.000 OA
ATOM     30  C   UNL     1      49.388   8.650  18.626  0.00  0.00    +0.000 A 
ATOM     31  H   UNL     1      47.942   5.814  19.438  0.00  0.00    +0.000 HD
ENDBRANCH  18  21
ENDBRANCH   1  19
TORSDOF 6
ENDMDL
MODEL 9
REMARK VINA RESULT:    -5.033      9.744     11.057
REMARK INTER + INTRA:          -7.589
REMARK INTER:                  -6.735
REMARK INTRA:                  -0.854
REMARK UNBOUND:                -0.790
REMARK  Name = 
REMARK  6 active torsions:
REMARK  status: ('A' for Active; 'I' for Inactive)
REMARK    1  A    between atoms: C_2  and  C_20
REMARK    2  A    between atoms: N_3  and  C_4
REMARK    3  A    between atoms: C_4  and  C_5
REMARK    4  A    between atoms: C_8  and  C_9
REMARK    5  A    between atoms: C_10  and  C_11
REMARK    6  A    between atoms: C_11  and  N_12
REMARK                            x       y       z     vdW  Elec       q    Type
REMARK                         _______ _______ _______ _____ _____    ______ ____
ROOT
ATOM      1  C   UNL     1      39.480  -1.903  15.234  0.00  0.00    +0.000 C 
ENDROOT
BRANCH   1   2
ATOM      2  C   UNL     1      40.497  -2.949  15.623  0.00  0.00    +0.000 A 
ATOM      3  C   UNL     1      41.177  -2.855  16.844  0.00  0.00    +0.000 A 
ATOM      4  C   UNL     1      42.089  -3.842  17.228  0.00  0.00    +0.000 A 
ATOM      5  C   UNL     1      42.353  -4.927  16.391  0.00  0.00    +0.000 A 
ATOM      6  C   UNL     1      41.713  -5.010  15.153  0.00  0.00    +0.000 A 
ATOM      7  C   UNL     1      40.794  -4.021  14.767  0.00  0.00    +0.000 A 
BRANCH   5   8
ATOM      8  C   UNL     1      43.295  -5.920  16.819  0.00  0.00    +0.000 C 
ATOM      9  C   UNL     1      44.163  -6.711  17.082  0.00  0.00    +0.000 C 
BRANCH   9  10
ATOM     10  C   UNL     1      45.278  -7.655  17.299  0.00  0.00    +0.000 C 
BRANCH  10  11
ATOM     11  N   UNL     1      46.182  -7.170  18.358  0.00  0.00    +0.000 NA
ATOM     12  C   UNL     1      46.887  -5.921  17.999  0.00  0.00    +0.000 C 
ATOM     13  C   UNL     1      48.009  -6.108  16.967  0.00  0.00    +0.000 C 
ATOM     14  O   UNL     1      48.967  -7.077  17.404  0.00  0.00    +0.000 OA
ATOM     15  C   UNL     1      48.348  -8.331  17.709  0.00  0.00    +0.000 C 
ATOM     16  C   UNL     1      47.202  -8.177  18.726  0.00  0.00    +0.000 C 
ENDBRANCH  10  11
ENDBRANCH   9  10
ENDBRANCH   5   8
ENDBRANCH   1   2
BRANCH   1  19
ATOM     17  O   UNL     1      37.435  -1.661  17.105  0.00  0.00    +0.000 OA
ATOM     18  C   UNL     1      38.368  -0.864  17.151  0.00  0.00    +0.000 C 
ATOM     19  N   UNL     1      39.382  -0.864  16.222  0.00  0.00    +0.000 N 
ATOM     20  H   UNL     1      40.237  -0.362  16.433  0.00  0.00    +0.000 HD
BRANCH  18  21
ATOM     21  C   UNL     1      38.437   0.176  18.183  0.00  0.00    +0.000 A 
ATOM     22  C   UNL     1      38.738  -0.158  19.498  0.00  0.00    +0.000 A 
ATOM     23  S   UNL     1      38.761   1.184  20.551  0.00  0.00    +0.000 S 
ATOM     24  C   UNL     1      38.408   2.261  19.283  0.00  0.00    +0.000 A 
ATOM     25  N   UNL     1      38.310   3.600  19.499  0.00  0.00    +0.000 NA
ATOM     26  C   UNL     1      38.071   4.297  18.438  0.00  0.00    +0.000 A 
ATOM     27  N   UNL     1      37.914   3.775  17.180  0.00  0.00    +0.000 N 
ATOM     28  C   UNL     1      37.962   2.429  16.918  0.00  0.00    +0.000 A 
ATOM     29  O   UNL     1      37.747   1.993  15.797  0.00  0.00    +0.000 OA
ATOM     30  C   UNL     1      38.253   1.603  18.076  0.00  0.00    +0.000 A 
ATOM     31  H   UNL     1      37.706   4.372  16.392  0.00  0.00    +0.000 HD
ENDBRANCH  18  21
ENDBRANCH   1  19
TORSDOF 6
ENDMDL
