MODEL 1
REMARK VINA RESULT:    -7.599      0.000      0.000
REMARK INTER + INTRA:         -11.273
REMARK INTER:                 -10.264
REMARK INTRA:                  -1.009
REMARK UNBOUND:                -1.009
REMARK  Name = 
REMARK  7 active torsions:
REMARK  status: ('A' for Active; 'I' for Inactive)
REMARK    1  A    between atoms: C_1  and  C_2
REMARK    2  A    between atoms: C_2  and  O_3
REMARK    3  A    between atoms: O_3  and  C_4
REMARK    4  A    between atoms: C_6  and  C_7
REMARK    5  A    between atoms: N_12  and  C_13
REMARK    6  A    between atoms: C_13  and  C_14
REMARK    7  A    between atoms: C_18  and  C_19
REMARK                            x       y       z     vdW  Elec       q    Type
REMARK                         _______ _______ _______ _____ _____    ______ ____
ROOT
ATOM      1  C   UNL     1      45.097   3.542   8.458  0.00  0.00    +0.000 A 
ATOM      2  C   UNL     1      44.449   2.777   9.384  0.00  0.00    +0.000 A 
ATOM      3  C   UNL     1      44.304   3.386  10.602  0.00  0.00    +0.000 A 
ATOM      4  N   UNL     1      44.789   4.613  10.915  0.00  0.00    +0.000 NA
ATOM      5  C   UNL     1      45.450   5.249   9.946  0.00  0.00    +0.000 A 
ATOM      6  N   UNL     1      46.076   6.438  10.209  0.00  0.00    +0.000 N 
ATOM      7  N   UNL     1      45.602   4.765   8.711  0.00  0.00    +0.000 NA
ATOM      8  H   UNL     1      46.385   6.916   9.373  0.00  0.00    +0.000 HD
ENDROOT
BRANCH   3   9
ATOM      9  C   UNL     1      43.565   2.687  11.699  0.00  0.00    +0.000 C 
ATOM     10  N   UNL     1      43.807   3.164  12.960  0.00  0.00    +0.000 N 
ATOM     11  O   UNL     1      42.797   1.763  11.489  0.00  0.00    +0.000 OA
ATOM     12  H   UNL     1      44.474   3.914  13.095  0.00  0.00    +0.000 HD
ATOM     13  H   UNL     1      43.364   2.722  13.751  0.00  0.00    +0.000 HD
ENDBRANCH   3   9
BRANCH   1  14
ATOM     14  O   UNL     1      45.281   2.976   7.210  0.00  0.00    +0.000 OA
BRANCH  14  16
ATOM     15  C   UNL     1      47.368   1.847   6.906  0.00  0.00    +0.000 C 
ATOM     16  C   UNL     1      46.612   3.151   6.720  0.00  0.00    +0.000 C 
ENDBRANCH  14  16
ENDBRANCH   1  14
BRANCH   6  17
ATOM     17  C   UNL     1      45.798   7.209  11.394  0.00  0.00    +0.000 C 
BRANCH  17  18
ATOM     18  C   UNL     1      46.968   7.162  12.346  0.00  0.00    +0.000 A 
ATOM     19  C   UNL     1      48.063   8.016  12.172  0.00  0.00    +0.000 A 
ATOM     20  C   UNL     1      49.129   7.979  13.067  0.00  0.00    +0.000 A 
ATOM     21  C   UNL     1      49.101   7.104  14.155  0.00  0.00    +0.000 A 
ATOM     22  C   UNL     1      48.005   6.252  14.384  0.00  0.00    +0.000 A 
ATOM     23  C   UNL     1      46.953   6.289  13.448  0.00  0.00    +0.000 A 
BRANCH  22  24
ATOM     24  C   UNL     1      47.930   5.398  15.587  0.00  0.00    +0.000 A 
ATOM     25  C   UNL     1      48.705   5.629  16.733  0.00  0.00    +0.000 A 
ATOM     26  C   UNL     1      48.645   4.755  17.820  0.00  0.00    +0.000 A 
ATOM     27  C   UNL     1      47.794   3.668  17.745  0.00  0.00    +0.000 A 
ATOM     28  N   UNL     1      47.015   3.406  16.679  0.00  0.00    +0.000 NA
ATOM     29  C   UNL     1      47.108   4.268  15.636  0.00  0.00    +0.000 A 
ENDBRANCH  22  24
ENDBRANCH  17  18
ENDBRANCH   6  17
TORSDOF 6
ENDMDL
MODEL 2
REMARK VINA RESULT:    -7.206      2.565      7.107
REMARK INTER + INTRA:         -10.742
REMARK INTER:                 -10.340
REMARK INTRA:                  -0.402
REMARK UNBOUND:                -1.009
REMARK  Name = 
REMARK  7 active torsions:
REMARK  status: ('A' for Active; 'I' for Inactive)
REMARK    1  A    between atoms: C_1  and  C_2
REMARK    2  A    between atoms: C_2  and  O_3
REMARK    3  A    between atoms: O_3  and  C_4
REMARK    4  A    between atoms: C_6  and  C_7
REMARK    5  A    between atoms: N_12  and  C_13
REMARK    6  A    between atoms: C_13  and  C_14
REMARK    7  A    between atoms: C_18  and  C_19
REMARK                            x       y       z     vdW  Elec       q    Type
REMARK                         _______ _______ _______ _____ _____    ______ ____
ROOT
ATOM      1  C   UNL     1      48.316   7.122  12.040  0.00  0.00    +0.000 A 
ATOM      2  C   UNL     1      48.378   6.375  13.181  0.00  0.00    +0.000 A 
ATOM      3  C   UNL     1      47.189   5.790  13.525  0.00  0.00    +0.000 A 
ATOM      4  N   UNL     1      46.023   5.954  12.851  0.00  0.00    +0.000 NA
ATOM      5  C   UNL     1      46.070   6.746  11.779  0.00  0.00    +0.000 A 
ATOM      6  N   UNL     1      44.918   7.064  11.110  0.00  0.00    +0.000 N 
ATOM      7  N   UNL     1      47.188   7.322  11.330  0.00  0.00    +0.000 NA
ATOM      8  H   UNL     1      45.088   7.513  10.220  0.00  0.00    +0.000 HD
ENDROOT
BRANCH   3   9
ATOM      9  C   UNL     1      47.119   4.898  14.723  0.00  0.00    +0.000 C 
ATOM     10  N   UNL     1      47.520   5.473  15.901  0.00  0.00    +0.000 N 
ATOM     11  O   UNL     1      46.728   3.744  14.663  0.00  0.00    +0.000 OA
ATOM     12  H   UNL     1      47.866   6.425  15.904  0.00  0.00    +0.000 HD
ATOM     13  H   UNL     1      47.525   4.921  16.746  0.00  0.00    +0.000 HD
ENDBRANCH   3   9
BRANCH   1  14
ATOM     14  O   UNL     1      49.485   7.745  11.647  0.00  0.00    +0.000 OA
BRANCH  14  16
ATOM     15  C   UNL     1      50.907   9.497  12.439  0.00  0.00    +0.000 C 
ATOM     16  C   UNL     1      49.505   9.135  11.980  0.00  0.00    +0.000 C 
ENDBRANCH  14  16
ENDBRANCH   1  14
BRANCH   6  17
ATOM     17  C   UNL     1      43.690   6.336  11.303  0.00  0.00    +0.000 C 
BRANCH  17  18
ATOM     18  C   UNL     1      43.880   4.875  10.976  0.00  0.00    +0.000 A 
ATOM     19  C   UNL     1      43.204   3.888  11.702  0.00  0.00    +0.000 A 
ATOM     20  C   UNL     1      43.371   2.543  11.380  0.00  0.00    +0.000 A 
ATOM     21  C   UNL     1      44.198   2.175  10.316  0.00  0.00    +0.000 A 
ATOM     22  C   UNL     1      44.869   3.137   9.542  0.00  0.00    +0.000 A 
ATOM     23  C   UNL     1      44.707   4.487   9.906  0.00  0.00    +0.000 A 
BRANCH  22  24
ATOM     24  C   UNL     1      45.664   2.754   8.356  0.00  0.00    +0.000 A 
ATOM     25  C   UNL     1      46.245   1.487   8.207  0.00  0.00    +0.000 A 
ATOM     26  C   UNL     1      47.042   1.196   7.098  0.00  0.00    +0.000 A 
ATOM     27  C   UNL     1      47.231   2.181   6.146  0.00  0.00    +0.000 A 
ATOM     28  N   UNL     1      46.687   3.409   6.229  0.00  0.00    +0.000 NA
ATOM     29  C   UNL     1      45.928   3.661   7.325  0.00  0.00    +0.000 A 
ENDBRANCH  22  24
ENDBRANCH  17  18
ENDBRANCH   6  17
TORSDOF 6
ENDMDL
MODEL 3
REMARK VINA RESULT:    -7.163      1.213      1.447
REMARK INTER + INTRA:         -10.685
REMARK INTER:                  -9.759
REMARK INTRA:                  -0.926
REMARK UNBOUND:                -1.009
REMARK  Name = 
REMARK  7 active torsions:
REMARK  status: ('A' for Active; 'I' for Inactive)
REMARK    1  A    between atoms: C_1  and  C_2
REMARK    2  A    between atoms: C_2  and  O_3
REMARK    3  A    between atoms: O_3  and  C_4
REMARK    4  A    between atoms: C_6  and  C_7
REMARK    5  A    between atoms: N_12  and  C_13
REMARK    6  A    between atoms: C_13  and  C_14
REMARK    7  A    between atoms: C_18  and  C_19
REMARK                            x       y       z     vdW  Elec       q    Type
REMARK                         _______ _______ _______ _____ _____    ______ ____
ROOT
ATOM      1  C   UNL     1      45.254   4.350   8.956  0.00  0.00    +0.000 A 
ATOM      2  C   UNL     1      44.586   3.492   9.782  0.00  0.00    +0.000 A 
ATOM      3  C   UNL     1      44.497   3.926  11.077  0.00  0.00    +0.000 A 
ATOM      4  N   UNL     1      45.052   5.071  11.549  0.00  0.00    +0.000 NA
ATOM      5  C   UNL     1      45.725   5.806  10.663  0.00  0.00    +0.000 A 
ATOM      6  N   UNL     1      46.417   6.914  11.075  0.00  0.00    +0.000 N 
ATOM      7  N   UNL     1      45.827   5.498   9.367  0.00  0.00    +0.000 NA
ATOM      8  H   UNL     1      46.734   7.491  10.307  0.00  0.00    +0.000 HD
ENDROOT
BRANCH   3   9
ATOM      9  C   UNL     1      43.745   3.114  12.083  0.00  0.00    +0.000 C 
ATOM     10  N   UNL     1      43.322   1.887  11.642  0.00  0.00    +0.000 N 
ATOM     11  O   UNL     1      43.528   3.507  13.217  0.00  0.00    +0.000 OA
ATOM     12  H   UNL     1      43.497   1.610  10.683  0.00  0.00    +0.000 HD
ATOM     13  H   UNL     1      42.785   1.297  12.258  0.00  0.00    +0.000 HD
ENDBRANCH   3   9
BRANCH   1  14
ATOM     14  O   UNL     1      45.384   3.960   7.636  0.00  0.00    +0.000 OA
BRANCH  14  16
ATOM     15  C   UNL     1      46.712   2.892   5.958  0.00  0.00    +0.000 C 
ATOM     16  C   UNL     1      46.727   3.609   7.298  0.00  0.00    +0.000 C 
ENDBRANCH  14  16
ENDBRANCH   1  14
BRANCH   6  17
ATOM     17  C   UNL     1      46.203   7.519  12.365  0.00  0.00    +0.000 C 
BRANCH  17  18
ATOM     18  C   UNL     1      47.406   7.316  13.254  0.00  0.00    +0.000 A 
ATOM     19  C   UNL     1      48.537   8.130  13.119  0.00  0.00    +0.000 A 
ATOM     20  C   UNL     1      49.633   7.948  13.957  0.00  0.00    +0.000 A 
ATOM     21  C   UNL     1      49.602   6.967  14.950  0.00  0.00    +0.000 A 
ATOM     22  C   UNL     1      48.473   6.150  15.139  0.00  0.00    +0.000 A 
ATOM     23  C   UNL     1      47.389   6.335  14.260  0.00  0.00    +0.000 A 
BRANCH  22  24
ATOM     24  C   UNL     1      48.401   5.180  16.251  0.00  0.00    +0.000 A 
ATOM     25  C   UNL     1      47.456   4.144  16.297  0.00  0.00    +0.000 A 
ATOM     26  C   UNL     1      47.387   3.293  17.401  0.00  0.00    +0.000 A 
ATOM     27  C   UNL     1      48.279   3.488  18.440  0.00  0.00    +0.000 A 
ATOM     28  N   UNL     1      49.216   4.454  18.444  0.00  0.00    +0.000 NA
ATOM     29  C   UNL     1      49.247   5.270  17.361  0.00  0.00    +0.000 A 
ENDBRANCH  22  24
ENDBRANCH  17  18
ENDBRANCH   6  17
TORSDOF 6
ENDMDL
MODEL 4
REMARK VINA RESULT:    -6.977      3.297      7.877
REMARK INTER + INTRA:         -10.434
REMARK INTER:                  -9.609
REMARK INTRA:                  -0.824
REMARK UNBOUND:                -1.009
REMARK  Name = 
REMARK  7 active torsions:
REMARK  status: ('A' for Active; 'I' for Inactive)
REMARK    1  A    between atoms: C_1  and  C_2
REMARK    2  A    between atoms: C_2  and  O_3
REMARK    3  A    between atoms: O_3  and  C_4
REMARK    4  A    between atoms: C_6  and  C_7
REMARK    5  A    between atoms: N_12  and  C_13
REMARK    6  A    between atoms: C_13  and  C_14
REMARK    7  A    between atoms: C_18  and  C_19
REMARK                            x       y       z     vdW  Elec       q    Type
REMARK                         _______ _______ _______ _____ _____    ______ ____
ROOT
ATOM      1  C   UNL     1      48.794   6.605  17.999  0.00  0.00    +0.000 A 
ATOM      2  C   UNL     1      48.309   5.333  17.905  0.00  0.00    +0.000 A 
ATOM      3  C   UNL     1      48.124   4.904  16.618  0.00  0.00    +0.000 A 
ATOM      4  N   UNL     1      48.342   5.660  15.512  0.00  0.00    +0.000 NA
ATOM      5  C   UNL     1      48.768   6.905  15.726  0.00  0.00    +0.000 A 
ATOM      6  N   UNL     1      48.900   7.775  14.677  0.00  0.00    +0.000 N 
ATOM      7  N   UNL     1      49.028   7.403  16.939  0.00  0.00    +0.000 NA
ATOM      8  H   UNL     1      49.397   8.621  14.924  0.00  0.00    +0.000 HD
ENDROOT
BRANCH   3   9
ATOM      9  C   UNL     1      47.647   3.510  16.361  0.00  0.00    +0.000 C 
ATOM     10  N   UNL     1      46.992   2.916  17.407  0.00  0.00    +0.000 N 
ATOM     11  O   UNL     1      47.821   2.941  15.295  0.00  0.00    +0.000 OA
ATOM     12  H   UNL     1      46.894   3.412  18.285  0.00  0.00    +0.000 HD
ATOM     13  H   UNL     1      46.667   1.966  17.314  0.00  0.00    +0.000 HD
ENDBRANCH   3   9
BRANCH   1  14
ATOM     14  O   UNL     1      48.992   7.097  19.276  0.00  0.00    +0.000 OA
BRANCH  14  16
ATOM     15  C   UNL     1      47.564   7.887  21.024  0.00  0.00    +0.000 C 
ATOM     16  C   UNL     1      48.070   8.135  19.613  0.00  0.00    +0.000 C 
ENDBRANCH  14  16
ENDBRANCH   1  14
BRANCH   6  17
ATOM     17  C   UNL     1      48.909   7.332  13.307  0.00  0.00    +0.000 C 
BRANCH  17  18
ATOM     18  C   UNL     1      47.508   7.304  12.747  0.00  0.00    +0.000 A 
ATOM     19  C   UNL     1      46.641   8.386  12.940  0.00  0.00    +0.000 A 
ATOM     20  C   UNL     1      45.357   8.359  12.403  0.00  0.00    +0.000 A 
ATOM     21  C   UNL     1      44.935   7.261  11.650  0.00  0.00    +0.000 A 
ATOM     22  C   UNL     1      45.786   6.169  11.405  0.00  0.00    +0.000 A 
ATOM     23  C   UNL     1      47.069   6.207  11.983  0.00  0.00    +0.000 A 
BRANCH  22  24
ATOM     24  C   UNL     1      45.376   5.053  10.527  0.00  0.00    +0.000 A 
ATOM     25  C   UNL     1      45.669   5.017   9.156  0.00  0.00    +0.000 A 
ATOM     26  C   UNL     1      45.203   3.972   8.356  0.00  0.00    +0.000 A 
ATOM     27  C   UNL     1      44.459   2.969   8.950  0.00  0.00    +0.000 A 
ATOM     28  N   UNL     1      44.160   2.944  10.262  0.00  0.00    +0.000 NA
ATOM     29  C   UNL     1      44.618   3.980  11.007  0.00  0.00    +0.000 A 
ENDBRANCH  22  24
ENDBRANCH  17  18
ENDBRANCH   6  17
TORSDOF 6
ENDMDL
MODEL 5
REMARK VINA RESULT:    -6.869      3.450      7.255
REMARK INTER + INTRA:         -10.287
REMARK INTER:                  -9.533
REMARK INTRA:                  -0.754
REMARK UNBOUND:                -1.009
REMARK  Name = 
REMARK  7 active torsions:
REMARK  status: ('A' for Active; 'I' for Inactive)
REMARK    1  A    between atoms: C_1  and  C_2
REMARK    2  A    between atoms: C_2  and  O_3
REMARK    3  A    between atoms: O_3  and  C_4
REMARK    4  A    between atoms: C_6  and  C_7
REMARK    5  A    between atoms: N_12  and  C_13
REMARK    6  A    between atoms: C_13  and  C_14
REMARK    7  A    between atoms: C_18  and  C_19
REMARK                            x       y       z     vdW  Elec       q    Type
REMARK                         _______ _______ _______ _____ _____    ______ ____
ROOT
ATOM      1  C   UNL     1      49.379   7.832  12.619  0.00  0.00    +0.000 A 
ATOM      2  C   UNL     1      48.526   8.843  12.280  0.00  0.00    +0.000 A 
ATOM      3  C   UNL     1      47.207   8.557  12.512  0.00  0.00    +0.000 A 
ATOM      4  N   UNL     1      46.745   7.372  12.986  0.00  0.00    +0.000 NA
ATOM      5  C   UNL     1      47.665   6.439  13.235  0.00  0.00    +0.000 A 
ATOM      6  N   UNL     1      47.280   5.177  13.601  0.00  0.00    +0.000 N 
ATOM      7  N   UNL     1      48.978   6.635  13.091  0.00  0.00    +0.000 NA
ATOM      8  H   UNL     1      48.048   4.611  13.939  0.00  0.00    +0.000 HD
ENDROOT
BRANCH   3   9
ATOM      9  C   UNL     1      46.163   9.592  12.238  0.00  0.00    +0.000 C 
ATOM     10  N   UNL     1      44.988   9.430  12.925  0.00  0.00    +0.000 N 
ATOM     11  O   UNL     1      46.343  10.519  11.466  0.00  0.00    +0.000 OA
ATOM     12  H   UNL     1      44.868   8.630  13.534  0.00  0.00    +0.000 HD
ATOM     13  H   UNL     1      44.229  10.076  12.768  0.00  0.00    +0.000 HD
ENDBRANCH   3   9
BRANCH   1  14
ATOM     14  O   UNL     1      50.724   8.060  12.398  0.00  0.00    +0.000 OA
BRANCH  14  16
ATOM     15  C   UNL     1      52.062   8.949  10.627  0.00  0.00    +0.000 C 
ATOM     16  C   UNL     1      51.100   7.846  11.036  0.00  0.00    +0.000 C 
ENDBRANCH  14  16
ENDBRANCH   1  14
BRANCH   6  17
ATOM     17  C   UNL     1      45.942   4.878  14.043  0.00  0.00    +0.000 C 
BRANCH  17  18
ATOM     18  C   UNL     1      45.034   4.634  12.863  0.00  0.00    +0.000 A 
ATOM     19  C   UNL     1      43.674   4.961  12.931  0.00  0.00    +0.000 A 
ATOM     20  C   UNL     1      42.848   4.751  11.830  0.00  0.00    +0.000 A 
ATOM     21  C   UNL     1      43.376   4.232  10.646  0.00  0.00    +0.000 A 
ATOM     22  C   UNL     1      44.742   3.920  10.527  0.00  0.00    +0.000 A 
ATOM     23  C   UNL     1      45.551   4.116  11.663  0.00  0.00    +0.000 A 
BRANCH  22  24
ATOM     24  C   UNL     1      45.320   3.465   9.245  0.00  0.00    +0.000 A 
ATOM     25  C   UNL     1      45.548   2.113   8.951  0.00  0.00    +0.000 A 
ATOM     26  C   UNL     1      46.157   1.739   7.752  0.00  0.00    +0.000 A 
ATOM     27  C   UNL     1      46.515   2.731   6.858  0.00  0.00    +0.000 A 
ATOM     28  N   UNL     1      46.307   4.042   7.079  0.00  0.00    +0.000 NA
ATOM     29  C   UNL     1      45.725   4.371   8.259  0.00  0.00    +0.000 A 
ENDBRANCH  22  24
ENDBRANCH  17  18
ENDBRANCH   6  17
TORSDOF 6
ENDMDL
MODEL 6
REMARK VINA RESULT:    -6.625      2.933      4.928
REMARK INTER + INTRA:          -9.957
REMARK INTER:                  -8.999
REMARK INTRA:                  -0.958
REMARK UNBOUND:                -1.009
REMARK  Name = 
REMARK  7 active torsions:
REMARK  status: ('A' for Active; 'I' for Inactive)
REMARK    1  A    between atoms: C_1  and  C_2
REMARK    2  A    between atoms: C_2  and  O_3
REMARK    3  A    between atoms: O_3  and  C_4
REMARK    4  A    between atoms: C_6  and  C_7
REMARK    5  A    between atoms: N_12  and  C_13
REMARK    6  A    between atoms: C_13  and  C_14
REMARK    7  A    between atoms: C_18  and  C_19
REMARK                            x       y       z     vdW  Elec       q    Type
REMARK                         _______ _______ _______ _____ _____    ______ ____
ROOT
ATOM      1  C   UNL     1      44.707   4.055  11.565  0.00  0.00    +0.000 A 
ATOM      2  C   UNL     1      45.560   3.576  12.518  0.00  0.00    +0.000 A 
ATOM      3  C   UNL     1      46.105   4.548  13.313  0.00  0.00    +0.000 A 
ATOM      4  N   UNL     1      45.884   5.879  13.169  0.00  0.00    +0.000 NA
ATOM      5  C   UNL     1      45.073   6.236  12.172  0.00  0.00    +0.000 A 
ATOM      6  N   UNL     1      44.888   7.560  11.879  0.00  0.00    +0.000 N 
ATOM      7  N   UNL     1      44.451   5.364  11.373  0.00  0.00    +0.000 NA
ATOM      8  H   UNL     1      44.124   7.721  11.236  0.00  0.00    +0.000 HD
ENDROOT
BRANCH   3   9
ATOM      9  C   UNL     1      47.016   4.165  14.435  0.00  0.00    +0.000 C 
ATOM     10  N   UNL     1      47.243   5.147  15.363  0.00  0.00    +0.000 N 
ATOM     11  O   UNL     1      47.518   3.056  14.525  0.00  0.00    +0.000 OA
ATOM     12  H   UNL     1      46.831   6.063  15.236  0.00  0.00    +0.000 HD
ATOM     13  H   UNL     1      47.870   4.967  16.133  0.00  0.00    +0.000 HD
ENDBRANCH   3   9
BRANCH   1  14
ATOM     14  O   UNL     1      44.132   3.121  10.725  0.00  0.00    +0.000 OA
BRANCH  14  16
ATOM     15  C   UNL     1      45.219   2.021   8.900  0.00  0.00    +0.000 C 
ATOM     16  C   UNL     1      44.527   3.292   9.362  0.00  0.00    +0.000 C 
ENDBRANCH  14  16
ENDBRANCH   1  14
BRANCH   6  17
ATOM     17  C   UNL     1      45.272   8.611  12.787  0.00  0.00    +0.000 C 
BRANCH  17  18
ATOM     18  C   UNL     1      46.331   9.490  12.167  0.00  0.00    +0.000 A 
ATOM     19  C   UNL     1      45.984  10.697  11.550  0.00  0.00    +0.000 A 
ATOM     20  C   UNL     1      46.970  11.510  10.999  0.00  0.00    +0.000 A 
ATOM     21  C   UNL     1      48.313  11.136  11.077  0.00  0.00    +0.000 A 
ATOM     22  C   UNL     1      48.707   9.947  11.717  0.00  0.00    +0.000 A 
ATOM     23  C   UNL     1      47.688   9.128  12.241  0.00  0.00    +0.000 A 
BRANCH  22  24
ATOM     24  C   UNL     1      50.133   9.598  11.888  0.00  0.00    +0.000 A 
ATOM     25  C   UNL     1      51.107   9.885  10.921  0.00  0.00    +0.000 A 
ATOM     26  C   UNL     1      52.430   9.477  11.101  0.00  0.00    +0.000 A 
ATOM     27  C   UNL     1      52.757   8.798  12.260  0.00  0.00    +0.000 A 
ATOM     28  N   UNL     1      51.869   8.509  13.229  0.00  0.00    +0.000 NA
ATOM     29  C   UNL     1      50.590   8.909  13.015  0.00  0.00    +0.000 A 
ENDBRANCH  22  24
ENDBRANCH  17  18
ENDBRANCH   6  17
TORSDOF 6
ENDMDL
MODEL 7
REMARK VINA RESULT:    -6.606      3.146      5.318
REMARK INTER + INTRA:          -9.932
REMARK INTER:                  -9.251
REMARK INTRA:                  -0.681
REMARK UNBOUND:                -1.009
REMARK  Name = 
REMARK  7 active torsions:
REMARK  status: ('A' for Active; 'I' for Inactive)
REMARK    1  A    between atoms: C_1  and  C_2
REMARK    2  A    between atoms: C_2  and  O_3
REMARK    3  A    between atoms: O_3  and  C_4
REMARK    4  A    between atoms: C_6  and  C_7
REMARK    5  A    between atoms: N_12  and  C_13
REMARK    6  A    between atoms: C_13  and  C_14
REMARK    7  A    between atoms: C_18  and  C_19
REMARK                            x       y       z     vdW  Elec       q    Type
REMARK                         _______ _______ _______ _____ _____    ______ ____
ROOT
ATOM      1  C   UNL     1      45.319   6.558  11.981  0.00  0.00    +0.000 A 
ATOM      2  C   UNL     1      44.631   5.537  11.391  0.00  0.00    +0.000 A 
ATOM      3  C   UNL     1      44.700   4.353  12.074  0.00  0.00    +0.000 A 
ATOM      4  N   UNL     1      45.417   4.157  13.209  0.00  0.00    +0.000 NA
ATOM      5  C   UNL     1      46.092   5.211  13.668  0.00  0.00    +0.000 A 
ATOM      6  N   UNL     1      46.936   5.073  14.738  0.00  0.00    +0.000 N 
ATOM      7  N   UNL     1      46.050   6.422  13.105  0.00  0.00    +0.000 NA
ATOM      8  H   UNL     1      47.250   5.959  15.111  0.00  0.00    +0.000 HD
ENDROOT
BRANCH   3   9
ATOM      9  C   UNL     1      43.949   3.161  11.573  0.00  0.00    +0.000 C 
ATOM     10  N   UNL     1      43.611   2.240  12.530  0.00  0.00    +0.000 N 
ATOM     11  O   UNL     1      43.649   3.018  10.399  0.00  0.00    +0.000 OA
ATOM     12  H   UNL     1      43.904   2.382  13.489  0.00  0.00    +0.000 HD
ATOM     13  H   UNL     1      43.128   1.398  12.259  0.00  0.00    +0.000 HD
ENDBRANCH   3   9
BRANCH   1  14
ATOM     14  O   UNL     1      45.294   7.777  11.331  0.00  0.00    +0.000 OA
BRANCH  14  16
ATOM     15  C   UNL     1      44.868  10.003  12.094  0.00  0.00    +0.000 C 
ATOM     16  C   UNL     1      45.837   8.834  12.124  0.00  0.00    +0.000 C 
ENDBRANCH  14  16
ENDBRANCH   1  14
BRANCH   6  17
ATOM     17  C   UNL     1      46.900   3.922  15.602  0.00  0.00    +0.000 C 
BRANCH  17  18
ATOM     18  C   UNL     1      47.850   4.097  16.762  0.00  0.00    +0.000 A 
ATOM     19  C   UNL     1      47.479   4.853  17.880  0.00  0.00    +0.000 A 
ATOM     20  C   UNL     1      48.355   4.993  18.953  0.00  0.00    +0.000 A 
ATOM     21  C   UNL     1      49.600   4.360  18.929  0.00  0.00    +0.000 A 
ATOM     22  C   UNL     1      49.997   3.565  17.839  0.00  0.00    +0.000 A 
ATOM     23  C   UNL     1      49.105   3.464  16.754  0.00  0.00    +0.000 A 
BRANCH  22  24
ATOM     24  C   UNL     1      51.271   2.816  17.855  0.00  0.00    +0.000 A 
ATOM     25  C   UNL     1      51.379   1.489  17.414  0.00  0.00    +0.000 A 
ATOM     26  C   UNL     1      52.591   0.804  17.511  0.00  0.00    +0.000 A 
ATOM     27  C   UNL     1      53.684   1.469  18.037  0.00  0.00    +0.000 A 
ATOM     28  N   UNL     1      53.643   2.746  18.461  0.00  0.00    +0.000 NA
ATOM     29  C   UNL     1      52.447   3.378  18.364  0.00  0.00    +0.000 A 
ENDBRANCH  22  24
ENDBRANCH  17  18
ENDBRANCH   6  17
TORSDOF 6
ENDMDL
MODEL 8
REMARK VINA RESULT:    -6.586      2.676      4.373
REMARK INTER + INTRA:          -9.905
REMARK INTER:                  -9.124
REMARK INTRA:                  -0.780
REMARK UNBOUND:                -1.009
REMARK  Name = 
REMARK  7 active torsions:
REMARK  status: ('A' for Active; 'I' for Inactive)
REMARK    1  A    between atoms: C_1  and  C_2
REMARK    2  A    between atoms: C_2  and  O_3
REMARK    3  A    between atoms: O_3  and  C_4
REMARK    4  A    between atoms: C_6  and  C_7
REMARK    5  A    between atoms: N_12  and  C_13
REMARK    6  A    between atoms: C_13  and  C_14
REMARK    7  A    between atoms: C_18  and  C_19
REMARK                            x       y       z     vdW  Elec       q    Type
REMARK                         _______ _______ _______ _____ _____    ______ ____
ROOT
ATOM      1  C   UNL     1      45.197   4.361   8.983  0.00  0.00    +0.000 A 
ATOM      2  C   UNL     1      44.522   3.514   9.814  0.00  0.00    +0.000 A 
ATOM      3  C   UNL     1      44.485   3.929  11.118  0.00  0.00    +0.000 A 
ATOM      4  N   UNL     1      45.093   5.046  11.591  0.00  0.00    +0.000 NA
ATOM      5  C   UNL     1      45.766   5.772  10.698  0.00  0.00    +0.000 A 
ATOM      6  N   UNL     1      46.508   6.848  11.108  0.00  0.00    +0.000 N 
ATOM      7  N   UNL     1      45.821   5.482   9.396  0.00  0.00    +0.000 NA
ATOM      8  H   UNL     1      46.823   7.427  10.341  0.00  0.00    +0.000 HD
ENDROOT
BRANCH   3   9
ATOM      9  C   UNL     1      43.734   3.126  12.132  0.00  0.00    +0.000 C 
ATOM     10  N   UNL     1      43.320   1.891  11.706  0.00  0.00    +0.000 N 
ATOM     11  O   UNL     1      43.510   3.534  13.260  0.00  0.00    +0.000 OA
ATOM     12  H   UNL     1      43.500   1.601  10.752  0.00  0.00    +0.000 HD
ATOM     13  H   UNL     1      42.783   1.306  12.329  0.00  0.00    +0.000 HD
ENDBRANCH   3   9
BRANCH   1  14
ATOM     14  O   UNL     1      45.276   3.990   7.654  0.00  0.00    +0.000 OA
BRANCH  14  16
ATOM     15  C   UNL     1      46.731   2.997   6.037  0.00  0.00    +0.000 C 
ATOM     16  C   UNL     1      46.167   2.893   7.443  0.00  0.00    +0.000 C 
ENDBRANCH  14  16
ENDBRANCH   1  14
BRANCH   6  17
ATOM     17  C   UNL     1      46.352   7.438  12.413  0.00  0.00    +0.000 C 
BRANCH  17  18
ATOM     18  C   UNL     1      47.655   8.033  12.887  0.00  0.00    +0.000 A 
ATOM     19  C   UNL     1      47.748   8.630  14.150  0.00  0.00    +0.000 A 
ATOM     20  C   UNL     1      48.960   9.158  14.587  0.00  0.00    +0.000 A 
ATOM     21  C   UNL     1      50.094   9.077  13.775  0.00  0.00    +0.000 A 
ATOM     22  C   UNL     1      50.050   8.458  12.513  0.00  0.00    +0.000 A 
ATOM     23  C   UNL     1      48.806   7.957  12.083  0.00  0.00    +0.000 A 
BRANCH  22  24
ATOM     24  C   UNL     1      51.269   8.284  11.697  0.00  0.00    +0.000 A 
ATOM     25  C   UNL     1      51.325   7.428  10.587  0.00  0.00    +0.000 A 
ATOM     26  C   UNL     1      52.520   7.248   9.887  0.00  0.00    +0.000 A 
ATOM     27  C   UNL     1      53.639   7.945  10.305  0.00  0.00    +0.000 A 
ATOM     28  N   UNL     1      53.640   8.791  11.352  0.00  0.00    +0.000 NA
ATOM     29  C   UNL     1      52.466   8.932  12.017  0.00  0.00    +0.000 A 
ENDBRANCH  22  24
ENDBRANCH  17  18
ENDBRANCH   6  17
TORSDOF 6
ENDMDL
MODEL 9
REMARK VINA RESULT:    -6.497      4.077      8.387
REMARK INTER + INTRA:          -9.784
REMARK INTER:                  -9.015
REMARK INTRA:                  -0.770
REMARK UNBOUND:                -1.009
REMARK  Name = 
REMARK  7 active torsions:
REMARK  status: ('A' for Active; 'I' for Inactive)
REMARK    1  A    between atoms: C_1  and  C_2
REMARK    2  A    between atoms: C_2  and  O_3
REMARK    3  A    between atoms: O_3  and  C_4
REMARK    4  A    between atoms: C_6  and  C_7
REMARK    5  A    between atoms: N_12  and  C_13
REMARK    6  A    between atoms: C_13  and  C_14
REMARK    7  A    between atoms: C_18  and  C_19
REMARK                            x       y       z     vdW  Elec       q    Type
REMARK                         _______ _______ _______ _____ _____    ______ ____
ROOT
ATOM      1  C   UNL     1      48.072   4.763  18.607  0.00  0.00    +0.000 A 
ATOM      2  C   UNL     1      49.151   3.929  18.666  0.00  0.00    +0.000 A 
ATOM      3  C   UNL     1      49.398   3.259  17.498  0.00  0.00    +0.000 A 
ATOM      4  N   UNL     1      48.636   3.349  16.379  0.00  0.00    +0.000 NA
ATOM      5  C   UNL     1      47.577   4.156  16.453  0.00  0.00    +0.000 A 
ATOM      6  N   UNL     1      46.687   4.216  15.414  0.00  0.00    +0.000 N 
ATOM      7  N   UNL     1      47.278   4.892  17.526  0.00  0.00    +0.000 NA
ATOM      8  H   UNL     1      46.033   4.983  15.496  0.00  0.00    +0.000 HD
ENDROOT
BRANCH   3   9
ATOM      9  C   UNL     1      50.582   2.351  17.399  0.00  0.00    +0.000 C 
ATOM     10  N   UNL     1      51.651   2.700  18.182  0.00  0.00    +0.000 N 
ATOM     11  O   UNL     1      50.596   1.364  16.681  0.00  0.00    +0.000 OA
ATOM     12  H   UNL     1      51.610   3.543  18.742  0.00  0.00    +0.000 HD
ATOM     13  H   UNL     1      52.494   2.147  18.145  0.00  0.00    +0.000 HD
ENDBRANCH   3   9
BRANCH   1  14
ATOM     14  O   UNL     1      47.767   5.461  19.761  0.00  0.00    +0.000 OA
BRANCH  14  16
ATOM     15  C   UNL     1      48.709   7.651  19.943  0.00  0.00    +0.000 C 
ATOM     16  C   UNL     1      48.887   6.181  20.279  0.00  0.00    +0.000 C 
ENDBRANCH  14  16
ENDBRANCH   1  14
BRANCH   6  17
ATOM     17  C   UNL     1      46.993   3.694  14.107  0.00  0.00    +0.000 C 
BRANCH  17  18
ATOM     18  C   UNL     1      46.192   4.409  13.046  0.00  0.00    +0.000 A 
ATOM     19  C   UNL     1      45.316   3.701  12.216  0.00  0.00    +0.000 A 
ATOM     20  C   UNL     1      44.567   4.373  11.254  0.00  0.00    +0.000 A 
ATOM     21  C   UNL     1      44.670   5.760  11.127  0.00  0.00    +0.000 A 
ATOM     22  C   UNL     1      45.515   6.512  11.963  0.00  0.00    +0.000 A 
ATOM     23  C   UNL     1      46.283   5.806  12.909  0.00  0.00    +0.000 A 
BRANCH  22  24
ATOM     24  C   UNL     1      45.551   7.988  11.896  0.00  0.00    +0.000 A 
ATOM     25  C   UNL     1      44.493   8.752  11.383  0.00  0.00    +0.000 A 
ATOM     26  C   UNL     1      44.602  10.140  11.281  0.00  0.00    +0.000 A 
ATOM     27  C   UNL     1      45.771  10.742  11.712  0.00  0.00    +0.000 A 
ATOM     28  N   UNL     1      46.811  10.062  12.228  0.00  0.00    +0.000 NA
ATOM     29  C   UNL     1      46.676   8.714  12.300  0.00  0.00    +0.000 A 
ENDBRANCH  22  24
ENDBRANCH  17  18
ENDBRANCH   6  17
TORSDOF 6
ENDMDL
