MODEL 1
REMARK VINA RESULT:    -8.603      0.000      0.000
REMARK INTER + INTRA:         -12.993
REMARK INTER:                 -12.123
REMARK INTRA:                  -0.870
REMARK UNBOUND:                -0.870
REMARK  Name = 
REMARK  8 active torsions:
REMARK  status: ('A' for Active; 'I' for Inactive)
REMARK    1  A    between atoms: C_1  and  C_2
REMARK    2  A    between atoms: C_5  and  O_6
REMARK    3  A    between atoms: O_6  and  C_7
REMARK    4  A    between atoms: C_11  and  C_12
REMARK    5  A    between atoms: C_12  and  C_13
REMARK    6  A    between atoms: C_13  and  N_14
REMARK    7  A    between atoms: N_14  and  C_15
REMARK    8  A    between atoms: C_18  and  C_19
REMARK                            x       y       z     vdW  Elec       q    Type
REMARK                         _______ _______ _______ _____ _____    ______ ____
ROOT
ATOM      1  C   UNL     1      43.478   5.612  12.226  0.00  0.00    +0.000 C 
ENDROOT
BRANCH   1   6
ATOM      2  C   UNL     1      47.051   5.193  13.510  0.00  0.00    +0.000 A 
ATOM      3  C   UNL     1      47.733   6.140  12.750  0.00  0.00    +0.000 A 
ATOM      4  C   UNL     1      47.032   6.935  11.840  0.00  0.00    +0.000 A 
ATOM      5  C   UNL     1      45.652   6.783  11.686  0.00  0.00    +0.000 A 
ATOM      6  C   UNL     1      44.955   5.840  12.453  0.00  0.00    +0.000 A 
ATOM      7  C   UNL     1      45.667   5.055  13.372  0.00  0.00    +0.000 A 
BRANCH   2   8
ATOM      8  O   UNL     1      47.642   4.365  14.433  0.00  0.00    +0.000 OA
BRANCH   8  13
ATOM      9  C   UNL     1      47.282   2.846  17.649  0.00  0.00    +0.000 C 
ATOM     10  C   UNL     1      48.213   3.703  16.812  0.00  0.00    +0.000 C 
ATOM     11  N   UNL     1      48.751   4.845  17.587  0.00  0.00    +0.000 NA
ATOM     12  C   UNL     1      48.623   5.699  16.390  0.00  0.00    +0.000 C 
ATOM     13  C   UNL     1      47.557   4.722  15.834  0.00  0.00    +0.000 C 
ATOM     14  H   UNL     1      49.707   4.720  17.920  0.00  0.00    +0.000 HD
ENDBRANCH   8  13
ENDBRANCH   2   8
ENDBRANCH   1   6
BRANCH   1  15
ATOM     15  C   UNL     1      43.263   4.433  11.272  0.00  0.00    +0.000 C 
BRANCH  15  16
ATOM     16  N   UNL     1      43.663   4.760   9.905  0.00  0.00    +0.000 N 
ATOM     17  H   UNL     1      42.906   5.039   9.286  0.00  0.00    +0.000 HD
BRANCH  16  18
ATOM     18  C   UNL     1      44.635   3.981   9.267  0.00  0.00    +0.000 A 
ATOM     19  C   UNL     1      45.580   4.503   8.373  0.00  0.00    +0.000 A 
ATOM     20  C   UNL     1      46.457   3.670   7.670  0.00  0.00    +0.000 A 
ATOM     21  C   UNL     1      46.396   2.285   7.830  0.00  0.00    +0.000 A 
ATOM     22  C   UNL     1      45.448   1.741   8.700  0.00  0.00    +0.000 A 
ATOM     23  C   UNL     1      44.577   2.586   9.405  0.00  0.00    +0.000 A 
BRANCH  21  24
ATOM     24  C   UNL     1      47.318   1.447   7.017  0.00  0.00    +0.000 C 
ATOM     25  N   UNL     1      48.396   2.064   6.445  0.00  0.00    +0.000 N 
ATOM     26  O   UNL     1      47.111   0.256   6.832  0.00  0.00    +0.000 OA
ATOM     27  H   UNL     1      48.477   3.067   6.371  0.00  0.00    +0.000 HD
ATOM     28  H   UNL     1      48.946   1.497   5.812  0.00  0.00    +0.000 HD
ENDBRANCH  21  24
ENDBRANCH  16  18
ENDBRANCH  15  16
ENDBRANCH   1  15
TORSDOF 7
ENDMDL
MODEL 2
REMARK VINA RESULT:    -7.569      2.433      3.031
REMARK INTER + INTRA:         -11.536
REMARK INTER:                 -10.683
REMARK INTRA:                  -0.853
REMARK UNBOUND:                -0.870
REMARK  Name = 
REMARK  8 active torsions:
REMARK  status: ('A' for Active; 'I' for Inactive)
REMARK    1  A    between atoms: C_1  and  C_2
REMARK    2  A    between atoms: C_5  and  O_6
REMARK    3  A    between atoms: O_6  and  C_7
REMARK    4  A    between atoms: C_11  and  C_12
REMARK    5  A    between atoms: C_12  and  C_13
REMARK    6  A    between atoms: C_13  and  N_14
REMARK    7  A    between atoms: N_14  and  C_15
REMARK    8  A    between atoms: C_18  and  C_19
REMARK                            x       y       z     vdW  Elec       q    Type
REMARK                         _______ _______ _______ _____ _____    ______ ____
ROOT
ATOM      1  C   UNL     1      45.420   4.354  12.023  0.00  0.00    +0.000 C 
ENDROOT
BRANCH   1   6
ATOM      2  C   UNL     1      46.881   7.669  13.235  0.00  0.00    +0.000 A 
ATOM      3  C   UNL     1      46.042   8.588  12.609  0.00  0.00    +0.000 A 
ATOM      4  C   UNL     1      44.986   8.135  11.815  0.00  0.00    +0.000 A 
ATOM      5  C   UNL     1      44.768   6.766  11.644  0.00  0.00    +0.000 A 
ATOM      6  C   UNL     1      45.599   5.833  12.277  0.00  0.00    +0.000 A 
ATOM      7  C   UNL     1      46.650   6.299  13.081  0.00  0.00    +0.000 A 
BRANCH   2   8
ATOM      8  O   UNL     1      47.944   8.007  14.037  0.00  0.00    +0.000 OA
BRANCH   8  13
ATOM      9  C   UNL     1      50.362   7.723  11.420  0.00  0.00    +0.000 C 
ATOM     10  C   UNL     1      50.164   8.231  12.836  0.00  0.00    +0.000 C 
ATOM     11  N   UNL     1      51.303   7.869  13.711  0.00  0.00    +0.000 NA
ATOM     12  C   UNL     1      50.355   7.609  14.812  0.00  0.00    +0.000 C 
ATOM     13  C   UNL     1      49.232   7.400  13.766  0.00  0.00    +0.000 C 
ATOM     14  H   UNL     1      51.961   8.629  13.887  0.00  0.00    +0.000 HD
ENDBRANCH   8  13
ENDBRANCH   2   8
ENDBRANCH   1   6
BRANCH   1  15
ATOM     15  C   UNL     1      43.939   4.026  11.812  0.00  0.00    +0.000 C 
BRANCH  15  16
ATOM     16  N   UNL     1      43.623   3.823  10.400  0.00  0.00    +0.000 N 
ATOM     17  H   UNL     1      42.758   3.322  10.216  0.00  0.00    +0.000 HD
BRANCH  16  18
ATOM     18  C   UNL     1      44.649   3.493   9.507  0.00  0.00    +0.000 A 
ATOM     19  C   UNL     1      45.272   4.426   8.667  0.00  0.00    +0.000 A 
ATOM     20  C   UNL     1      46.211   4.032   7.707  0.00  0.00    +0.000 A 
ATOM     21  C   UNL     1      46.536   2.684   7.550  0.00  0.00    +0.000 A 
ATOM     22  C   UNL     1      45.912   1.734   8.362  0.00  0.00    +0.000 A 
ATOM     23  C   UNL     1      44.976   2.141   9.325  0.00  0.00    +0.000 A 
BRANCH  21  24
ATOM     24  C   UNL     1      47.501   2.318   6.478  0.00  0.00    +0.000 C 
ATOM     25  N   UNL     1      47.430   3.009   5.300  0.00  0.00    +0.000 N 
ATOM     26  O   UNL     1      48.311   1.413   6.622  0.00  0.00    +0.000 OA
ATOM     27  H   UNL     1      46.642   3.587   5.051  0.00  0.00    +0.000 HD
ATOM     28  H   UNL     1      48.023   2.671   4.552  0.00  0.00    +0.000 HD
ENDBRANCH  21  24
ENDBRANCH  16  18
ENDBRANCH  15  16
ENDBRANCH   1  15
TORSDOF 7
ENDMDL
MODEL 3
REMARK VINA RESULT:    -7.541      1.806      2.160
REMARK INTER + INTRA:         -11.496
REMARK INTER:                 -10.416
REMARK INTRA:                  -1.080
REMARK UNBOUND:                -0.870
REMARK  Name = 
REMARK  8 active torsions:
REMARK  status: ('A' for Active; 'I' for Inactive)
REMARK    1  A    between atoms: C_1  and  C_2
REMARK    2  A    between atoms: C_5  and  O_6
REMARK    3  A    between atoms: O_6  and  C_7
REMARK    4  A    between atoms: C_11  and  C_12
REMARK    5  A    between atoms: C_12  and  C_13
REMARK    6  A    between atoms: C_13  and  N_14
REMARK    7  A    between atoms: N_14  and  C_15
REMARK    8  A    between atoms: C_18  and  C_19
REMARK                            x       y       z     vdW  Elec       q    Type
REMARK                         _______ _______ _______ _____ _____    ______ ____
ROOT
ATOM      1  C   UNL     1      44.770   5.043  12.521  0.00  0.00    +0.000 C 
ENDROOT
BRANCH   1   6
ATOM      2  C   UNL     1      48.179   6.238  13.762  0.00  0.00    +0.000 A 
ATOM      3  C   UNL     1      48.573   7.081  12.725  0.00  0.00    +0.000 A 
ATOM      4  C   UNL     1      47.723   7.285  11.636  0.00  0.00    +0.000 A 
ATOM      5  C   UNL     1      46.482   6.646  11.579  0.00  0.00    +0.000 A 
ATOM      6  C   UNL     1      46.072   5.804  12.621  0.00  0.00    +0.000 A 
ATOM      7  C   UNL     1      46.929   5.616  13.716  0.00  0.00    +0.000 A 
BRANCH   2   8
ATOM      8  O   UNL     1      48.936   5.972  14.877  0.00  0.00    +0.000 OA
BRANCH   8  13
ATOM      9  C   UNL     1      48.360   9.221  16.252  0.00  0.00    +0.000 C 
ATOM     10  C   UNL     1      48.859   7.831  16.598  0.00  0.00    +0.000 C 
ATOM     11  N   UNL     1      50.097   7.880  17.411  0.00  0.00    +0.000 NA
ATOM     12  C   UNL     1      50.617   6.719  16.662  0.00  0.00    +0.000 C 
ATOM     13  C   UNL     1      49.654   7.066  15.499  0.00  0.00    +0.000 C 
ATOM     14  H   UNL     1      49.956   7.715  18.408  0.00  0.00    +0.000 HD
ENDBRANCH   8  13
ENDBRANCH   2   8
ENDBRANCH   1   6
BRANCH   1  15
ATOM     15  C   UNL     1      44.012   5.451  11.254  0.00  0.00    +0.000 C 
BRANCH  15  16
ATOM     16  N   UNL     1      43.721   4.299  10.402  0.00  0.00    +0.000 N 
ATOM     17  H   UNL     1      43.196   3.551  10.846  0.00  0.00    +0.000 HD
BRANCH  16  18
ATOM     18  C   UNL     1      44.702   3.832   9.520  0.00  0.00    +0.000 A 
ATOM     19  C   UNL     1      45.455   4.670   8.686  0.00  0.00    +0.000 A 
ATOM     20  C   UNL     1      46.342   4.150   7.736  0.00  0.00    +0.000 A 
ATOM     21  C   UNL     1      46.483   2.770   7.583  0.00  0.00    +0.000 A 
ATOM     22  C   UNL     1      45.727   1.915   8.390  0.00  0.00    +0.000 A 
ATOM     23  C   UNL     1      44.845   2.447   9.343  0.00  0.00    +0.000 A 
BRANCH  21  24
ATOM     24  C   UNL     1      47.400   2.275   6.522  0.00  0.00    +0.000 C 
ATOM     25  N   UNL     1      47.360   2.901   5.308  0.00  0.00    +0.000 N 
ATOM     26  O   UNL     1      48.144   1.322   6.708  0.00  0.00    +0.000 OA
ATOM     27  H   UNL     1      46.612   3.521   5.036  0.00  0.00    +0.000 HD
ATOM     28  H   UNL     1      47.914   2.479   4.573  0.00  0.00    +0.000 HD
ENDBRANCH  21  24
ENDBRANCH  16  18
ENDBRANCH  15  16
ENDBRANCH   1  15
TORSDOF 7
ENDMDL
MODEL 4
REMARK VINA RESULT:    -7.393      2.491      3.888
REMARK INTER + INTRA:         -11.288
REMARK INTER:                 -10.244
REMARK INTRA:                  -1.044
REMARK UNBOUND:                -0.870
REMARK  Name = 
REMARK  8 active torsions:
REMARK  status: ('A' for Active; 'I' for Inactive)
REMARK    1  A    between atoms: C_1  and  C_2
REMARK    2  A    between atoms: C_5  and  O_6
REMARK    3  A    between atoms: O_6  and  C_7
REMARK    4  A    between atoms: C_11  and  C_12
REMARK    5  A    between atoms: C_12  and  C_13
REMARK    6  A    between atoms: C_13  and  N_14
REMARK    7  A    between atoms: N_14  and  C_15
REMARK    8  A    between atoms: C_18  and  C_19
REMARK                            x       y       z     vdW  Elec       q    Type
REMARK                         _______ _______ _______ _____ _____    ______ ____
ROOT
ATOM      1  C   UNL     1      44.920   3.688  12.390  0.00  0.00    +0.000 C 
ENDROOT
BRANCH   1   6
ATOM      2  C   UNL     1      46.999   6.871  12.762  0.00  0.00    +0.000 A 
ATOM      3  C   UNL     1      47.755   6.579  13.895  0.00  0.00    +0.000 A 
ATOM      4  C   UNL     1      47.611   5.340  14.524  0.00  0.00    +0.000 A 
ATOM      5  C   UNL     1      46.713   4.395  14.025  0.00  0.00    +0.000 A 
ATOM      6  C   UNL     1      45.956   4.674  12.881  0.00  0.00    +0.000 A 
ATOM      7  C   UNL     1      46.116   5.917  12.249  0.00  0.00    +0.000 A 
BRANCH   2   8
ATOM      8  O   UNL     1      47.064   8.055  12.067  0.00  0.00    +0.000 OA
BRANCH   8  13
ATOM      9  C   UNL     1      50.637   8.102  11.960  0.00  0.00    +0.000 C 
ATOM     10  C   UNL     1      49.399   8.758  11.377  0.00  0.00    +0.000 C 
ATOM     11  N   UNL     1      49.536  10.232  11.319  0.00  0.00    +0.000 NA
ATOM     12  C   UNL     1      48.118  10.364  11.708  0.00  0.00    +0.000 C 
ATOM     13  C   UNL     1      48.179   8.944  12.326  0.00  0.00    +0.000 C 
ATOM     14  H   UNL     1      49.760  10.601  10.395  0.00  0.00    +0.000 HD
ENDBRANCH   8  13
ENDBRANCH   2   8
ENDBRANCH   1   6
BRANCH   1  15
ATOM     15  C   UNL     1      44.017   4.344  11.341  0.00  0.00    +0.000 C 
BRANCH  15  16
ATOM     16  N   UNL     1      43.650   3.409  10.279  0.00  0.00    +0.000 N 
ATOM     17  H   UNL     1      43.113   2.600  10.579  0.00  0.00    +0.000 HD
BRANCH  16  18
ATOM     18  C   UNL     1      44.579   3.109   9.276  0.00  0.00    +0.000 A 
ATOM     19  C   UNL     1      45.089   1.822   9.054  0.00  0.00    +0.000 A 
ATOM     20  C   UNL     1      46.102   1.590   8.118  0.00  0.00    +0.000 A 
ATOM     21  C   UNL     1      46.649   2.649   7.391  0.00  0.00    +0.000 A 
ATOM     22  C   UNL     1      46.170   3.943   7.611  0.00  0.00    +0.000 A 
ATOM     23  C   UNL     1      45.149   4.164   8.548  0.00  0.00    +0.000 A 
BRANCH  21  24
ATOM     24  C   UNL     1      47.760   2.349   6.449  0.00  0.00    +0.000 C 
ATOM     25  N   UNL     1      47.780   3.025   5.260  0.00  0.00    +0.000 N 
ATOM     26  O   UNL     1      48.611   1.509   6.703  0.00  0.00    +0.000 OA
ATOM     27  H   UNL     1      46.987   3.540   4.910  0.00  0.00    +0.000 HD
ATOM     28  H   UNL     1      48.483   2.727   4.594  0.00  0.00    +0.000 HD
ENDBRANCH  21  24
ENDBRANCH  16  18
ENDBRANCH  15  16
ENDBRANCH   1  15
TORSDOF 7
ENDMDL
MODEL 5
REMARK VINA RESULT:    -6.668      2.799      7.993
REMARK INTER + INTRA:         -10.266
REMARK INTER:                  -9.306
REMARK INTRA:                  -0.960
REMARK UNBOUND:                -0.870
REMARK  Name = 
REMARK  8 active torsions:
REMARK  status: ('A' for Active; 'I' for Inactive)
REMARK    1  A    between atoms: C_1  and  C_2
REMARK    2  A    between atoms: C_5  and  O_6
REMARK    3  A    between atoms: O_6  and  C_7
REMARK    4  A    between atoms: C_11  and  C_12
REMARK    5  A    between atoms: C_12  and  C_13
REMARK    6  A    between atoms: C_13  and  N_14
REMARK    7  A    between atoms: N_14  and  C_15
REMARK    8  A    between atoms: C_18  and  C_19
REMARK                            x       y       z     vdW  Elec       q    Type
REMARK                         _______ _______ _______ _____ _____    ______ ____
ROOT
ATOM      1  C   UNL     1      48.989   6.582  14.763  0.00  0.00    +0.000 C 
ENDROOT
BRANCH   1   6
ATOM      2  C   UNL     1      45.678   5.413  13.261  0.00  0.00    +0.000 A 
ATOM      3  C   UNL     1      45.186   6.597  12.716  0.00  0.00    +0.000 A 
ATOM      4  C   UNL     1      45.939   7.769  12.811  0.00  0.00    +0.000 A 
ATOM      5  C   UNL     1      47.180   7.762  13.451  0.00  0.00    +0.000 A 
ATOM      6  C   UNL     1      47.688   6.575  13.993  0.00  0.00    +0.000 A 
ATOM      7  C   UNL     1      46.929   5.400  13.882  0.00  0.00    +0.000 A 
BRANCH   2   8
ATOM      8  O   UNL     1      45.021   4.207  13.221  0.00  0.00    +0.000 OA
BRANCH   8  13
ATOM      9  C   UNL     1      44.969   4.383   9.651  0.00  0.00    +0.000 C 
ATOM     10  C   UNL     1      44.854   3.420  10.817  0.00  0.00    +0.000 C 
ATOM     11  N   UNL     1      43.741   2.461  10.628  0.00  0.00    +0.000 NA
ATOM     12  C   UNL     1      43.426   2.565  12.066  0.00  0.00    +0.000 C 
ATOM     13  C   UNL     1      44.141   3.939  12.101  0.00  0.00    +0.000 C 
ATOM     14  H   UNL     1      44.029   1.531  10.321  0.00  0.00    +0.000 HD
ENDBRANCH   8  13
ENDBRANCH   2   8
ENDBRANCH   1   6
BRANCH   1  15
ATOM     15  C   UNL     1      48.751   7.038  16.206  0.00  0.00    +0.000 C 
BRANCH  15  16
ATOM     16  N   UNL     1      48.340   5.928  17.065  0.00  0.00    +0.000 N 
ATOM     17  H   UNL     1      47.798   6.191  17.884  0.00  0.00    +0.000 HD
BRANCH  16  18
ATOM     18  C   UNL     1      49.235   4.881  17.311  0.00  0.00    +0.000 A 
ATOM     19  C   UNL     1      50.596   5.075  17.584  0.00  0.00    +0.000 A 
ATOM     20  C   UNL     1      51.477   3.996  17.707  0.00  0.00    +0.000 A 
ATOM     21  C   UNL     1      51.019   2.688  17.540  0.00  0.00    +0.000 A 
ATOM     22  C   UNL     1      49.670   2.471  17.246  0.00  0.00    +0.000 A 
ATOM     23  C   UNL     1      48.794   3.561  17.131  0.00  0.00    +0.000 A 
BRANCH  21  24
ATOM     24  C   UNL     1      52.011   1.583  17.630  0.00  0.00    +0.000 C 
ATOM     25  N   UNL     1      51.555   0.353  18.014  0.00  0.00    +0.000 N 
ATOM     26  O   UNL     1      53.199   1.765  17.404  0.00  0.00    +0.000 OA
ATOM     27  H   UNL     1      50.649   0.211  18.433  0.00  0.00    +0.000 HD
ATOM     28  H   UNL     1      52.264  -0.353  18.171  0.00  0.00    +0.000 HD
ENDBRANCH  21  24
ENDBRANCH  16  18
ENDBRANCH  15  16
ENDBRANCH   1  15
TORSDOF 7
ENDMDL
MODEL 6
REMARK VINA RESULT:    -6.425      2.632      8.215
REMARK INTER + INTRA:          -9.925
REMARK INTER:                  -9.704
REMARK INTRA:                  -0.221
REMARK UNBOUND:                -0.870
REMARK  Name = 
REMARK  8 active torsions:
REMARK  status: ('A' for Active; 'I' for Inactive)
REMARK    1  A    between atoms: C_1  and  C_2
REMARK    2  A    between atoms: C_5  and  O_6
REMARK    3  A    between atoms: O_6  and  C_7
REMARK    4  A    between atoms: C_11  and  C_12
REMARK    5  A    between atoms: C_12  and  C_13
REMARK    6  A    between atoms: C_13  and  N_14
REMARK    7  A    between atoms: N_14  and  C_15
REMARK    8  A    between atoms: C_18  and  C_19
REMARK                            x       y       z     vdW  Elec       q    Type
REMARK                         _______ _______ _______ _____ _____    ______ ____
ROOT
ATOM      1  C   UNL     1      46.555   4.060  13.915  0.00  0.00    +0.000 C 
ENDROOT
BRANCH   1   6
ATOM      2  C   UNL     1      44.802   4.855  10.615  0.00  0.00    +0.000 A 
ATOM      3  C   UNL     1      43.514   5.159  11.051  0.00  0.00    +0.000 A 
ATOM      4  C   UNL     1      43.219   5.132  12.416  0.00  0.00    +0.000 A 
ATOM      5  C   UNL     1      44.207   4.801  13.346  0.00  0.00    +0.000 A 
ATOM      6  C   UNL     1      45.507   4.504  12.920  0.00  0.00    +0.000 A 
ATOM      7  C   UNL     1      45.796   4.545  11.547  0.00  0.00    +0.000 A 
BRANCH   2   8
ATOM      8  O   UNL     1      45.198   4.855   9.300  0.00  0.00    +0.000 OA
BRANCH   8  13
ATOM      9  C   UNL     1      46.479   3.142   6.436  0.00  0.00    +0.000 C 
ATOM     10  C   UNL     1      46.237   2.996   7.926  0.00  0.00    +0.000 C 
ATOM     11  N   UNL     1      45.656   1.674   8.259  0.00  0.00    +0.000 NA
ATOM     12  C   UNL     1      44.794   2.324   9.266  0.00  0.00    +0.000 C 
ATOM     13  C   UNL     1      44.957   3.665   8.509  0.00  0.00    +0.000 C 
ATOM     14  H   UNL     1      46.322   1.001   8.639  0.00  0.00    +0.000 HD
ENDBRANCH   8  13
ENDBRANCH   2   8
ENDBRANCH   1   6
BRANCH   1  15
ATOM     15  C   UNL     1      47.142   5.272  14.645  0.00  0.00    +0.000 C 
BRANCH  15  16
ATOM     16  N   UNL     1      47.229   5.047  16.086  0.00  0.00    +0.000 N 
ATOM     17  H   UNL     1      46.972   5.841  16.666  0.00  0.00    +0.000 HD
BRANCH  16  18
ATOM     18  C   UNL     1      48.304   4.315  16.605  0.00  0.00    +0.000 A 
ATOM     19  C   UNL     1      49.472   4.906  17.104  0.00  0.00    +0.000 A 
ATOM     20  C   UNL     1      50.568   4.133  17.504  0.00  0.00    +0.000 A 
ATOM     21  C   UNL     1      50.529   2.742  17.393  0.00  0.00    +0.000 A 
ATOM     22  C   UNL     1      49.381   2.133  16.879  0.00  0.00    +0.000 A 
ATOM     23  C   UNL     1      48.286   2.917  16.487  0.00  0.00    +0.000 A 
BRANCH  21  24
ATOM     24  C   UNL     1      51.742   1.975  17.784  0.00  0.00    +0.000 C 
ATOM     25  N   UNL     1      51.579   0.659  18.114  0.00  0.00    +0.000 N 
ATOM     26  O   UNL     1      52.844   2.501  17.843  0.00  0.00    +0.000 OA
ATOM     27  H   UNL     1      50.678   0.250  18.309  0.00  0.00    +0.000 HD
ATOM     28  H   UNL     1      52.400   0.189  18.478  0.00  0.00    +0.000 HD
ENDBRANCH  21  24
ENDBRANCH  16  18
ENDBRANCH  15  16
ENDBRANCH   1  15
TORSDOF 7
ENDMDL
MODEL 7
REMARK VINA RESULT:    -6.397      2.704      7.398
REMARK INTER + INTRA:          -9.884
REMARK INTER:                  -8.634
REMARK INTRA:                  -1.250
REMARK UNBOUND:                -0.870
REMARK  Name = 
REMARK  8 active torsions:
REMARK  status: ('A' for Active; 'I' for Inactive)
REMARK    1  A    between atoms: C_1  and  C_2
REMARK    2  A    between atoms: C_5  and  O_6
REMARK    3  A    between atoms: O_6  and  C_7
REMARK    4  A    between atoms: C_11  and  C_12
REMARK    5  A    between atoms: C_12  and  C_13
REMARK    6  A    between atoms: C_13  and  N_14
REMARK    7  A    between atoms: N_14  and  C_15
REMARK    8  A    between atoms: C_18  and  C_19
REMARK                            x       y       z     vdW  Elec       q    Type
REMARK                         _______ _______ _______ _____ _____    ______ ____
ROOT
ATOM      1  C   UNL     1      48.720   8.058  11.864  0.00  0.00    +0.000 C 
ENDROOT
BRANCH   1   6
ATOM      2  C   UNL     1      45.429   6.321  11.002  0.00  0.00    +0.000 A 
ATOM      3  C   UNL     1      44.522   7.048  11.769  0.00  0.00    +0.000 A 
ATOM      4  C   UNL     1      44.971   8.119  12.546  0.00  0.00    +0.000 A 
ATOM      5  C   UNL     1      46.324   8.463  12.559  0.00  0.00    +0.000 A 
ATOM      6  C   UNL     1      47.244   7.745  11.784  0.00  0.00    +0.000 A 
ATOM      7  C   UNL     1      46.780   6.678  10.998  0.00  0.00    +0.000 A 
BRANCH   2   8
ATOM      8  O   UNL     1      45.094   5.255  10.203  0.00  0.00    +0.000 OA
BRANCH   8  13
ATOM      9  C   UNL     1      43.452   3.631  12.932  0.00  0.00    +0.000 C 
ATOM     10  C   UNL     1      43.570   3.636  11.420  0.00  0.00    +0.000 C 
ATOM     11  N   UNL     1      43.677   2.263  10.874  0.00  0.00    +0.000 NA
ATOM     12  C   UNL     1      44.659   2.749   9.884  0.00  0.00    +0.000 C 
ATOM     13  C   UNL     1      44.970   3.948  10.815  0.00  0.00    +0.000 C 
ATOM     14  H   UNL     1      42.814   1.897  10.472  0.00  0.00    +0.000 HD
ENDBRANCH   8  13
ENDBRANCH   2   8
ENDBRANCH   1   6
BRANCH   1  15
ATOM     15  C   UNL     1      49.426   7.060  12.788  0.00  0.00    +0.000 C 
BRANCH  15  16
ATOM     16  N   UNL     1      49.318   7.452  14.192  0.00  0.00    +0.000 N 
ATOM     17  H   UNL     1      50.091   8.008  14.548  0.00  0.00    +0.000 HD
BRANCH  16  18
ATOM     18  C   UNL     1      48.827   6.533  15.126  0.00  0.00    +0.000 A 
ATOM     19  C   UNL     1      49.392   6.341  16.394  0.00  0.00    +0.000 A 
ATOM     20  C   UNL     1      48.941   5.330  17.250  0.00  0.00    +0.000 A 
ATOM     21  C   UNL     1      47.920   4.468  16.847  0.00  0.00    +0.000 A 
ATOM     22  C   UNL     1      47.355   4.627  15.580  0.00  0.00    +0.000 A 
ATOM     23  C   UNL     1      47.811   5.649  14.731  0.00  0.00    +0.000 A 
BRANCH  21  24
ATOM     24  C   UNL     1      47.518   3.379  17.778  0.00  0.00    +0.000 C 
ATOM     25  N   UNL     1      48.308   3.158  18.871  0.00  0.00    +0.000 N 
ATOM     26  O   UNL     1      46.537   2.680  17.565  0.00  0.00    +0.000 OA
ATOM     27  H   UNL     1      49.237   3.539  18.962  0.00  0.00    +0.000 HD
ATOM     28  H   UNL     1      48.074   2.345  19.429  0.00  0.00    +0.000 HD
ENDBRANCH  21  24
ENDBRANCH  16  18
ENDBRANCH  15  16
ENDBRANCH   1  15
TORSDOF 7
ENDMDL
MODEL 8
REMARK VINA RESULT:    -6.345      2.956      4.344
REMARK INTER + INTRA:          -9.811
REMARK INTER:                  -8.767
REMARK INTRA:                  -1.044
REMARK UNBOUND:                -0.870
REMARK  Name = 
REMARK  8 active torsions:
REMARK  status: ('A' for Active; 'I' for Inactive)
REMARK    1  A    between atoms: C_1  and  C_2
REMARK    2  A    between atoms: C_5  and  O_6
REMARK    3  A    between atoms: O_6  and  C_7
REMARK    4  A    between atoms: C_11  and  C_12
REMARK    5  A    between atoms: C_12  and  C_13
REMARK    6  A    between atoms: C_13  and  N_14
REMARK    7  A    between atoms: N_14  and  C_15
REMARK    8  A    between atoms: C_18  and  C_19
REMARK                            x       y       z     vdW  Elec       q    Type
REMARK                         _______ _______ _______ _____ _____    ______ ____
ROOT
ATOM      1  C   UNL     1      47.803   8.251  12.685  0.00  0.00    +0.000 C 
ENDROOT
BRANCH   1   6
ATOM      2  C   UNL     1      49.002   6.603  15.916  0.00  0.00    +0.000 A 
ATOM      3  C   UNL     1      49.033   7.689  16.788  0.00  0.00    +0.000 A 
ATOM      4  C   UNL     1      48.640   8.952  16.337  0.00  0.00    +0.000 A 
ATOM      5  C   UNL     1      48.219   9.131  15.018  0.00  0.00    +0.000 A 
ATOM      6  C   UNL     1      48.174   8.044  14.136  0.00  0.00    +0.000 A 
ATOM      7  C   UNL     1      48.559   6.778  14.602  0.00  0.00    +0.000 A 
BRANCH   2   8
ATOM      8  O   UNL     1      49.363   5.322  16.257  0.00  0.00    +0.000 OA
BRANCH   8  13
ATOM      9  C   UNL     1      46.908   5.663  18.833  0.00  0.00    +0.000 C 
ATOM     10  C   UNL     1      47.574   4.649  17.921  0.00  0.00    +0.000 C 
ATOM     11  N   UNL     1      47.938   3.412  18.651  0.00  0.00    +0.000 NA
ATOM     12  C   UNL     1      49.192   3.342  17.875  0.00  0.00    +0.000 C 
ATOM     13  C   UNL     1      49.083   4.863  17.602  0.00  0.00    +0.000 C 
ATOM     14  H   UNL     1      47.301   2.629  18.503  0.00  0.00    +0.000 HD
ENDBRANCH   8  13
ENDBRANCH   2   8
ENDBRANCH   1   6
BRANCH   1  15
ATOM     15  C   UNL     1      46.367   8.773  12.573  0.00  0.00    +0.000 C 
BRANCH  15  16
ATOM     16  N   UNL     1      45.411   7.873  13.215  0.00  0.00    +0.000 N 
ATOM     17  H   UNL     1      45.485   7.811  14.227  0.00  0.00    +0.000 HD
BRANCH  16  18
ATOM     18  C   UNL     1      45.107   6.648  12.611  0.00  0.00    +0.000 A 
ATOM     19  C   UNL     1      44.305   6.528  11.467  0.00  0.00    +0.000 A 
ATOM     20  C   UNL     1      43.931   5.277  10.965  0.00  0.00    +0.000 A 
ATOM     21  C   UNL     1      44.335   4.108  11.611  0.00  0.00    +0.000 A 
ATOM     22  C   UNL     1      45.118   4.204  12.765  0.00  0.00    +0.000 A 
ATOM     23  C   UNL     1      45.492   5.464  13.256  0.00  0.00    +0.000 A 
BRANCH  21  24
ATOM     24  C   UNL     1      43.864   2.808  11.063  0.00  0.00    +0.000 C 
ATOM     25  N   UNL     1      44.554   2.279  10.008  0.00  0.00    +0.000 N 
ATOM     26  O   UNL     1      42.877   2.240  11.510  0.00  0.00    +0.000 OA
ATOM     27  H   UNL     1      45.213   2.812   9.462  0.00  0.00    +0.000 HD
ATOM     28  H   UNL     1      44.150   1.451   9.586  0.00  0.00    +0.000 HD
ENDBRANCH  21  24
ENDBRANCH  16  18
ENDBRANCH  15  16
ENDBRANCH   1  15
TORSDOF 7
ENDMDL
MODEL 9
REMARK VINA RESULT:    -6.156      3.386      5.429
REMARK INTER + INTRA:          -9.545
REMARK INTER:                  -8.488
REMARK INTRA:                  -1.057
REMARK UNBOUND:                -0.870
REMARK  Name = 
REMARK  8 active torsions:
REMARK  status: ('A' for Active; 'I' for Inactive)
REMARK    1  A    between atoms: C_1  and  C_2
REMARK    2  A    between atoms: C_5  and  O_6
REMARK    3  A    between atoms: O_6  and  C_7
REMARK    4  A    between atoms: C_11  and  C_12
REMARK    5  A    between atoms: C_12  and  C_13
REMARK    6  A    between atoms: C_13  and  N_14
REMARK    7  A    between atoms: N_14  and  C_15
REMARK    8  A    between atoms: C_18  and  C_19
REMARK                            x       y       z     vdW  Elec       q    Type
REMARK                         _______ _______ _______ _____ _____    ______ ____
ROOT
ATOM      1  C   UNL     1      49.140   8.461  15.392  0.00  0.00    +0.000 C 
ENDROOT
BRANCH   1   6
ATOM      2  C   UNL     1      48.251   5.868  18.051  0.00  0.00    +0.000 A 
ATOM      3  C   UNL     1      47.843   6.680  19.107  0.00  0.00    +0.000 A 
ATOM      4  C   UNL     1      47.829   8.068  18.949  0.00  0.00    +0.000 A 
ATOM      5  C   UNL     1      48.225   8.645  17.740  0.00  0.00    +0.000 A 
ATOM      6  C   UNL     1      48.628   7.837  16.670  0.00  0.00    +0.000 A 
ATOM      7  C   UNL     1      48.627   6.444  16.835  0.00  0.00    +0.000 A 
BRANCH   2   8
ATOM      8  O   UNL     1      48.299   4.496  18.100  0.00  0.00    +0.000 OA
BRANCH   8  13
ATOM      9  C   UNL     1      51.335   2.720  17.465  0.00  0.00    +0.000 C 
ATOM     10  C   UNL     1      49.826   2.568  17.489  0.00  0.00    +0.000 C 
ATOM     11  N   UNL     1      49.331   1.826  16.306  0.00  0.00    +0.000 NA
ATOM     12  C   UNL     1      48.169   2.734  16.242  0.00  0.00    +0.000 C 
ATOM     13  C   UNL     1      48.980   3.792  17.032  0.00  0.00    +0.000 C 
ATOM     14  H   UNL     1      49.099   0.849  16.484  0.00  0.00    +0.000 HD
ENDBRANCH   8  13
ENDBRANCH   2   8
ENDBRANCH   1   6
BRANCH   1  15
ATOM     15  C   UNL     1      48.112   8.293  14.269  0.00  0.00    +0.000 C 
BRANCH  15  16
ATOM     16  N   UNL     1      48.478   7.213  13.355  0.00  0.00    +0.000 N 
ATOM     17  H   UNL     1      49.149   7.463  12.633  0.00  0.00    +0.000 HD
BRANCH  16  18
ATOM     18  C   UNL     1      47.491   6.329  12.904  0.00  0.00    +0.000 A 
ATOM     19  C   UNL     1      46.766   6.518  11.720  0.00  0.00    +0.000 A 
ATOM     20  C   UNL     1      45.709   5.673  11.367  0.00  0.00    +0.000 A 
ATOM     21  C   UNL     1      45.335   4.623  12.207  0.00  0.00    +0.000 A 
ATOM     22  C   UNL     1      46.030   4.428  13.404  0.00  0.00    +0.000 A 
ATOM     23  C   UNL     1      47.093   5.278  13.744  0.00  0.00    +0.000 A 
BRANCH  21  24
ATOM     24  C   UNL     1      44.169   3.789  11.807  0.00  0.00    +0.000 C 
ATOM     25  N   UNL     1      43.961   2.623  12.491  0.00  0.00    +0.000 N 
ATOM     26  O   UNL     1      43.437   4.108  10.881  0.00  0.00    +0.000 OA
ATOM     27  H   UNL     1      44.659   2.207  13.089  0.00  0.00    +0.000 HD
ATOM     28  H   UNL     1      43.228   2.024  12.131  0.00  0.00    +0.000 HD
ENDBRANCH  21  24
ENDBRANCH  16  18
ENDBRANCH  15  16
ENDBRANCH   1  15
TORSDOF 7
ENDMDL
