MODEL 1
REMARK VINA RESULT:    -7.907      0.000      0.000
REMARK INTER + INTRA:         -10.489
REMARK INTER:                  -9.756
REMARK INTRA:                  -0.733
REMARK UNBOUND:                -0.733
REMARK  Name = 
REMARK  4 active torsions:
REMARK  status: ('A' for Active; 'I' for Inactive)
REMARK    1  A    between atoms: C_4  and  N_5
REMARK    2  A    between atoms: N_5  and  C_6
REMARK    3  A    between atoms: C_6  and  C_7
REMARK    4  A    between atoms: C_11  and  C_12
REMARK                            x       y       z     vdW  Elec       q    Type
REMARK                         _______ _______ _______ _____ _____    ______ ____
ROOT
ATOM      1  C   UNL     1      44.922   4.059  11.197  0.00  0.00    +0.000 A 
ATOM      2  C   UNL     1      45.370   3.292  12.276  0.00  0.00    +0.000 A 
ATOM      3  C   UNL     1      46.148   3.874  13.275  0.00  0.00    +0.000 A 
ATOM      4  C   UNL     1      46.480   5.228  13.205  0.00  0.00    +0.000 A 
ATOM      5  C   UNL     1      46.025   6.042  12.151  0.00  0.00    +0.000 A 
ATOM      6  C   UNL     1      45.230   5.433  11.160  0.00  0.00    +0.000 A 
ENDROOT
BRANCH   5   7
ATOM      7  C   UNL     1      46.418   7.469  12.079  0.00  0.00    +0.000 A 
ATOM      8  C   UNL     1      47.749   7.888  12.015  0.00  0.00    +0.000 A 
ATOM      9  C   UNL     1      48.036   9.252  11.981  0.00  0.00    +0.000 A 
ATOM     10  C   UNL     1      46.996  10.169  12.009  0.00  0.00    +0.000 A 
ATOM     11  C   UNL     1      45.705   9.681  12.063  0.00  0.00    +0.000 A 
ATOM     12  N   UNL     1      45.396   8.365  12.093  0.00  0.00    +0.000 NA
ENDBRANCH   5   7
BRANCH   1  13
ATOM     13  C   UNL     1      44.169   3.410  10.058  0.00  0.00    +0.000 C 
BRANCH  13  14
ATOM     14  N   UNL     1      44.826   2.189   9.622  0.00  0.00    +0.000 N 
ATOM     15  H   UNL     1      45.258   1.665  10.379  0.00  0.00    +0.000 HD
BRANCH  14  19
ATOM     16  C   UNL     1      47.344   2.431   6.237  0.00  0.00    +0.000 A 
ATOM     17  C   UNL     1      47.264   1.235   6.942  0.00  0.00    +0.000 A 
ATOM     18  C   UNL     1      46.429   1.134   8.061  0.00  0.00    +0.000 A 
ATOM     19  C   UNL     1      45.631   2.209   8.476  0.00  0.00    +0.000 A 
ATOM     20  C   UNL     1      45.742   3.410   7.759  0.00  0.00    +0.000 A 
ATOM     21  C   UNL     1      46.587   3.523   6.650  0.00  0.00    +0.000 A 
ENDBRANCH  14  19
ENDBRANCH  13  14
ENDBRANCH   1  13
TORSDOF 4
ENDMDL
MODEL 2
REMARK VINA RESULT:    -7.897      0.813      1.112
REMARK INTER + INTRA:         -10.476
REMARK INTER:                  -9.698
REMARK INTRA:                  -0.779
REMARK UNBOUND:                -0.733
REMARK  Name = 
REMARK  4 active torsions:
REMARK  status: ('A' for Active; 'I' for Inactive)
REMARK    1  A    between atoms: C_4  and  N_5
REMARK    2  A    between atoms: N_5  and  C_6
REMARK    3  A    between atoms: C_6  and  C_7
REMARK    4  A    between atoms: C_11  and  C_12
REMARK                            x       y       z     vdW  Elec       q    Type
REMARK                         _______ _______ _______ _____ _____    ______ ____
ROOT
ATOM      1  C   UNL     1      44.924   4.577  11.042  0.00  0.00    +0.000 A 
ATOM      2  C   UNL     1      45.160   3.723  12.124  0.00  0.00    +0.000 A 
ATOM      3  C   UNL     1      46.049   4.094  13.130  0.00  0.00    +0.000 A 
ATOM      4  C   UNL     1      46.705   5.325  13.066  0.00  0.00    +0.000 A 
ATOM      5  C   UNL     1      46.475   6.226  12.010  0.00  0.00    +0.000 A 
ATOM      6  C   UNL     1      45.562   5.832  11.011  0.00  0.00    +0.000 A 
ENDROOT
BRANCH   5   7
ATOM      7  C   UNL     1      47.208   7.512  11.945  0.00  0.00    +0.000 A 
ATOM      8  C   UNL     1      48.582   7.591  11.702  0.00  0.00    +0.000 A 
ATOM      9  C   UNL     1      49.203   8.839  11.687  0.00  0.00    +0.000 A 
ATOM     10  C   UNL     1      48.447   9.981  11.910  0.00  0.00    +0.000 A 
ATOM     11  C   UNL     1      47.093   9.825  12.133  0.00  0.00    +0.000 A 
ATOM     12  N   UNL     1      46.462   8.629  12.150  0.00  0.00    +0.000 NA
ENDBRANCH   5   7
BRANCH   1  13
ATOM     13  C   UNL     1      44.045   4.133   9.896  0.00  0.00    +0.000 C 
BRANCH  13  14
ATOM     14  N   UNL     1      44.698   4.353   8.616  0.00  0.00    +0.000 N 
ATOM     15  H   UNL     1      44.095   4.780   7.917  0.00  0.00    +0.000 HD
BRANCH  14  19
ATOM     16  C   UNL     1      47.281   1.442   6.971  0.00  0.00    +0.000 A 
ATOM     17  C   UNL     1      46.446   1.093   8.027  0.00  0.00    +0.000 A 
ATOM     18  C   UNL     1      45.578   2.042   8.579  0.00  0.00    +0.000 A 
ATOM     19  C   UNL     1      45.499   3.344   8.067  0.00  0.00    +0.000 A 
ATOM     20  C   UNL     1      46.363   3.678   7.013  0.00  0.00    +0.000 A 
ATOM     21  C   UNL     1      47.245   2.739   6.467  0.00  0.00    +0.000 A 
ENDBRANCH  14  19
ENDBRANCH  13  14
ENDBRANCH   1  13
TORSDOF 4
ENDMDL
MODEL 3
REMARK VINA RESULT:    -7.872      2.250      3.770
REMARK INTER + INTRA:         -10.445
REMARK INTER:                  -9.650
REMARK INTRA:                  -0.796
REMARK UNBOUND:                -0.733
REMARK  Name = 
REMARK  4 active torsions:
REMARK  status: ('A' for Active; 'I' for Inactive)
REMARK    1  A    between atoms: C_4  and  N_5
REMARK    2  A    between atoms: N_5  and  C_6
REMARK    3  A    between atoms: C_6  and  C_7
REMARK    4  A    between atoms: C_11  and  C_12
REMARK                            x       y       z     vdW  Elec       q    Type
REMARK                         _______ _______ _______ _____ _____    ______ ____
ROOT
ATOM      1  C   UNL     1      45.150   4.447  11.453  0.00  0.00    +0.000 A 
ATOM      2  C   UNL     1      45.411   5.713  10.919  0.00  0.00    +0.000 A 
ATOM      3  C   UNL     1      46.265   6.591  11.582  0.00  0.00    +0.000 A 
ATOM      4  C   UNL     1      46.868   6.210  12.782  0.00  0.00    +0.000 A 
ATOM      5  C   UNL     1      46.655   4.935  13.339  0.00  0.00    +0.000 A 
ATOM      6  C   UNL     1      45.797   4.061  12.643  0.00  0.00    +0.000 A 
ENDROOT
BRANCH   5   7
ATOM      7  C   UNL     1      47.278   4.566  14.632  0.00  0.00    +0.000 A 
ATOM      8  C   UNL     1      47.728   5.511  15.556  0.00  0.00    +0.000 A 
ATOM      9  C   UNL     1      48.332   5.081  16.736  0.00  0.00    +0.000 A 
ATOM     10  C   UNL     1      48.474   3.721  16.974  0.00  0.00    +0.000 A 
ATOM     11  C   UNL     1      47.997   2.845  16.019  0.00  0.00    +0.000 A 
ATOM     12  N   UNL     1      47.404   3.233  14.867  0.00  0.00    +0.000 NA
ENDBRANCH   5   7
BRANCH   1  13
ATOM     13  C   UNL     1      44.143   3.532  10.795  0.00  0.00    +0.000 C 
BRANCH  13  14
ATOM     14  N   UNL     1      44.136   3.709   9.353  0.00  0.00    +0.000 N 
ATOM     15  H   UNL     1      43.209   3.646   8.938  0.00  0.00    +0.000 HD
BRANCH  14  19
ATOM     16  C   UNL     1      47.186   1.910   7.048  0.00  0.00    +0.000 A 
ATOM     17  C   UNL     1      46.473   1.136   7.957  0.00  0.00    +0.000 A 
ATOM     18  C   UNL     1      45.454   1.714   8.724  0.00  0.00    +0.000 A 
ATOM     19  C   UNL     1      45.101   3.061   8.572  0.00  0.00    +0.000 A 
ATOM     20  C   UNL     1      45.845   3.826   7.661  0.00  0.00    +0.000 A 
ATOM     21  C   UNL     1      46.876   3.259   6.904  0.00  0.00    +0.000 A 
ENDBRANCH  14  19
ENDBRANCH  13  14
ENDBRANCH   1  13
TORSDOF 4
ENDMDL
MODEL 4
REMARK VINA RESULT:    -7.854      1.397      6.452
REMARK INTER + INTRA:         -10.424
REMARK INTER:                  -9.514
REMARK INTRA:                  -0.911
REMARK UNBOUND:                -0.733
REMARK  Name = 
REMARK  4 active torsions:
REMARK  status: ('A' for Active; 'I' for Inactive)
REMARK    1  A    between atoms: C_4  and  N_5
REMARK    2  A    between atoms: N_5  and  C_6
REMARK    3  A    between atoms: C_6  and  C_7
REMARK    4  A    between atoms: C_11  and  C_12
REMARK                            x       y       z     vdW  Elec       q    Type
REMARK                         _______ _______ _______ _____ _____    ______ ____
ROOT
ATOM      1  C   UNL     1      43.807   4.878  10.970  0.00  0.00    +0.000 A 
ATOM      2  C   UNL     1      43.175   3.895  11.740  0.00  0.00    +0.000 A 
ATOM      3  C   UNL     1      43.352   2.547  11.439  0.00  0.00    +0.000 A 
ATOM      4  C   UNL     1      44.166   2.169  10.369  0.00  0.00    +0.000 A 
ATOM      5  C   UNL     1      44.843   3.124   9.587  0.00  0.00    +0.000 A 
ATOM      6  C   UNL     1      44.657   4.480   9.920  0.00  0.00    +0.000 A 
ENDROOT
BRANCH   5   7
ATOM      7  C   UNL     1      45.674   2.701   8.436  0.00  0.00    +0.000 A 
ATOM      8  C   UNL     1      45.977   3.547   7.366  0.00  0.00    +0.000 A 
ATOM      9  C   UNL     1      46.740   3.062   6.306  0.00  0.00    +0.000 A 
ATOM     10  C   UNL     1      47.189   1.749   6.332  0.00  0.00    +0.000 A 
ATOM     11  C   UNL     1      46.859   0.975   7.427  0.00  0.00    +0.000 A 
ATOM     12  N   UNL     1      46.124   1.419   8.471  0.00  0.00    +0.000 NA
ENDBRANCH   5   7
BRANCH   1  13
ATOM     13  C   UNL     1      43.533   6.342  11.225  0.00  0.00    +0.000 C 
BRANCH  13  14
ATOM     14  N   UNL     1      44.129   6.778  12.477  0.00  0.00    +0.000 N 
ATOM     15  H   UNL     1      43.710   7.625  12.856  0.00  0.00    +0.000 HD
BRANCH  14  19
ATOM     16  C   UNL     1      48.334   6.577  12.834  0.00  0.00    +0.000 A 
ATOM     17  C   UNL     1      47.760   7.627  12.126  0.00  0.00    +0.000 A 
ATOM     18  C   UNL     1      46.369   7.714  12.004  0.00  0.00    +0.000 A 
ATOM     19  C   UNL     1      45.522   6.780  12.615  0.00  0.00    +0.000 A 
ATOM     20  C   UNL     1      46.124   5.720  13.310  0.00  0.00    +0.000 A 
ATOM     21  C   UNL     1      47.515   5.618  13.422  0.00  0.00    +0.000 A 
ENDBRANCH  14  19
ENDBRANCH  13  14
ENDBRANCH   1  13
TORSDOF 4
ENDMDL
MODEL 5
REMARK VINA RESULT:    -7.114      1.372      6.485
REMARK INTER + INTRA:          -9.510
REMARK INTER:                  -8.682
REMARK INTRA:                  -0.828
REMARK UNBOUND:                -0.733
REMARK  Name = 
REMARK  4 active torsions:
REMARK  status: ('A' for Active; 'I' for Inactive)
REMARK    1  A    between atoms: C_4  and  N_5
REMARK    2  A    between atoms: N_5  and  C_6
REMARK    3  A    between atoms: C_6  and  C_7
REMARK    4  A    between atoms: C_11  and  C_12
REMARK                            x       y       z     vdW  Elec       q    Type
REMARK                         _______ _______ _______ _____ _____    ______ ____
ROOT
ATOM      1  C   UNL     1      44.414   5.743  11.153  0.00  0.00    +0.000 A 
ATOM      2  C   UNL     1      43.470   4.986  11.855  0.00  0.00    +0.000 A 
ATOM      3  C   UNL     1      43.266   3.647  11.534  0.00  0.00    +0.000 A 
ATOM      4  C   UNL     1      44.008   3.050  10.512  0.00  0.00    +0.000 A 
ATOM      5  C   UNL     1      44.987   3.768   9.800  0.00  0.00    +0.000 A 
ATOM      6  C   UNL     1      45.183   5.117  10.152  0.00  0.00    +0.000 A 
ENDROOT
BRANCH   5   7
ATOM      7  C   UNL     1      45.738   3.123   8.697  0.00  0.00    +0.000 A 
ATOM      8  C   UNL     1      46.211   3.828   7.587  0.00  0.00    +0.000 A 
ATOM      9  C   UNL     1      46.882   3.141   6.577  0.00  0.00    +0.000 A 
ATOM     10  C   UNL     1      47.071   1.772   6.691  0.00  0.00    +0.000 A 
ATOM     11  C   UNL     1      46.585   1.144   7.821  0.00  0.00    +0.000 A 
ATOM     12  N   UNL     1      45.933   1.783   8.819  0.00  0.00    +0.000 NA
ENDBRANCH   5   7
BRANCH   1  13
ATOM     13  C   UNL     1      44.563   7.223  11.424  0.00  0.00    +0.000 C 
BRANCH  13  14
ATOM     14  N   UNL     1      45.391   7.462  12.594  0.00  0.00    +0.000 N 
ATOM     15  H   UNL     1      45.008   8.157  13.230  0.00  0.00    +0.000 HD
BRANCH  14  19
ATOM     16  C   UNL     1      49.560   8.062  12.254  0.00  0.00    +0.000 A 
ATOM     17  C   UNL     1      49.081   6.814  12.639  0.00  0.00    +0.000 A 
ATOM     18  C   UNL     1      47.703   6.595  12.749  0.00  0.00    +0.000 A 
ATOM     19  C   UNL     1      46.776   7.601  12.443  0.00  0.00    +0.000 A 
ATOM     20  C   UNL     1      47.284   8.856  12.073  0.00  0.00    +0.000 A 
ATOM     21  C   UNL     1      48.661   9.087  11.977  0.00  0.00    +0.000 A 
ENDBRANCH  14  19
ENDBRANCH  13  14
ENDBRANCH   1  13
TORSDOF 4
ENDMDL
MODEL 6
REMARK VINA RESULT:    -6.759      2.081      6.826
REMARK INTER + INTRA:          -9.073
REMARK INTER:                  -8.379
REMARK INTRA:                  -0.694
REMARK UNBOUND:                -0.733
REMARK  Name = 
REMARK  4 active torsions:
REMARK  status: ('A' for Active; 'I' for Inactive)
REMARK    1  A    between atoms: C_4  and  N_5
REMARK    2  A    between atoms: N_5  and  C_6
REMARK    3  A    between atoms: C_6  and  C_7
REMARK    4  A    between atoms: C_11  and  C_12
REMARK                            x       y       z     vdW  Elec       q    Type
REMARK                         _______ _______ _______ _____ _____    ______ ____
ROOT
ATOM      1  C   UNL     1      45.073   6.081  11.907  0.00  0.00    +0.000 A 
ATOM      2  C   UNL     1      43.687   6.021  12.080  0.00  0.00    +0.000 A 
ATOM      3  C   UNL     1      42.911   5.209  11.256  0.00  0.00    +0.000 A 
ATOM      4  C   UNL     1      43.516   4.447  10.255  0.00  0.00    +0.000 A 
ATOM      5  C   UNL     1      44.910   4.455  10.066  0.00  0.00    +0.000 A 
ATOM      6  C   UNL     1      45.673   5.275  10.920  0.00  0.00    +0.000 A 
ENDROOT
BRANCH   5   7
ATOM      7  C   UNL     1      45.526   3.664   8.975  0.00  0.00    +0.000 A 
ATOM      8  C   UNL     1      45.618   2.270   9.006  0.00  0.00    +0.000 A 
ATOM      9  C   UNL     1      46.240   1.602   7.953  0.00  0.00    +0.000 A 
ATOM     10  C   UNL     1      46.755   2.331   6.890  0.00  0.00    +0.000 A 
ATOM     11  C   UNL     1      46.618   3.705   6.923  0.00  0.00    +0.000 A 
ATOM     12  N   UNL     1      46.017   4.381   7.929  0.00  0.00    +0.000 NA
ENDBRANCH   5   7
BRANCH   1  13
ATOM     13  C   UNL     1      45.906   7.040  12.727  0.00  0.00    +0.000 C 
BRANCH  13  14
ATOM     14  N   UNL     1      47.254   6.533  12.920  0.00  0.00    +0.000 N 
ATOM     15  H   UNL     1      47.615   6.017  12.121  0.00  0.00    +0.000 HD
BRANCH  14  19
ATOM     16  C   UNL     1      48.246   4.873  16.677  0.00  0.00    +0.000 A 
ATOM     17  C   UNL     1      47.359   4.197  15.846  0.00  0.00    +0.000 A 
ATOM     18  C   UNL     1      47.026   4.728  14.595  0.00  0.00    +0.000 A 
ATOM     19  C   UNL     1      47.596   5.921  14.132  0.00  0.00    +0.000 A 
ATOM     20  C   UNL     1      48.474   6.594  14.995  0.00  0.00    +0.000 A 
ATOM     21  C   UNL     1      48.799   6.078  16.254  0.00  0.00    +0.000 A 
ENDBRANCH  14  19
ENDBRANCH  13  14
ENDBRANCH   1  13
TORSDOF 4
ENDMDL
MODEL 7
REMARK VINA RESULT:    -6.610      2.676      4.582
REMARK INTER + INTRA:          -8.889
REMARK INTER:                  -8.129
REMARK INTRA:                  -0.760
REMARK UNBOUND:                -0.733
REMARK  Name = 
REMARK  4 active torsions:
REMARK  status: ('A' for Active; 'I' for Inactive)
REMARK    1  A    between atoms: C_4  and  N_5
REMARK    2  A    between atoms: N_5  and  C_6
REMARK    3  A    between atoms: C_6  and  C_7
REMARK    4  A    between atoms: C_11  and  C_12
REMARK                            x       y       z     vdW  Elec       q    Type
REMARK                         _______ _______ _______ _____ _____    ______ ____
ROOT
ATOM      1  C   UNL     1      46.304   6.446  12.118  0.00  0.00    +0.000 A 
ATOM      2  C   UNL     1      47.300   7.309  11.650  0.00  0.00    +0.000 A 
ATOM      3  C   UNL     1      48.472   7.488  12.379  0.00  0.00    +0.000 A 
ATOM      4  C   UNL     1      48.662   6.802  13.580  0.00  0.00    +0.000 A 
ATOM      5  C   UNL     1      47.698   5.902  14.073  0.00  0.00    +0.000 A 
ATOM      6  C   UNL     1      46.526   5.730  13.311  0.00  0.00    +0.000 A 
ENDROOT
BRANCH   5   7
ATOM      7  C   UNL     1      47.906   5.211  15.367  0.00  0.00    +0.000 A 
ATOM      8  C   UNL     1      47.071   4.191  15.826  0.00  0.00    +0.000 A 
ATOM      9  C   UNL     1      47.317   3.612  17.070  0.00  0.00    +0.000 A 
ATOM     10  C   UNL     1      48.389   4.057  17.830  0.00  0.00    +0.000 A 
ATOM     11  C   UNL     1      49.178   5.063  17.307  0.00  0.00    +0.000 A 
ATOM     12  N   UNL     1      48.966   5.641  16.103  0.00  0.00    +0.000 NA
ENDBRANCH   5   7
BRANCH   1  13
ATOM     13  C   UNL     1      44.986   6.330  11.387  0.00  0.00    +0.000 C 
BRANCH  13  14
ATOM     14  N   UNL     1      44.576   4.942  11.260  0.00  0.00    +0.000 N 
ATOM     15  H   UNL     1      44.654   4.411  12.125  0.00  0.00    +0.000 HD
BRANCH  14  19
ATOM     16  C   UNL     1      45.650   2.601   7.910  0.00  0.00    +0.000 A 
ATOM     17  C   UNL     1      45.916   3.966   7.901  0.00  0.00    +0.000 A 
ATOM     18  C   UNL     1      45.574   4.756   9.005  0.00  0.00    +0.000 A 
ATOM     19  C   UNL     1      44.996   4.196  10.152  0.00  0.00    +0.000 A 
ATOM     20  C   UNL     1      44.722   2.820  10.131  0.00  0.00    +0.000 A 
ATOM     21  C   UNL     1      45.046   2.028   9.024  0.00  0.00    +0.000 A 
ENDBRANCH  14  19
ENDBRANCH  13  14
ENDBRANCH   1  13
TORSDOF 4
ENDMDL
MODEL 8
REMARK VINA RESULT:    -6.457      2.895      7.133
REMARK INTER + INTRA:          -8.700
REMARK INTER:                  -8.032
REMARK INTRA:                  -0.668
REMARK UNBOUND:                -0.733
REMARK  Name = 
REMARK  4 active torsions:
REMARK  status: ('A' for Active; 'I' for Inactive)
REMARK    1  A    between atoms: C_4  and  N_5
REMARK    2  A    between atoms: N_5  and  C_6
REMARK    3  A    between atoms: C_6  and  C_7
REMARK    4  A    between atoms: C_11  and  C_12
REMARK                            x       y       z     vdW  Elec       q    Type
REMARK                         _______ _______ _______ _____ _____    ______ ____
ROOT
ATOM      1  C   UNL     1      47.147   6.889  13.260  0.00  0.00    +0.000 A 
ATOM      2  C   UNL     1      46.428   8.088  13.240  0.00  0.00    +0.000 A 
ATOM      3  C   UNL     1      45.373   8.258  12.347  0.00  0.00    +0.000 A 
ATOM      4  C   UNL     1      45.025   7.229  11.470  0.00  0.00    +0.000 A 
ATOM      5  C   UNL     1      45.704   5.996  11.477  0.00  0.00    +0.000 A 
ATOM      6  C   UNL     1      46.759   5.846  12.398  0.00  0.00    +0.000 A 
ENDROOT
BRANCH   5   7
ATOM      7  C   UNL     1      45.339   4.931  10.514  0.00  0.00    +0.000 A 
ATOM      8  C   UNL     1      45.656   4.995   9.155  0.00  0.00    +0.000 A 
ATOM      9  C   UNL     1      45.249   3.964   8.309  0.00  0.00    +0.000 A 
ATOM     10  C   UNL     1      44.540   2.892   8.830  0.00  0.00    +0.000 A 
ATOM     11  C   UNL     1      44.271   2.893  10.185  0.00  0.00    +0.000 A 
ATOM     12  N   UNL     1      44.656   3.876  11.031  0.00  0.00    +0.000 NA
ENDBRANCH   5   7
BRANCH   1  13
ATOM     13  C   UNL     1      48.359   6.739  14.151  0.00  0.00    +0.000 C 
BRANCH  13  14
ATOM     14  N   UNL     1      47.971   6.555  15.540  0.00  0.00    +0.000 N 
ATOM     15  H   UNL     1      48.125   7.377  16.120  0.00  0.00    +0.000 HD
BRANCH  14  19
ATOM     16  C   UNL     1      49.023   2.890  17.360  0.00  0.00    +0.000 A 
ATOM     17  C   UNL     1      49.790   4.021  17.614  0.00  0.00    +0.000 A 
ATOM     18  C   UNL     1      49.452   5.246  17.026  0.00  0.00    +0.000 A 
ATOM     19  C   UNL     1      48.324   5.375  16.205  0.00  0.00    +0.000 A 
ATOM     20  C   UNL     1      47.575   4.216  15.949  0.00  0.00    +0.000 A 
ATOM     21  C   UNL     1      47.917   2.985  16.520  0.00  0.00    +0.000 A 
ENDBRANCH  14  19
ENDBRANCH  13  14
ENDBRANCH   1  13
TORSDOF 4
ENDMDL
MODEL 9
REMARK VINA RESULT:    -5.997      3.347      7.280
REMARK INTER + INTRA:          -8.132
REMARK INTER:                  -7.344
REMARK INTRA:                  -0.788
REMARK UNBOUND:                -0.733
REMARK  Name = 
REMARK  4 active torsions:
REMARK  status: ('A' for Active; 'I' for Inactive)
REMARK    1  A    between atoms: C_4  and  N_5
REMARK    2  A    between atoms: N_5  and  C_6
REMARK    3  A    between atoms: C_6  and  C_7
REMARK    4  A    between atoms: C_11  and  C_12
REMARK                            x       y       z     vdW  Elec       q    Type
REMARK                         _______ _______ _______ _____ _____    ______ ____
ROOT
ATOM      1  C   UNL     1      48.488   7.118  13.959  0.00  0.00    +0.000 A 
ATOM      2  C   UNL     1      49.115   7.762  12.888  0.00  0.00    +0.000 A 
ATOM      3  C   UNL     1      48.584   7.668  11.604  0.00  0.00    +0.000 A 
ATOM      4  C   UNL     1      47.417   6.934  11.381  0.00  0.00    +0.000 A 
ATOM      5  C   UNL     1      46.738   6.295  12.435  0.00  0.00    +0.000 A 
ATOM      6  C   UNL     1      47.290   6.415  13.726  0.00  0.00    +0.000 A 
ENDROOT
BRANCH   5   7
ATOM      7  C   UNL     1      45.521   5.493  12.169  0.00  0.00    +0.000 A 
ATOM      8  C   UNL     1      44.760   4.907  13.184  0.00  0.00    +0.000 A 
ATOM      9  C   UNL     1      43.646   4.141  12.848  0.00  0.00    +0.000 A 
ATOM     10  C   UNL     1      43.308   3.976  11.512  0.00  0.00    +0.000 A 
ATOM     11  C   UNL     1      44.101   4.593  10.564  0.00  0.00    +0.000 A 
ATOM     12  N   UNL     1      45.186   5.344  10.860  0.00  0.00    +0.000 NA
ENDBRANCH   5   7
BRANCH   1  13
ATOM     13  C   UNL     1      49.118   7.127  15.333  0.00  0.00    +0.000 C 
BRANCH  13  14
ATOM     14  N   UNL     1      48.293   6.417  16.295  0.00  0.00    +0.000 N 
ATOM     15  H   UNL     1      47.956   7.002  17.056  0.00  0.00    +0.000 HD
BRANCH  14  19
ATOM     16  C   UNL     1      49.431   2.523  17.476  0.00  0.00    +0.000 A 
ATOM     17  C   UNL     1      50.331   3.571  17.629  0.00  0.00    +0.000 A 
ATOM     18  C   UNL     1      49.969   4.869  17.251  0.00  0.00    +0.000 A 
ATOM     19  C   UNL     1      48.692   5.153  16.748  0.00  0.00    +0.000 A 
ATOM     20  C   UNL     1      47.807   4.076  16.587  0.00  0.00    +0.000 A 
ATOM     21  C   UNL     1      48.169   2.774  16.947  0.00  0.00    +0.000 A 
ENDBRANCH  14  19
ENDBRANCH  13  14
ENDBRANCH   1  13
TORSDOF 4
ENDMDL
