MODEL 1
REMARK VINA RESULT:    -7.344      0.000      0.000
REMARK INTER + INTRA:         -10.267
REMARK INTER:                  -9.705
REMARK INTRA:                  -0.562
REMARK UNBOUND:                -0.562
REMARK  Name = 
REMARK  6 active torsions:
REMARK  status: ('A' for Active; 'I' for Inactive)
REMARK    1  A    between atoms: N_1  and  C_2
REMARK    2  A    between atoms: C_2  and  C_3
REMARK    3  A    between atoms: C_3  and  O_4
REMARK    4  A    between atoms: O_4  and  C_5
REMARK    5  A    between atoms: N_13  and  C_14
REMARK    6  A    between atoms: C_14  and  C_15
REMARK                            x       y       z     vdW  Elec       q    Type
REMARK                         _______ _______ _______ _____ _____    ______ ____
ROOT
ATOM      1  C   UNL     1      47.116   4.443  14.504  0.00  0.00    +0.000 A 
ATOM      2  C   UNL     1      46.689   3.360  13.732  0.00  0.00    +0.000 A 
ATOM      3  N   UNL     1      45.868   3.448  12.658  0.00  0.00    +0.000 NA
ATOM      4  C   UNL     1      45.453   4.679  12.343  0.00  0.00    +0.000 A 
ATOM      5  C   UNL     1      45.799   5.811  13.070  0.00  0.00    +0.000 A 
ATOM      6  C   UNL     1      46.644   5.711  14.162  0.00  0.00    +0.000 A 
ATOM      7  C   UNL     1      45.154   7.014  12.468  0.00  0.00    +0.000 C 
ATOM      8  C   UNL     1      44.324   6.400  11.314  0.00  0.00    +0.000 C 
ATOM      9  N   UNL     1      44.682   4.996  11.238  0.00  0.00    +0.000 N 
ENDROOT
BRANCH   1  10
ATOM     10  O   UNL     1      47.968   4.387  15.575  0.00  0.00    +0.000 OA
BRANCH  10  11
ATOM     11  C   UNL     1      47.586   3.489  16.623  0.00  0.00    +0.000 C 
BRANCH  11  12
ATOM     12  C   UNL     1      48.824   2.738  17.117  0.00  0.00    +0.000 C 
BRANCH  12  13
ATOM     13  N   UNL     1      49.339   1.822  16.099  0.00  0.00    +0.000 NA
ATOM     14  H   UNL     1      50.009   2.318  15.510  0.00  0.00    +0.000 HD
ATOM     15  H   UNL     1      48.582   1.531  15.481  0.00  0.00    +0.000 HD
ENDBRANCH  12  13
ENDBRANCH  11  12
ENDBRANCH  10  11
ENDBRANCH   1  10
BRANCH   9  16
ATOM     16  C   UNL     1      43.985   4.000  10.464  0.00  0.00    +0.000 C 
BRANCH  16  17
ATOM     17  C   UNL     1      44.880   3.459   9.372  0.00  0.00    +0.000 A 
ATOM     18  C   UNL     1      45.507   4.332   8.466  0.00  0.00    +0.000 A 
ATOM     19  C   UNL     1      46.340   3.841   7.463  0.00  0.00    +0.000 A 
ATOM     20  C   UNL     1      46.572   2.472   7.356  0.00  0.00    +0.000 A 
ATOM     21  C   UNL     1      45.970   1.595   8.257  0.00  0.00    +0.000 A 
ATOM     22  C   UNL     1      45.130   2.084   9.261  0.00  0.00    +0.000 A 
ENDBRANCH  16  17
ENDBRANCH   9  16
TORSDOF 6
ENDMDL
MODEL 2
REMARK VINA RESULT:    -7.051      2.694      3.476
REMARK INTER + INTRA:          -9.881
REMARK INTER:                  -9.626
REMARK INTRA:                  -0.255
REMARK UNBOUND:                -0.562
REMARK  Name = 
REMARK  6 active torsions:
REMARK  status: ('A' for Active; 'I' for Inactive)
REMARK    1  A    between atoms: N_1  and  C_2
REMARK    2  A    between atoms: C_2  and  C_3
REMARK    3  A    between atoms: C_3  and  O_4
REMARK    4  A    between atoms: O_4  and  C_5
REMARK    5  A    between atoms: N_13  and  C_14
REMARK    6  A    between atoms: C_14  and  C_15
REMARK                            x       y       z     vdW  Elec       q    Type
REMARK                         _______ _______ _______ _____ _____    ______ ____
ROOT
ATOM      1  C   UNL     1      46.770   6.197  12.836  0.00  0.00    +0.000 A 
ATOM      2  C   UNL     1      46.756   6.513  11.475  0.00  0.00    +0.000 A 
ATOM      3  N   UNL     1      46.018   5.872  10.537  0.00  0.00    +0.000 NA
ATOM      4  C   UNL     1      45.258   4.867  10.982  0.00  0.00    +0.000 A 
ATOM      5  C   UNL     1      45.230   4.461  12.310  0.00  0.00    +0.000 A 
ATOM      6  C   UNL     1      45.983   5.126  13.262  0.00  0.00    +0.000 A 
ATOM      7  C   UNL     1      44.300   3.305  12.465  0.00  0.00    +0.000 C 
ATOM      8  C   UNL     1      43.838   3.057  11.007  0.00  0.00    +0.000 C 
ATOM      9  N   UNL     1      44.369   4.143  10.206  0.00  0.00    +0.000 N 
ENDROOT
BRANCH   1  10
ATOM     10  O   UNL     1      47.483   6.844  13.809  0.00  0.00    +0.000 OA
BRANCH  10  11
ATOM     11  C   UNL     1      47.670   8.250  13.608  0.00  0.00    +0.000 C 
BRANCH  11  12
ATOM     12  C   UNL     1      48.467   8.824  14.781  0.00  0.00    +0.000 C 
BRANCH  12  13
ATOM     13  N   UNL     1      47.590   9.230  15.881  0.00  0.00    +0.000 NA
ATOM     14  H   UNL     1      47.268  10.184  15.717  0.00  0.00    +0.000 HD
ATOM     15  H   UNL     1      48.120   9.257  16.752  0.00  0.00    +0.000 HD
ENDBRANCH  12  13
ENDBRANCH  11  12
ENDBRANCH  10  11
ENDBRANCH   1  10
BRANCH   9  16
ATOM     16  C   UNL     1      44.378   4.188   8.766  0.00  0.00    +0.000 C 
BRANCH  16  17
ATOM     17  C   UNL     1      45.445   3.269   8.216  0.00  0.00    +0.000 A 
ATOM     18  C   UNL     1      45.435   1.898   8.529  0.00  0.00    +0.000 A 
ATOM     19  C   UNL     1      46.410   1.043   8.019  0.00  0.00    +0.000 A 
ATOM     20  C   UNL     1      47.403   1.540   7.178  0.00  0.00    +0.000 A 
ATOM     21  C   UNL     1      47.417   2.894   6.847  0.00  0.00    +0.000 A 
ATOM     22  C   UNL     1      46.444   3.754   7.360  0.00  0.00    +0.000 A 
ENDBRANCH  16  17
ENDBRANCH   9  16
TORSDOF 6
ENDMDL
MODEL 3
REMARK VINA RESULT:    -6.824      3.190      6.379
REMARK INTER + INTRA:          -9.580
REMARK INTER:                  -9.288
REMARK INTRA:                  -0.292
REMARK UNBOUND:                -0.562
REMARK  Name = 
REMARK  6 active torsions:
REMARK  status: ('A' for Active; 'I' for Inactive)
REMARK    1  A    between atoms: N_1  and  C_2
REMARK    2  A    between atoms: C_2  and  C_3
REMARK    3  A    between atoms: C_3  and  O_4
REMARK    4  A    between atoms: O_4  and  C_5
REMARK    5  A    between atoms: N_13  and  C_14
REMARK    6  A    between atoms: C_14  and  C_15
REMARK                            x       y       z     vdW  Elec       q    Type
REMARK                         _______ _______ _______ _____ _____    ______ ____
ROOT
ATOM      1  C   UNL     1      45.243   3.471   8.392  0.00  0.00    +0.000 A 
ATOM      2  C   UNL     1      45.632   4.757   8.773  0.00  0.00    +0.000 A 
ATOM      3  N   UNL     1      45.371   5.324   9.976  0.00  0.00    +0.000 NA
ATOM      4  C   UNL     1      44.686   4.566  10.838  0.00  0.00    +0.000 A 
ATOM      5  C   UNL     1      44.231   3.288  10.538  0.00  0.00    +0.000 A 
ATOM      6  C   UNL     1      44.509   2.716   9.308  0.00  0.00    +0.000 A 
ATOM      7  C   UNL     1      43.488   2.729  11.705  0.00  0.00    +0.000 C 
ATOM      8  C   UNL     1      43.524   3.907  12.711  0.00  0.00    +0.000 C 
ATOM      9  N   UNL     1      44.391   4.921  12.143  0.00  0.00    +0.000 N 
ENDROOT
BRANCH   1  10
ATOM     10  O   UNL     1      45.519   2.864   7.196  0.00  0.00    +0.000 OA
BRANCH  10  11
ATOM     11  C   UNL     1      46.741   3.262   6.566  0.00  0.00    +0.000 C 
BRANCH  11  12
ATOM     12  C   UNL     1      47.817   2.211   6.847  0.00  0.00    +0.000 C 
BRANCH  12  13
ATOM     13  N   UNL     1      48.533   1.834   5.628  0.00  0.00    +0.000 NA
ATOM     14  H   UNL     1      48.670   2.664   5.050  0.00  0.00    +0.000 HD
ATOM     15  H   UNL     1      47.960   1.197   5.075  0.00  0.00    +0.000 HD
ENDBRANCH  12  13
ENDBRANCH  11  12
ENDBRANCH  10  11
ENDBRANCH   1  10
BRANCH   9  16
ATOM     16  C   UNL     1      44.525   6.270  12.631  0.00  0.00    +0.000 C 
BRANCH  16  17
ATOM     17  C   UNL     1      45.982   6.668  12.690  0.00  0.00    +0.000 A 
ATOM     18  C   UNL     1      46.405   7.904  12.170  0.00  0.00    +0.000 A 
ATOM     19  C   UNL     1      47.745   8.281  12.228  0.00  0.00    +0.000 A 
ATOM     20  C   UNL     1      48.683   7.437  12.817  0.00  0.00    +0.000 A 
ATOM     21  C   UNL     1      48.276   6.215  13.351  0.00  0.00    +0.000 A 
ATOM     22  C   UNL     1      46.934   5.831  13.290  0.00  0.00    +0.000 A 
ENDBRANCH  16  17
ENDBRANCH   9  16
TORSDOF 6
ENDMDL
MODEL 4
REMARK VINA RESULT:    -6.236      2.474      3.912
REMARK INTER + INTRA:          -8.803
REMARK INTER:                  -8.290
REMARK INTRA:                  -0.513
REMARK UNBOUND:                -0.562
REMARK  Name = 
REMARK  6 active torsions:
REMARK  status: ('A' for Active; 'I' for Inactive)
REMARK    1  A    between atoms: N_1  and  C_2
REMARK    2  A    between atoms: C_2  and  C_3
REMARK    3  A    between atoms: C_3  and  O_4
REMARK    4  A    between atoms: O_4  and  C_5
REMARK    5  A    between atoms: N_13  and  C_14
REMARK    6  A    between atoms: C_14  and  C_15
REMARK                            x       y       z     vdW  Elec       q    Type
REMARK                         _______ _______ _______ _____ _____    ______ ____
ROOT
ATOM      1  C   UNL     1      46.647   7.715  12.777  0.00  0.00    +0.000 A 
ATOM      2  C   UNL     1      45.827   7.733  11.647  0.00  0.00    +0.000 A 
ATOM      3  N   UNL     1      45.197   6.652  11.126  0.00  0.00    +0.000 NA
ATOM      4  C   UNL     1      45.399   5.498  11.769  0.00  0.00    +0.000 A 
ATOM      5  C   UNL     1      46.220   5.376  12.882  0.00  0.00    +0.000 A 
ATOM      6  C   UNL     1      46.855   6.488  13.409  0.00  0.00    +0.000 A 
ATOM      7  C   UNL     1      46.244   3.957  13.341  0.00  0.00    +0.000 C 
ATOM      8  C   UNL     1      45.357   3.255  12.281  0.00  0.00    +0.000 C 
ATOM      9  N   UNL     1      44.783   4.298  11.453  0.00  0.00    +0.000 N 
ENDROOT
BRANCH   1  10
ATOM     10  O   UNL     1      47.272   8.795  13.341  0.00  0.00    +0.000 OA
BRANCH  10  11
ATOM     11  C   UNL     1      48.703   8.786  13.279  0.00  0.00    +0.000 C 
BRANCH  11  12
ATOM     12  C   UNL     1      49.144   8.997  11.829  0.00  0.00    +0.000 C 
BRANCH  12  13
ATOM     13  N   UNL     1      48.873  10.362  11.377  0.00  0.00    +0.000 NA
ATOM     14  H   UNL     1      47.931  10.404  10.987  0.00  0.00    +0.000 HD
ATOM     15  H   UNL     1      49.505  10.606  10.616  0.00  0.00    +0.000 HD
ENDBRANCH  12  13
ENDBRANCH  11  12
ENDBRANCH  10  11
ENDBRANCH   1  10
BRANCH   9  16
ATOM     16  C   UNL     1      44.085   4.086  10.211  0.00  0.00    +0.000 C 
BRANCH  16  17
ATOM     17  C   UNL     1      45.015   3.496   9.177  0.00  0.00    +0.000 A 
ATOM     18  C   UNL     1      45.703   4.331   8.279  0.00  0.00    +0.000 A 
ATOM     19  C   UNL     1      46.569   3.795   7.327  0.00  0.00    +0.000 A 
ATOM     20  C   UNL     1      46.773   2.419   7.266  0.00  0.00    +0.000 A 
ATOM     21  C   UNL     1      46.109   1.579   8.160  0.00  0.00    +0.000 A 
ATOM     22  C   UNL     1      45.236   2.113   9.111  0.00  0.00    +0.000 A 
ENDBRANCH  16  17
ENDBRANCH   9  16
TORSDOF 6
ENDMDL
MODEL 5
REMARK VINA RESULT:    -5.607      2.421      7.511
REMARK INTER + INTRA:          -7.972
REMARK INTER:                  -7.609
REMARK INTRA:                  -0.363
REMARK UNBOUND:                -0.562
REMARK  Name = 
REMARK  6 active torsions:
REMARK  status: ('A' for Active; 'I' for Inactive)
REMARK    1  A    between atoms: N_1  and  C_2
REMARK    2  A    between atoms: C_2  and  C_3
REMARK    3  A    between atoms: C_3  and  O_4
REMARK    4  A    between atoms: O_4  and  C_5
REMARK    5  A    between atoms: N_13  and  C_14
REMARK    6  A    between atoms: C_14  and  C_15
REMARK                            x       y       z     vdW  Elec       q    Type
REMARK                         _______ _______ _______ _____ _____    ______ ____
ROOT
ATOM      1  C   UNL     1      45.251   4.898  11.546  0.00  0.00    +0.000 A 
ATOM      2  C   UNL     1      45.118   3.854  12.464  0.00  0.00    +0.000 A 
ATOM      3  N   UNL     1      45.793   3.759  13.635  0.00  0.00    +0.000 NA
ATOM      4  C   UNL     1      46.643   4.757  13.898  0.00  0.00    +0.000 A 
ATOM      5  C   UNL     1      46.864   5.820  13.032  0.00  0.00    +0.000 A 
ATOM      6  C   UNL     1      46.164   5.911  11.841  0.00  0.00    +0.000 A 
ATOM      7  C   UNL     1      47.882   6.743  13.614  0.00  0.00    +0.000 C 
ATOM      8  C   UNL     1      48.270   6.018  14.927  0.00  0.00    +0.000 C 
ATOM      9  N   UNL     1      47.363   4.895  15.072  0.00  0.00    +0.000 N 
ENDROOT
BRANCH   1  10
ATOM     10  O   UNL     1      44.561   5.034  10.370  0.00  0.00    +0.000 OA
BRANCH  10  11
ATOM     11  C   UNL     1      44.166   3.811   9.739  0.00  0.00    +0.000 C 
BRANCH  11  12
ATOM     12  C   UNL     1      44.840   3.711   8.369  0.00  0.00    +0.000 C 
BRANCH  12  13
ATOM     13  N   UNL     1      45.777   4.814   8.149  0.00  0.00    +0.000 NA
ATOM     14  H   UNL     1      45.339   5.689   8.441  0.00  0.00    +0.000 HD
ATOM     15  H   UNL     1      45.966   4.912   7.152  0.00  0.00    +0.000 HD
ENDBRANCH  12  13
ENDBRANCH  11  12
ENDBRANCH  10  11
ENDBRANCH   1  10
BRANCH   9  16
ATOM     16  C   UNL     1      47.511   3.823  16.024  0.00  0.00    +0.000 C 
BRANCH  16  17
ATOM     17  C   UNL     1      48.030   4.355  17.341  0.00  0.00    +0.000 A 
ATOM     18  C   UNL     1      47.210   5.149  18.161  0.00  0.00    +0.000 A 
ATOM     19  C   UNL     1      47.679   5.636  19.380  0.00  0.00    +0.000 A 
ATOM     20  C   UNL     1      48.968   5.327  19.805  0.00  0.00    +0.000 A 
ATOM     21  C   UNL     1      49.788   4.528  19.009  0.00  0.00    +0.000 A 
ATOM     22  C   UNL     1      49.323   4.043  17.784  0.00  0.00    +0.000 A 
ENDBRANCH  16  17
ENDBRANCH   9  16
TORSDOF 6
ENDMDL
MODEL 6
REMARK VINA RESULT:    -5.559      3.349      6.255
REMARK INTER + INTRA:          -7.908
REMARK INTER:                  -7.399
REMARK INTRA:                  -0.509
REMARK UNBOUND:                -0.562
REMARK  Name = 
REMARK  6 active torsions:
REMARK  status: ('A' for Active; 'I' for Inactive)
REMARK    1  A    between atoms: N_1  and  C_2
REMARK    2  A    between atoms: C_2  and  C_3
REMARK    3  A    between atoms: C_3  and  O_4
REMARK    4  A    between atoms: O_4  and  C_5
REMARK    5  A    between atoms: N_13  and  C_14
REMARK    6  A    between atoms: C_14  and  C_15
REMARK                            x       y       z     vdW  Elec       q    Type
REMARK                         _______ _______ _______ _____ _____    ______ ____
ROOT
ATOM      1  C   UNL     1      44.773   3.615  10.861  0.00  0.00    +0.000 A 
ATOM      2  C   UNL     1      44.837   4.958  10.481  0.00  0.00    +0.000 A 
ATOM      3  N   UNL     1      45.475   5.932  11.173  0.00  0.00    +0.000 NA
ATOM      4  C   UNL     1      46.077   5.543  12.301  0.00  0.00    +0.000 A 
ATOM      5  C   UNL     1      46.042   4.238  12.775  0.00  0.00    +0.000 A 
ATOM      6  C   UNL     1      45.392   3.249  12.057  0.00  0.00    +0.000 A 
ATOM      7  C   UNL     1      46.791   4.147  14.063  0.00  0.00    +0.000 C 
ATOM      8  C   UNL     1      47.215   5.618  14.300  0.00  0.00    +0.000 C 
ATOM      9  N   UNL     1      46.851   6.360  13.107  0.00  0.00    +0.000 N 
ENDROOT
BRANCH   1  10
ATOM     10  O   UNL     1      44.160   2.606  10.167  0.00  0.00    +0.000 OA
BRANCH  10  11
ATOM     11  C   UNL     1      44.476   2.534   8.772  0.00  0.00    +0.000 C 
BRANCH  11  12
ATOM     12  C   UNL     1      45.748   1.704   8.587  0.00  0.00    +0.000 C 
BRANCH  12  13
ATOM     13  N   UNL     1      46.654   2.317   7.616  0.00  0.00    +0.000 NA
ATOM     14  H   UNL     1      46.106   2.741   6.867  0.00  0.00    +0.000 HD
ATOM     15  H   UNL     1      47.225   1.597   7.174  0.00  0.00    +0.000 HD
ENDBRANCH  12  13
ENDBRANCH  11  12
ENDBRANCH  10  11
ENDBRANCH   1  10
BRANCH   9  16
ATOM     16  C   UNL     1      46.853   7.796  12.987  0.00  0.00    +0.000 C 
BRANCH  16  17
ATOM     17  C   UNL     1      48.144   8.272  12.363  0.00  0.00    +0.000 A 
ATOM     18  C   UNL     1      49.203   7.373  12.143  0.00  0.00    +0.000 A 
ATOM     19  C   UNL     1      50.394   7.803  11.559  0.00  0.00    +0.000 A 
ATOM     20  C   UNL     1      50.542   9.133  11.174  0.00  0.00    +0.000 A 
ATOM     21  C   UNL     1      49.495  10.032  11.372  0.00  0.00    +0.000 A 
ATOM     22  C   UNL     1      48.302   9.606  11.962  0.00  0.00    +0.000 A 
ENDBRANCH  16  17
ENDBRANCH   9  16
TORSDOF 6
ENDMDL
MODEL 7
REMARK VINA RESULT:    -5.529      2.203      7.134
REMARK INTER + INTRA:          -7.869
REMARK INTER:                  -7.664
REMARK INTRA:                  -0.204
REMARK UNBOUND:                -0.562
REMARK  Name = 
REMARK  6 active torsions:
REMARK  status: ('A' for Active; 'I' for Inactive)
REMARK    1  A    between atoms: N_1  and  C_2
REMARK    2  A    between atoms: C_2  and  C_3
REMARK    3  A    between atoms: C_3  and  O_4
REMARK    4  A    between atoms: O_4  and  C_5
REMARK    5  A    between atoms: N_13  and  C_14
REMARK    6  A    between atoms: C_14  and  C_15
REMARK                            x       y       z     vdW  Elec       q    Type
REMARK                         _______ _______ _______ _____ _____    ______ ____
ROOT
ATOM      1  C   UNL     1      45.859   5.206  12.081  0.00  0.00    +0.000 A 
ATOM      2  C   UNL     1      45.478   4.293  13.067  0.00  0.00    +0.000 A 
ATOM      3  N   UNL     1      46.020   4.217  14.306  0.00  0.00    +0.000 NA
ATOM      4  C   UNL     1      46.990   5.099  14.571  0.00  0.00    +0.000 A 
ATOM      5  C   UNL     1      47.455   6.023  13.645  0.00  0.00    +0.000 A 
ATOM      6  C   UNL     1      46.891   6.095  12.383  0.00  0.00    +0.000 A 
ATOM      7  C   UNL     1      48.550   6.837  14.250  0.00  0.00    +0.000 C 
ATOM      8  C   UNL     1      48.695   6.200  15.654  0.00  0.00    +0.000 C 
ATOM      9  N   UNL     1      47.612   5.246  15.799  0.00  0.00    +0.000 N 
ENDROOT
BRANCH   1  10
ATOM     10  O   UNL     1      45.310   5.323  10.832  0.00  0.00    +0.000 OA
BRANCH  10  11
ATOM     11  C   UNL     1      44.720   4.131  10.300  0.00  0.00    +0.000 C 
BRANCH  11  12
ATOM     12  C   UNL     1      45.076   4.012   8.817  0.00  0.00    +0.000 C 
BRANCH  12  13
ATOM     13  N   UNL     1      45.936   5.113   8.380  0.00  0.00    +0.000 NA
ATOM     14  H   UNL     1      45.905   5.859   9.076  0.00  0.00    +0.000 HD
ATOM     15  H   UNL     1      45.568   5.517   7.519  0.00  0.00    +0.000 HD
ENDBRANCH  12  13
ENDBRANCH  11  12
ENDBRANCH  10  11
ENDBRANCH   1  10
BRANCH   9  16
ATOM     16  C   UNL     1      47.500   4.267  16.850  0.00  0.00    +0.000 C 
BRANCH  16  17
ATOM     17  C   UNL     1      48.822   3.565  17.061  0.00  0.00    +0.000 A 
ATOM     18  C   UNL     1      49.027   2.267  16.562  0.00  0.00    +0.000 A 
ATOM     19  C   UNL     1      50.246   1.617  16.745  0.00  0.00    +0.000 A 
ATOM     20  C   UNL     1      51.284   2.257  17.418  0.00  0.00    +0.000 A 
ATOM     21  C   UNL     1      51.100   3.550  17.906  0.00  0.00    +0.000 A 
ATOM     22  C   UNL     1      49.877   4.202  17.729  0.00  0.00    +0.000 A 
ENDBRANCH  16  17
ENDBRANCH   9  16
TORSDOF 6
ENDMDL
MODEL 8
REMARK VINA RESULT:    -5.399      3.599      7.505
REMARK INTER + INTRA:          -7.697
REMARK INTER:                  -7.158
REMARK INTRA:                  -0.539
REMARK UNBOUND:                -0.562
REMARK  Name = 
REMARK  6 active torsions:
REMARK  status: ('A' for Active; 'I' for Inactive)
REMARK    1  A    between atoms: N_1  and  C_2
REMARK    2  A    between atoms: C_2  and  C_3
REMARK    3  A    between atoms: C_3  and  O_4
REMARK    4  A    between atoms: O_4  and  C_5
REMARK    5  A    between atoms: N_13  and  C_14
REMARK    6  A    between atoms: C_14  and  C_15
REMARK                            x       y       z     vdW  Elec       q    Type
REMARK                         _______ _______ _______ _____ _____    ______ ____
ROOT
ATOM      1  C   UNL     1      46.316   4.230  13.309  0.00  0.00    +0.000 A 
ATOM      2  C   UNL     1      47.031   4.245  14.508  0.00  0.00    +0.000 A 
ATOM      3  N   UNL     1      47.808   5.269  14.937  0.00  0.00    +0.000 NA
ATOM      4  C   UNL     1      47.873   6.327  14.124  0.00  0.00    +0.000 A 
ATOM      5  C   UNL     1      47.222   6.391  12.898  0.00  0.00    +0.000 A 
ATOM      6  C   UNL     1      46.425   5.342  12.473  0.00  0.00    +0.000 A 
ATOM      7  C   UNL     1      47.518   7.695  12.236  0.00  0.00    +0.000 C 
ATOM      8  C   UNL     1      48.498   8.357  13.237  0.00  0.00    +0.000 C 
ATOM      9  N   UNL     1      48.539   7.506  14.411  0.00  0.00    +0.000 N 
ENDROOT
BRANCH   1  10
ATOM     10  O   UNL     1      45.501   3.222  12.865  0.00  0.00    +0.000 OA
BRANCH  10  11
ATOM     11  C   UNL     1      44.882   3.440  11.593  0.00  0.00    +0.000 C 
BRANCH  11  12
ATOM     12  C   UNL     1      43.366   3.289  11.738  0.00  0.00    +0.000 C 
BRANCH  12  13
ATOM     13  N   UNL     1      42.954   1.887  11.649  0.00  0.00    +0.000 NA
ATOM     14  H   UNL     1      43.551   1.405  10.977  0.00  0.00    +0.000 HD
ATOM     15  H   UNL     1      42.007   1.830  11.278  0.00  0.00    +0.000 HD
ENDBRANCH  12  13
ENDBRANCH  11  12
ENDBRANCH  10  11
ENDBRANCH   1  10
BRANCH   9  16
ATOM     16  C   UNL     1      49.490   7.620  15.488  0.00  0.00    +0.000 C 
BRANCH  16  17
ATOM     17  C   UNL     1      48.811   8.125  16.741  0.00  0.00    +0.000 A 
ATOM     18  C   UNL     1      48.360   9.454  16.820  0.00  0.00    +0.000 A 
ATOM     19  C   UNL     1      47.726   9.925  17.968  0.00  0.00    +0.000 A 
ATOM     20  C   UNL     1      47.520   9.073  19.050  0.00  0.00    +0.000 A 
ATOM     21  C   UNL     1      47.948   7.748  18.980  0.00  0.00    +0.000 A 
ATOM     22  C   UNL     1      48.589   7.275  17.833  0.00  0.00    +0.000 A 
ENDBRANCH  16  17
ENDBRANCH   9  16
TORSDOF 6
ENDMDL
MODEL 9
REMARK VINA RESULT:    -4.965      3.730      8.516
REMARK INTER + INTRA:          -7.123
REMARK INTER:                  -6.633
REMARK INTRA:                  -0.490
REMARK UNBOUND:                -0.562
REMARK  Name = 
REMARK  6 active torsions:
REMARK  status: ('A' for Active; 'I' for Inactive)
REMARK    1  A    between atoms: N_1  and  C_2
REMARK    2  A    between atoms: C_2  and  C_3
REMARK    3  A    between atoms: C_3  and  O_4
REMARK    4  A    between atoms: O_4  and  C_5
REMARK    5  A    between atoms: N_13  and  C_14
REMARK    6  A    between atoms: C_14  and  C_15
REMARK                            x       y       z     vdW  Elec       q    Type
REMARK                         _______ _______ _______ _____ _____    ______ ____
ROOT
ATOM      1  C   UNL     1      47.041   5.251  13.838  0.00  0.00    +0.000 A 
ATOM      2  C   UNL     1      47.952   6.258  14.165  0.00  0.00    +0.000 A 
ATOM      3  N   UNL     1      48.600   6.365  15.350  0.00  0.00    +0.000 NA
ATOM      4  C   UNL     1      48.321   5.418  16.251  0.00  0.00    +0.000 A 
ATOM      5  C   UNL     1      47.408   4.396  16.028  0.00  0.00    +0.000 A 
ATOM      6  C   UNL     1      46.756   4.293  14.812  0.00  0.00    +0.000 A 
ATOM      7  C   UNL     1      47.316   3.527  17.238  0.00  0.00    +0.000 C 
ATOM      8  C   UNL     1      48.272   4.240  18.227  0.00  0.00    +0.000 C 
ATOM      9  N   UNL     1      48.935   5.296  17.486  0.00  0.00    +0.000 N 
ENDROOT
BRANCH   1  10
ATOM     10  O   UNL     1      46.395   5.103  12.640  0.00  0.00    +0.000 OA
BRANCH  10  11
ATOM     11  C   UNL     1      45.053   4.610  12.717  0.00  0.00    +0.000 C 
BRANCH  11  12
ATOM     12  C   UNL     1      44.942   3.323  11.897  0.00  0.00    +0.000 C 
BRANCH  12  13
ATOM     13  N   UNL     1      43.867   2.461  12.390  0.00  0.00    +0.000 NA
ATOM     14  H   UNL     1      43.713   2.653  13.381  0.00  0.00    +0.000 HD
ATOM     15  H   UNL     1      44.155   1.484  12.334  0.00  0.00    +0.000 HD
ENDBRANCH  12  13
ENDBRANCH  11  12
ENDBRANCH  10  11
ENDBRANCH   1  10
BRANCH   9  16
ATOM     16  C   UNL     1      49.730   6.348  18.068  0.00  0.00    +0.000 C 
BRANCH  16  17
ATOM     17  C   UNL     1      48.874   7.231  18.948  0.00  0.00    +0.000 A 
ATOM     18  C   UNL     1      48.094   8.255  18.385  0.00  0.00    +0.000 A 
ATOM     19  C   UNL     1      47.296   9.068  19.189  0.00  0.00    +0.000 A 
ATOM     20  C   UNL     1      47.255   8.861  20.566  0.00  0.00    +0.000 A 
ATOM     21  C   UNL     1      48.012   7.839  21.136  0.00  0.00    +0.000 A 
ATOM     22  C   UNL     1      48.817   7.027  20.334  0.00  0.00    +0.000 A 
ENDBRANCH  16  17
ENDBRANCH   9  16
TORSDOF 6
ENDMDL
