MODEL 1
REMARK VINA RESULT:    -8.042      0.000      0.000
REMARK INTER + INTRA:         -11.825
REMARK INTER:                 -10.863
REMARK INTRA:                  -0.962
REMARK UNBOUND:                -0.962
REMARK  Name = 
REMARK  7 active torsions:
REMARK  status: ('A' for Active; 'I' for Inactive)
REMARK    1  A    between atoms: C_1  and  C_2
REMARK    2  A    between atoms: C_2  and  N_3
REMARK    3  A    between atoms: C_2  and  C_16
REMARK    4  A    between atoms: C_4  and  C_6
REMARK    5  A    between atoms: C_19  and  C_20
REMARK    6  A    between atoms: C_20  and  N_21
REMARK    7  A    between atoms: C_22  and  C_24
REMARK                            x       y       z     vdW  Elec       q    Type
REMARK                         _______ _______ _______ _____ _____    ______ ____
ROOT
ATOM      1  C   UNL     1      47.045   6.346  13.226  0.00  0.00    +0.000 A 
ATOM      2  C   UNL     1      46.263   5.295  13.733  0.00  0.00    +0.000 A 
ATOM      3  C   UNL     1      45.398   4.575  12.901  0.00  0.00    +0.000 A 
ATOM      4  C   UNL     1      45.256   4.907  11.547  0.00  0.00    +0.000 A 
ATOM      5  C   UNL     1      45.998   5.982  11.046  0.00  0.00    +0.000 A 
ATOM      6  C   UNL     1      46.874   6.687  11.879  0.00  0.00    +0.000 A 
ATOM      7  F   UNL     1      47.559   7.717  11.361  0.00  0.00    +0.000 F 
ENDROOT
BRANCH   1   9
ATOM      8  C   UNL     1      47.722   8.617  14.023  0.00  0.00    +0.000 C 
ATOM      9  C   UNL     1      48.029   7.118  14.098  0.00  0.00    +0.000 C 
BRANCH   9  10
ATOM     10  N   UNL     1      47.994   6.630  15.474  0.00  0.00    +0.000 N 
ATOM     11  C   UNL     1      49.114   6.288  16.192  0.00  0.00    +0.000 C 
ATOM     12  O   UNL     1      50.252   6.384  15.745  0.00  0.00    +0.000 OA
ATOM     13  H   UNL     1      47.122   6.199  15.764  0.00  0.00    +0.000 HD
BRANCH  11  14
ATOM     14  C   UNL     1      48.874   5.876  17.581  0.00  0.00    +0.000 A 
ATOM     15  C   UNL     1      49.146   4.573  17.975  0.00  0.00    +0.000 A 
ATOM     16  S   UNL     1      48.853   4.285  19.631  0.00  0.00    +0.000 S 
ATOM     17  C   UNL     1      48.307   5.880  19.868  0.00  0.00    +0.000 A 
ATOM     18  N   UNL     1      47.872   6.300  21.087  0.00  0.00    +0.000 NA
ATOM     19  C   UNL     1      47.462   7.527  21.111  0.00  0.00    +0.000 A 
ATOM     20  N   UNL     1      47.453   8.370  20.031  0.00  0.00    +0.000 N 
ATOM     21  C   UNL     1      47.918   7.998  18.793  0.00  0.00    +0.000 A 
ATOM     22  O   UNL     1      47.956   8.793  17.859  0.00  0.00    +0.000 OA
ATOM     23  C   UNL     1      48.371   6.626  18.705  0.00  0.00    +0.000 A 
ATOM     24  H   UNL     1      47.136   9.324  20.118  0.00  0.00    +0.000 HD
ENDBRANCH  11  14
ENDBRANCH   9  10
ENDBRANCH   1   9
BRANCH   4  25
ATOM     25  C   UNL     1      44.325   4.110  10.668  0.00  0.00    +0.000 C 
BRANCH  25  26
ATOM     26  N   UNL     1      45.023   3.151   9.847  0.00  0.00    +0.000 N 
ATOM     27  C   UNL     1      45.475   3.445   8.582  0.00  0.00    +0.000 C 
ATOM     28  O   UNL     1      45.274   4.515   8.015  0.00  0.00    +0.000 OA
ATOM     29  H   UNL     1      45.242   2.226  10.201  0.00  0.00    +0.000 HD
BRANCH  27  30
ATOM     30  C   UNL     1      46.250   2.359   7.975  0.00  0.00    +0.000 A 
ATOM     31  C   UNL     1      47.279   2.496   7.063  0.00  0.00    +0.000 A 
ATOM     32  N   UNL     1      47.708   1.227   6.797  0.00  0.00    +0.000 N 
ATOM     33  C   UNL     1      46.948   0.370   7.543  0.00  0.00    +0.000 A 
ATOM     34  N   UNL     1      46.055   1.014   8.261  0.00  0.00    +0.000 NA
ATOM     35  H   UNL     1      48.455   0.964   6.169  0.00  0.00    +0.000 HD
ENDBRANCH  27  30
ENDBRANCH  25  26
ENDBRANCH   4  25
TORSDOF 6
ENDMDL
MODEL 2
REMARK VINA RESULT:    -7.792      1.482      2.226
REMARK INTER + INTRA:         -11.487
REMARK INTER:                 -10.672
REMARK INTRA:                  -0.815
REMARK UNBOUND:                -0.962
REMARK  Name = 
REMARK  7 active torsions:
REMARK  status: ('A' for Active; 'I' for Inactive)
REMARK    1  A    between atoms: C_1  and  C_2
REMARK    2  A    between atoms: C_2  and  N_3
REMARK    3  A    between atoms: C_2  and  C_16
REMARK    4  A    between atoms: C_4  and  C_6
REMARK    5  A    between atoms: C_19  and  C_20
REMARK    6  A    between atoms: C_20  and  N_21
REMARK    7  A    between atoms: C_22  and  C_24
REMARK                            x       y       z     vdW  Elec       q    Type
REMARK                         _______ _______ _______ _____ _____    ______ ____
ROOT
ATOM      1  C   UNL     1      47.055   6.644  12.917  0.00  0.00    +0.000 A 
ATOM      2  C   UNL     1      46.372   7.059  11.762  0.00  0.00    +0.000 A 
ATOM      3  C   UNL     1      45.480   6.203  11.105  0.00  0.00    +0.000 A 
ATOM      4  C   UNL     1      45.272   4.894  11.558  0.00  0.00    +0.000 A 
ATOM      5  C   UNL     1      45.984   4.459  12.682  0.00  0.00    +0.000 A 
ATOM      6  C   UNL     1      46.860   5.326  13.343  0.00  0.00    +0.000 A 
ATOM      7  F   UNL     1      47.530   4.866  14.411  0.00  0.00    +0.000 F 
ENDROOT
BRANCH   1   9
ATOM      8  C   UNL     1      47.698   9.028  13.312  0.00  0.00    +0.000 C 
ATOM      9  C   UNL     1      47.997   7.571  13.678  0.00  0.00    +0.000 C 
BRANCH   9  10
ATOM     10  N   UNL     1      47.894   7.346  15.117  0.00  0.00    +0.000 N 
ATOM     11  C   UNL     1      48.978   7.230  15.952  0.00  0.00    +0.000 C 
ATOM     12  O   UNL     1      50.137   7.328  15.563  0.00  0.00    +0.000 OA
ATOM     13  H   UNL     1      47.033   6.910  15.432  0.00  0.00    +0.000 HD
BRANCH  11  14
ATOM     14  C   UNL     1      48.665   7.065  17.378  0.00  0.00    +0.000 A 
ATOM     15  C   UNL     1      48.241   8.156  18.125  0.00  0.00    +0.000 A 
ATOM     16  S   UNL     1      47.879   7.771  19.747  0.00  0.00    +0.000 S 
ATOM     17  C   UNL     1      48.322   6.144  19.519  0.00  0.00    +0.000 A 
ATOM     18  N   UNL     1      48.269   5.249  20.543  0.00  0.00    +0.000 NA
ATOM     19  C   UNL     1      48.661   4.058  20.229  0.00  0.00    +0.000 A 
ATOM     20  N   UNL     1      49.094   3.679  18.986  0.00  0.00    +0.000 N 
ATOM     21  C   UNL     1      49.127   4.539  17.915  0.00  0.00    +0.000 A 
ATOM     22  O   UNL     1      49.461   4.156  16.798  0.00  0.00    +0.000 OA
ATOM     23  C   UNL     1      48.717   5.894  18.217  0.00  0.00    +0.000 A 
ATOM     24  H   UNL     1      49.371   2.726  18.799  0.00  0.00    +0.000 HD
ENDBRANCH  11  14
ENDBRANCH   9  10
ENDBRANCH   1   9
BRANCH   4  25
ATOM     25  C   UNL     1      44.299   3.992  10.840  0.00  0.00    +0.000 C 
BRANCH  25  26
ATOM     26  N   UNL     1      44.957   3.035   9.985  0.00  0.00    +0.000 N 
ATOM     27  C   UNL     1      45.328   3.326   8.692  0.00  0.00    +0.000 C 
ATOM     28  O   UNL     1      45.080   4.389   8.132  0.00  0.00    +0.000 OA
ATOM     29  H   UNL     1      45.208   2.115  10.330  0.00  0.00    +0.000 HD
BRANCH  27  30
ATOM     30  C   UNL     1      46.078   2.245   8.047  0.00  0.00    +0.000 A 
ATOM     31  C   UNL     1      47.019   2.384   7.045  0.00  0.00    +0.000 A 
ATOM     32  N   UNL     1      47.459   1.120   6.773  0.00  0.00    +0.000 N 
ATOM     33  C   UNL     1      46.791   0.263   7.603  0.00  0.00    +0.000 A 
ATOM     34  N   UNL     1      45.945   0.902   8.381  0.00  0.00    +0.000 NA
ATOM     35  H   UNL     1      48.156   0.859   6.089  0.00  0.00    +0.000 HD
ENDBRANCH  27  30
ENDBRANCH  25  26
ENDBRANCH   4  25
TORSDOF 6
ENDMDL
MODEL 3
REMARK VINA RESULT:    -7.497      3.846      5.428
REMARK INTER + INTRA:         -11.089
REMARK INTER:                  -9.912
REMARK INTRA:                  -1.176
REMARK UNBOUND:                -0.962
REMARK  Name = 
REMARK  7 active torsions:
REMARK  status: ('A' for Active; 'I' for Inactive)
REMARK    1  A    between atoms: C_1  and  C_2
REMARK    2  A    between atoms: C_2  and  N_3
REMARK    3  A    between atoms: C_2  and  C_16
REMARK    4  A    between atoms: C_4  and  C_6
REMARK    5  A    between atoms: C_19  and  C_20
REMARK    6  A    between atoms: C_20  and  N_21
REMARK    7  A    between atoms: C_22  and  C_24
REMARK                            x       y       z     vdW  Elec       q    Type
REMARK                         _______ _______ _______ _____ _____    ______ ____
ROOT
ATOM      1  C   UNL     1      48.019   4.945  16.108  0.00  0.00    +0.000 A 
ATOM      2  C   UNL     1      47.132   4.320  15.217  0.00  0.00    +0.000 A 
ATOM      3  C   UNL     1      46.800   4.915  13.994  0.00  0.00    +0.000 A 
ATOM      4  C   UNL     1      47.310   6.171  13.642  0.00  0.00    +0.000 A 
ATOM      5  C   UNL     1      48.159   6.821  14.546  0.00  0.00    +0.000 A 
ATOM      6  C   UNL     1      48.500   6.212  15.758  0.00  0.00    +0.000 A 
ATOM      7  F   UNL     1      49.309   6.873  16.600  0.00  0.00    +0.000 F 
ENDROOT
BRANCH   1   9
ATOM      8  C   UNL     1      47.568   3.064  17.692  0.00  0.00    +0.000 C 
ATOM      9  C   UNL     1      48.434   4.299  17.425  0.00  0.00    +0.000 C 
BRANCH   9  10
ATOM     10  N   UNL     1      49.856   3.965  17.413  0.00  0.00    +0.000 N 
ATOM     11  C   UNL     1      50.707   4.207  18.464  0.00  0.00    +0.000 C 
ATOM     12  O   UNL     1      50.340   4.708  19.522  0.00  0.00    +0.000 OA
ATOM     13  H   UNL     1      50.282   3.895  16.494  0.00  0.00    +0.000 HD
BRANCH  11  14
ATOM     14  C   UNL     1      52.088   3.744  18.280  0.00  0.00    +0.000 A 
ATOM     15  C   UNL     1      53.149   4.602  18.543  0.00  0.00    +0.000 A 
ATOM     16  S   UNL     1      54.679   3.883  18.320  0.00  0.00    +0.000 S 
ATOM     17  C   UNL     1      53.978   2.415  17.818  0.00  0.00    +0.000 A 
ATOM     18  N   UNL     1      54.750   1.357  17.448  0.00  0.00    +0.000 NA
ATOM     19  C   UNL     1      54.080   0.319  17.065  0.00  0.00    +0.000 A 
ATOM     20  N   UNL     1      52.713   0.241  17.024  0.00  0.00    +0.000 N 
ATOM     21  C   UNL     1      51.897   1.271  17.425  0.00  0.00    +0.000 A 
ATOM     22  O   UNL     1      50.676   1.151  17.436  0.00  0.00    +0.000 OA
ATOM     23  C   UNL     1      52.597   2.467  17.845  0.00  0.00    +0.000 A 
ATOM     24  H   UNL     1      52.249  -0.605  16.732  0.00  0.00    +0.000 HD
ENDBRANCH  11  14
ENDBRANCH   9  10
ENDBRANCH   1   9
BRANCH   4  25
ATOM     25  C   UNL     1      46.945   6.790  12.315  0.00  0.00    +0.000 C 
BRANCH  25  26
ATOM     26  N   UNL     1      46.519   5.811  11.346  0.00  0.00    +0.000 N 
ATOM     27  C   UNL     1      45.222   5.725  10.896  0.00  0.00    +0.000 C 
ATOM     28  O   UNL     1      44.304   6.421  11.320  0.00  0.00    +0.000 OA
ATOM     29  H   UNL     1      47.185   5.169  10.927  0.00  0.00    +0.000 HD
BRANCH  27  30
ATOM     30  C   UNL     1      45.039   4.731   9.835  0.00  0.00    +0.000 A 
ATOM     31  C   UNL     1      44.181   3.649   9.864  0.00  0.00    +0.000 A 
ATOM     32  N   UNL     1      44.337   3.021   8.662  0.00  0.00    +0.000 N 
ATOM     33  C   UNL     1      45.264   3.726   7.946  0.00  0.00    +0.000 A 
ATOM     34  N   UNL     1      45.715   4.760   8.621  0.00  0.00    +0.000 NA
ATOM     35  H   UNL     1      43.854   2.190   8.350  0.00  0.00    +0.000 HD
ENDBRANCH  27  30
ENDBRANCH  25  26
ENDBRANCH   4  25
TORSDOF 6
ENDMDL
MODEL 4
REMARK VINA RESULT:    -7.450      2.984      4.534
REMARK INTER + INTRA:         -11.025
REMARK INTER:                  -9.648
REMARK INTRA:                  -1.377
REMARK UNBOUND:                -0.962
REMARK  Name = 
REMARK  7 active torsions:
REMARK  status: ('A' for Active; 'I' for Inactive)
REMARK    1  A    between atoms: C_1  and  C_2
REMARK    2  A    between atoms: C_2  and  N_3
REMARK    3  A    between atoms: C_2  and  C_16
REMARK    4  A    between atoms: C_4  and  C_6
REMARK    5  A    between atoms: C_19  and  C_20
REMARK    6  A    between atoms: C_20  and  N_21
REMARK    7  A    between atoms: C_22  and  C_24
REMARK                            x       y       z     vdW  Elec       q    Type
REMARK                         _______ _______ _______ _____ _____    ______ ____
ROOT
ATOM      1  C   UNL     1      46.259   5.192  13.692  0.00  0.00    +0.000 A 
ATOM      2  C   UNL     1      46.048   3.866  13.282  0.00  0.00    +0.000 A 
ATOM      3  C   UNL     1      45.293   3.576  12.139  0.00  0.00    +0.000 A 
ATOM      4  C   UNL     1      44.692   4.598  11.395  0.00  0.00    +0.000 A 
ATOM      5  C   UNL     1      44.860   5.920  11.824  0.00  0.00    +0.000 A 
ATOM      6  C   UNL     1      45.630   6.203  12.956  0.00  0.00    +0.000 A 
ATOM      7  F   UNL     1      45.758   7.482  13.339  0.00  0.00    +0.000 F 
ENDROOT
BRANCH   1   9
ATOM      8  C   UNL     1      47.396   4.273  15.720  0.00  0.00    +0.000 C 
ATOM      9  C   UNL     1      47.115   5.539  14.905  0.00  0.00    +0.000 C 
BRANCH   9  10
ATOM     10  N   UNL     1      48.351   6.200  14.496  0.00  0.00    +0.000 N 
ATOM     11  C   UNL     1      48.991   7.158  15.244  0.00  0.00    +0.000 C 
ATOM     12  O   UNL     1      48.588   7.530  16.341  0.00  0.00    +0.000 OA
ATOM     13  H   UNL     1      48.530   6.213  13.496  0.00  0.00    +0.000 HD
BRANCH  11  14
ATOM     14  C   UNL     1      50.253   7.659  14.686  0.00  0.00    +0.000 A 
ATOM     15  C   UNL     1      51.421   7.582  15.434  0.00  0.00    +0.000 A 
ATOM     16  S   UNL     1      52.797   8.167  14.613  0.00  0.00    +0.000 S 
ATOM     17  C   UNL     1      51.872   8.587  13.247  0.00  0.00    +0.000 A 
ATOM     18  N   UNL     1      52.446   9.171  12.161  0.00  0.00    +0.000 NA
ATOM     19  C   UNL     1      51.617   9.458  11.211  0.00  0.00    +0.000 A 
ATOM     20  N   UNL     1      50.270   9.210  11.247  0.00  0.00    +0.000 N 
ATOM     21  C   UNL     1      49.656   8.588  12.306  0.00  0.00    +0.000 A 
ATOM     22  O   UNL     1      48.458   8.322  12.285  0.00  0.00    +0.000 OA
ATOM     23  C   UNL     1      50.537   8.262  13.408  0.00  0.00    +0.000 A 
ATOM     24  H   UNL     1      49.677   9.443  10.464  0.00  0.00    +0.000 HD
ENDBRANCH  11  14
ENDBRANCH   9  10
ENDBRANCH   1   9
BRANCH   4  25
ATOM     25  C   UNL     1      43.890   4.263  10.162  0.00  0.00    +0.000 C 
BRANCH  25  26
ATOM     26  N   UNL     1      44.619   3.432   9.236  0.00  0.00    +0.000 N 
ATOM     27  C   UNL     1      45.579   3.930   8.386  0.00  0.00    +0.000 C 
ATOM     28  O   UNL     1      45.857   5.122   8.291  0.00  0.00    +0.000 OA
ATOM     29  H   UNL     1      44.472   2.428   9.211  0.00  0.00    +0.000 HD
BRANCH  27  30
ATOM     30  C   UNL     1      46.266   2.891   7.613  0.00  0.00    +0.000 A 
ATOM     31  C   UNL     1      46.861   3.048   6.376  0.00  0.00    +0.000 A 
ATOM     32  N   UNL     1      47.384   1.827   6.059  0.00  0.00    +0.000 N 
ATOM     33  C   UNL     1      47.103   0.978   7.094  0.00  0.00    +0.000 A 
ATOM     34  N   UNL     1      46.426   1.581   8.046  0.00  0.00    +0.000 NA
ATOM     35  H   UNL     1      47.891   1.590   5.218  0.00  0.00    +0.000 HD
ENDBRANCH  27  30
ENDBRANCH  25  26
ENDBRANCH   4  25
TORSDOF 6
ENDMDL
MODEL 5
REMARK VINA RESULT:    -7.379      5.282      9.404
REMARK INTER + INTRA:         -10.929
REMARK INTER:                  -9.866
REMARK INTRA:                  -1.063
REMARK UNBOUND:                -0.962
REMARK  Name = 
REMARK  7 active torsions:
REMARK  status: ('A' for Active; 'I' for Inactive)
REMARK    1  A    between atoms: C_1  and  C_2
REMARK    2  A    between atoms: C_2  and  N_3
REMARK    3  A    between atoms: C_2  and  C_16
REMARK    4  A    between atoms: C_4  and  C_6
REMARK    5  A    between atoms: C_19  and  C_20
REMARK    6  A    between atoms: C_20  and  N_21
REMARK    7  A    between atoms: C_22  and  C_24
REMARK                            x       y       z     vdW  Elec       q    Type
REMARK                         _______ _______ _______ _____ _____    ______ ____
ROOT
ATOM      1  C   UNL     1      49.074   4.012  17.421  0.00  0.00    +0.000 A 
ATOM      2  C   UNL     1      49.991   4.996  17.827  0.00  0.00    +0.000 A 
ATOM      3  C   UNL     1      51.353   4.702  17.959  0.00  0.00    +0.000 A 
ATOM      4  C   UNL     1      51.836   3.407  17.731  0.00  0.00    +0.000 A 
ATOM      5  C   UNL     1      50.921   2.410  17.370  0.00  0.00    +0.000 A 
ATOM      6  C   UNL     1      49.565   2.716  17.223  0.00  0.00    +0.000 A 
ATOM      7  F   UNL     1      48.720   1.729  16.886  0.00  0.00    +0.000 F 
ENDROOT
BRANCH   1   9
ATOM      8  C   UNL     1      47.060   5.098  18.428  0.00  0.00    +0.000 C 
ATOM      9  C   UNL     1      47.593   4.315  17.224  0.00  0.00    +0.000 C 
BRANCH   9  10
ATOM     10  N   UNL     1      47.374   5.036  15.974  0.00  0.00    +0.000 N 
ATOM     11  C   UNL     1      47.271   4.427  14.747  0.00  0.00    +0.000 C 
ATOM     12  O   UNL     1      47.333   3.212  14.595  0.00  0.00    +0.000 OA
ATOM     13  H   UNL     1      47.666   6.009  15.972  0.00  0.00    +0.000 HD
BRANCH  11  14
ATOM     14  C   UNL     1      46.991   5.322  13.617  0.00  0.00    +0.000 A 
ATOM     15  C   UNL     1      47.942   6.250  13.214  0.00  0.00    +0.000 A 
ATOM     16  S   UNL     1      47.466   7.170  11.859  0.00  0.00    +0.000 S 
ATOM     17  C   UNL     1      45.953   6.393  11.793  0.00  0.00    +0.000 A 
ATOM     18  N   UNL     1      45.028   6.733  10.855  0.00  0.00    +0.000 NA
ATOM     19  C   UNL     1      43.916   6.078  10.943  0.00  0.00    +0.000 A 
ATOM     20  N   UNL     1      43.649   5.112  11.878  0.00  0.00    +0.000 N 
ATOM     21  C   UNL     1      44.568   4.712  12.817  0.00  0.00    +0.000 A 
ATOM     22  O   UNL     1      44.323   3.801  13.602  0.00  0.00    +0.000 OA
ATOM     23  C   UNL     1      45.825   5.428  12.776  0.00  0.00    +0.000 A 
ATOM     24  H   UNL     1      42.766   4.624  11.883  0.00  0.00    +0.000 HD
ENDBRANCH  11  14
ENDBRANCH   9  10
ENDBRANCH   1   9
BRANCH   4  25
ATOM     25  C   UNL     1      53.309   3.115  17.870  0.00  0.00    +0.000 C 
BRANCH  25  26
ATOM     26  N   UNL     1      53.613   1.713  17.723  0.00  0.00    +0.000 N 
ATOM     27  C   UNL     1      54.198   0.970  18.723  0.00  0.00    +0.000 C 
ATOM     28  O   UNL     1      54.570   1.438  19.794  0.00  0.00    +0.000 OA
ATOM     29  H   UNL     1      53.362   1.212  16.877  0.00  0.00    +0.000 HD
BRANCH  27  30
ATOM     30  C   UNL     1      54.314  -0.454  18.395  0.00  0.00    +0.000 A 
ATOM     31  C   UNL     1      54.759  -0.987  17.201  0.00  0.00    +0.000 A 
ATOM     32  N   UNL     1      54.713  -2.342  17.361  0.00  0.00    +0.000 N 
ATOM     33  C   UNL     1      54.255  -2.593  18.625  0.00  0.00    +0.000 A 
ATOM     34  N   UNL     1      53.999  -1.480  19.277  0.00  0.00    +0.000 NA
ATOM     35  H   UNL     1      54.974  -3.038  16.676  0.00  0.00    +0.000 HD
ENDBRANCH  27  30
ENDBRANCH  25  26
ENDBRANCH   4  25
TORSDOF 6
ENDMDL
MODEL 6
REMARK VINA RESULT:    -7.033      2.254      2.775
REMARK INTER + INTRA:         -10.462
REMARK INTER:                  -9.047
REMARK INTRA:                  -1.414
REMARK UNBOUND:                -0.962
REMARK  Name = 
REMARK  7 active torsions:
REMARK  status: ('A' for Active; 'I' for Inactive)
REMARK    1  A    between atoms: C_1  and  C_2
REMARK    2  A    between atoms: C_2  and  N_3
REMARK    3  A    between atoms: C_2  and  C_16
REMARK    4  A    between atoms: C_4  and  C_6
REMARK    5  A    between atoms: C_19  and  C_20
REMARK    6  A    between atoms: C_20  and  N_21
REMARK    7  A    between atoms: C_22  and  C_24
REMARK                            x       y       z     vdW  Elec       q    Type
REMARK                         _______ _______ _______ _____ _____    ______ ____
ROOT
ATOM      1  C   UNL     1      47.944   8.330  13.398  0.00  0.00    +0.000 A 
ATOM      2  C   UNL     1      46.653   8.875  13.295  0.00  0.00    +0.000 A 
ATOM      3  C   UNL     1      45.672   8.261  12.507  0.00  0.00    +0.000 A 
ATOM      4  C   UNL     1      45.960   7.108  11.766  0.00  0.00    +0.000 A 
ATOM      5  C   UNL     1      47.257   6.585  11.828  0.00  0.00    +0.000 A 
ATOM      6  C   UNL     1      48.227   7.194  12.631  0.00  0.00    +0.000 A 
ATOM      7  F   UNL     1      49.460   6.666  12.655  0.00  0.00    +0.000 F 
ENDROOT
BRANCH   1   9
ATOM      8  C   UNL     1      48.644  10.400  14.611  0.00  0.00    +0.000 C 
ATOM      9  C   UNL     1      49.018   8.951  14.284  0.00  0.00    +0.000 C 
BRANCH   9  10
ATOM     10  N   UNL     1      49.212   8.159  15.495  0.00  0.00    +0.000 N 
ATOM     11  C   UNL     1      50.388   7.527  15.815  0.00  0.00    +0.000 C 
ATOM     12  O   UNL     1      51.395   7.591  15.117  0.00  0.00    +0.000 OA
ATOM     13  H   UNL     1      48.367   7.777  15.909  0.00  0.00    +0.000 HD
BRANCH  11  14
ATOM     14  C   UNL     1      50.402   6.830  17.107  0.00  0.00    +0.000 A 
ATOM     15  C   UNL     1      51.261   7.249  18.114  0.00  0.00    +0.000 A 
ATOM     16  S   UNL     1      51.109   6.355  19.558  0.00  0.00    +0.000 S 
ATOM     17  C   UNL     1      49.922   5.345  18.873  0.00  0.00    +0.000 A 
ATOM     18  N   UNL     1      49.370   4.325  19.585  0.00  0.00    +0.000 NA
ATOM     19  C   UNL     1      48.503   3.626  18.926  0.00  0.00    +0.000 A 
ATOM     20  N   UNL     1      48.136   3.858  17.627  0.00  0.00    +0.000 N 
ATOM     21  C   UNL     1      48.639   4.899  16.886  0.00  0.00    +0.000 A 
ATOM     22  O   UNL     1      48.245   5.120  15.744  0.00  0.00    +0.000 OA
ATOM     23  C   UNL     1      49.631   5.702  17.569  0.00  0.00    +0.000 A 
ATOM     24  H   UNL     1      47.439   3.286  17.174  0.00  0.00    +0.000 HD
ENDBRANCH  11  14
ENDBRANCH   9  10
ENDBRANCH   1   9
BRANCH   4  25
ATOM     25  C   UNL     1      44.885   6.458  10.932  0.00  0.00    +0.000 C 
BRANCH  25  26
ATOM     26  N   UNL     1      45.415   5.501   9.992  0.00  0.00    +0.000 N 
ATOM     27  C   UNL     1      44.758   4.338   9.664  0.00  0.00    +0.000 C 
ATOM     28  O   UNL     1      43.705   3.978  10.183  0.00  0.00    +0.000 OA
ATOM     29  H   UNL     1      46.285   5.681   9.502  0.00  0.00    +0.000 HD
BRANCH  27  30
ATOM     30  C   UNL     1      45.426   3.570   8.610  0.00  0.00    +0.000 A 
ATOM     31  C   UNL     1      45.656   2.208   8.607  0.00  0.00    +0.000 A 
ATOM     32  N   UNL     1      46.285   1.941   7.425  0.00  0.00    +0.000 N 
ATOM     33  C   UNL     1      46.414   3.124   6.751  0.00  0.00    +0.000 A 
ATOM     34  N   UNL     1      45.914   4.129   7.435  0.00  0.00    +0.000 NA
ATOM     35  H   UNL     1      46.596   1.037   7.099  0.00  0.00    +0.000 HD
ENDBRANCH  27  30
ENDBRANCH  25  26
ENDBRANCH   4  25
TORSDOF 6
ENDMDL
MODEL 7
REMARK VINA RESULT:    -6.873      3.646      8.368
REMARK INTER + INTRA:         -10.245
REMARK INTER:                  -9.066
REMARK INTRA:                  -1.179
REMARK UNBOUND:                -0.962
REMARK  Name = 
REMARK  7 active torsions:
REMARK  status: ('A' for Active; 'I' for Inactive)
REMARK    1  A    between atoms: C_1  and  C_2
REMARK    2  A    between atoms: C_2  and  N_3
REMARK    3  A    between atoms: C_2  and  C_16
REMARK    4  A    between atoms: C_4  and  C_6
REMARK    5  A    between atoms: C_19  and  C_20
REMARK    6  A    between atoms: C_20  and  N_21
REMARK    7  A    between atoms: C_22  and  C_24
REMARK                            x       y       z     vdW  Elec       q    Type
REMARK                         _______ _______ _______ _____ _____    ______ ____
ROOT
ATOM      1  C   UNL     1      48.796   8.050  13.418  0.00  0.00    +0.000 A 
ATOM      2  C   UNL     1      50.075   7.538  13.693  0.00  0.00    +0.000 A 
ATOM      3  C   UNL     1      50.479   7.276  15.008  0.00  0.00    +0.000 A 
ATOM      4  C   UNL     1      49.635   7.555  16.090  0.00  0.00    +0.000 A 
ATOM      5  C   UNL     1      48.376   8.108  15.826  0.00  0.00    +0.000 A 
ATOM      6  C   UNL     1      47.973   8.351  14.509  0.00  0.00    +0.000 A 
ATOM      7  F   UNL     1      46.763   8.891  14.300  0.00  0.00    +0.000 F 
ENDROOT
BRANCH   1   9
ATOM      8  C   UNL     1      49.506   8.642  11.095  0.00  0.00    +0.000 C 
ATOM      9  C   UNL     1      48.313   8.301  11.994  0.00  0.00    +0.000 C 
BRANCH   9  10
ATOM     10  N   UNL     1      47.570   7.151  11.488  0.00  0.00    +0.000 N 
ATOM     11  C   UNL     1      46.200   7.099  11.411  0.00  0.00    +0.000 C 
ATOM     12  O   UNL     1      45.474   8.031  11.742  0.00  0.00    +0.000 OA
ATOM     13  H   UNL     1      48.053   6.260  11.541  0.00  0.00    +0.000 HD
BRANCH  11  14
ATOM     14  C   UNL     1      45.644   5.876  10.817  0.00  0.00    +0.000 A 
ATOM     15  C   UNL     1      45.862   5.595   9.475  0.00  0.00    +0.000 A 
ATOM     16  S   UNL     1      45.185   4.113   8.970  0.00  0.00    +0.000 S 
ATOM     17  C   UNL     1      44.536   3.819  10.515  0.00  0.00    +0.000 A 
ATOM     18  N   UNL     1      43.800   2.702  10.768  0.00  0.00    +0.000 NA
ATOM     19  C   UNL     1      43.350   2.626  11.979  0.00  0.00    +0.000 A 
ATOM     20  N   UNL     1      43.572   3.559  12.957  0.00  0.00    +0.000 N 
ATOM     21  C   UNL     1      44.340   4.680  12.755  0.00  0.00    +0.000 A 
ATOM     22  O   UNL     1      44.574   5.468  13.667  0.00  0.00    +0.000 OA
ATOM     23  C   UNL     1      44.854   4.826  11.409  0.00  0.00    +0.000 A 
ATOM     24  H   UNL     1      43.207   3.433  13.889  0.00  0.00    +0.000 HD
ENDBRANCH  11  14
ENDBRANCH   9  10
ENDBRANCH   1   9
BRANCH   4  25
ATOM     25  C   UNL     1      50.088   7.256  17.498  0.00  0.00    +0.000 C 
BRANCH  25  26
ATOM     26  N   UNL     1      50.633   5.928  17.634  0.00  0.00    +0.000 N 
ATOM     27  C   UNL     1      49.862   4.793  17.529  0.00  0.00    +0.000 C 
ATOM     28  O   UNL     1      48.644   4.806  17.377  0.00  0.00    +0.000 OA
ATOM     29  H   UNL     1      51.628   5.786  17.773  0.00  0.00    +0.000 HD
BRANCH  27  30
ATOM     30  C   UNL     1      50.642   3.554  17.593  0.00  0.00    +0.000 A 
ATOM     31  C   UNL     1      51.831   3.367  18.271  0.00  0.00    +0.000 A 
ATOM     32  N   UNL     1      52.174   2.062  18.063  0.00  0.00    +0.000 N 
ATOM     33  C   UNL     1      51.202   1.499  17.283  0.00  0.00    +0.000 A 
ATOM     34  N   UNL     1      50.265   2.368  16.974  0.00  0.00    +0.000 NA
ATOM     35  H   UNL     1      52.993   1.590  18.421  0.00  0.00    +0.000 HD
ENDBRANCH  27  30
ENDBRANCH  25  26
ENDBRANCH   4  25
TORSDOF 6
ENDMDL
MODEL 8
REMARK VINA RESULT:    -6.832      3.677      5.144
REMARK INTER + INTRA:         -10.190
REMARK INTER:                  -9.571
REMARK INTRA:                  -0.619
REMARK UNBOUND:                -0.962
REMARK  Name = 
REMARK  7 active torsions:
REMARK  status: ('A' for Active; 'I' for Inactive)
REMARK    1  A    between atoms: C_1  and  C_2
REMARK    2  A    between atoms: C_2  and  N_3
REMARK    3  A    between atoms: C_2  and  C_16
REMARK    4  A    between atoms: C_4  and  C_6
REMARK    5  A    between atoms: C_19  and  C_20
REMARK    6  A    between atoms: C_20  and  N_21
REMARK    7  A    between atoms: C_22  and  C_24
REMARK                            x       y       z     vdW  Elec       q    Type
REMARK                         _______ _______ _______ _____ _____    ______ ____
ROOT
ATOM      1  C   UNL     1      47.872   4.552  16.458  0.00  0.00    +0.000 A 
ATOM      2  C   UNL     1      47.153   3.965  15.403  0.00  0.00    +0.000 A 
ATOM      3  C   UNL     1      47.013   4.621  14.174  0.00  0.00    +0.000 A 
ATOM      4  C   UNL     1      47.549   5.899  13.973  0.00  0.00    +0.000 A 
ATOM      5  C   UNL     1      48.228   6.509  15.036  0.00  0.00    +0.000 A 
ATOM      6  C   UNL     1      48.379   5.840  16.255  0.00  0.00    +0.000 A 
ATOM      7  F   UNL     1      49.027   6.464  17.250  0.00  0.00    +0.000 F 
ENDROOT
BRANCH   1   9
ATOM      8  C   UNL     1      47.120   2.652  17.898  0.00  0.00    +0.000 C 
ATOM      9  C   UNL     1      48.080   3.841  17.790  0.00  0.00    +0.000 C 
BRANCH   9  10
ATOM     10  N   UNL     1      49.471   3.426  17.945  0.00  0.00    +0.000 N 
ATOM     11  C   UNL     1      50.072   2.465  17.169  0.00  0.00    +0.000 C 
ATOM     12  O   UNL     1      49.496   1.883  16.256  0.00  0.00    +0.000 OA
ATOM     13  H   UNL     1      49.876   3.585  18.862  0.00  0.00    +0.000 HD
BRANCH  11  14
ATOM     14  C   UNL     1      51.496   2.231  17.441  0.00  0.00    +0.000 A 
ATOM     15  C   UNL     1      51.966   0.936  17.617  0.00  0.00    +0.000 A 
ATOM     16  S   UNL     1      53.650   0.850  17.877  0.00  0.00    +0.000 S 
ATOM     17  C   UNL     1      53.802   2.545  17.811  0.00  0.00    +0.000 A 
ATOM     18  N   UNL     1      55.009   3.149  17.986  0.00  0.00    +0.000 NA
ATOM     19  C   UNL     1      54.967   4.441  17.937  0.00  0.00    +0.000 A 
ATOM     20  N   UNL     1      53.833   5.180  17.725  0.00  0.00    +0.000 N 
ATOM     21  C   UNL     1      52.603   4.609  17.506  0.00  0.00    +0.000 A 
ATOM     22  O   UNL     1      51.616   5.294  17.257  0.00  0.00    +0.000 OA
ATOM     23  C   UNL     1      52.589   3.163  17.570  0.00  0.00    +0.000 A 
ATOM     24  H   UNL     1      53.870   6.188  17.680  0.00  0.00    +0.000 HD
ENDBRANCH  11  14
ENDBRANCH   9  10
ENDBRANCH   1   9
BRANCH   4  25
ATOM     25  C   UNL     1      47.394   6.583  12.638  0.00  0.00    +0.000 C 
BRANCH  25  26
ATOM     26  N   UNL     1      46.768   5.736  11.652  0.00  0.00    +0.000 N 
ATOM     27  C   UNL     1      45.629   6.103  10.972  0.00  0.00    +0.000 C 
ATOM     28  O   UNL     1      45.010   7.141  11.185  0.00  0.00    +0.000 OA
ATOM     29  H   UNL     1      47.180   4.845  11.394  0.00  0.00    +0.000 HD
BRANCH  27  30
ATOM     30  C   UNL     1      45.232   5.139   9.943  0.00  0.00    +0.000 A 
ATOM     31  C   UNL     1      44.173   4.254  10.012  0.00  0.00    +0.000 A 
ATOM     32  N   UNL     1      44.179   3.577   8.826  0.00  0.00    +0.000 N 
ATOM     33  C   UNL     1      45.217   4.060   8.080  0.00  0.00    +0.000 A 
ATOM     34  N   UNL     1      45.879   4.999   8.721  0.00  0.00    +0.000 NA
ATOM     35  H   UNL     1      43.533   2.852   8.544  0.00  0.00    +0.000 HD
ENDBRANCH  27  30
ENDBRANCH  25  26
ENDBRANCH   4  25
TORSDOF 6
ENDMDL
MODEL 9
REMARK VINA RESULT:    -6.536      4.199      6.279
REMARK INTER + INTRA:          -9.790
REMARK INTER:                  -8.641
REMARK INTRA:                  -1.149
REMARK UNBOUND:                -0.962
REMARK  Name = 
REMARK  7 active torsions:
REMARK  status: ('A' for Active; 'I' for Inactive)
REMARK    1  A    between atoms: C_1  and  C_2
REMARK    2  A    between atoms: C_2  and  N_3
REMARK    3  A    between atoms: C_2  and  C_16
REMARK    4  A    between atoms: C_4  and  C_6
REMARK    5  A    between atoms: C_19  and  C_20
REMARK    6  A    between atoms: C_20  and  N_21
REMARK    7  A    between atoms: C_22  and  C_24
REMARK                            x       y       z     vdW  Elec       q    Type
REMARK                         _______ _______ _______ _____ _____    ______ ____
ROOT
ATOM      1  C   UNL     1      46.787   7.772  13.174  0.00  0.00    +0.000 A 
ATOM      2  C   UNL     1      45.589   7.870  12.447  0.00  0.00    +0.000 A 
ATOM      3  C   UNL     1      44.893   6.723  12.047  0.00  0.00    +0.000 A 
ATOM      4  C   UNL     1      45.391   5.444  12.324  0.00  0.00    +0.000 A 
ATOM      5  C   UNL     1      46.607   5.339  13.009  0.00  0.00    +0.000 A 
ATOM      6  C   UNL     1      47.288   6.489  13.421  0.00  0.00    +0.000 A 
ATOM      7  F   UNL     1      48.456   6.344  14.066  0.00  0.00    +0.000 F 
ENDROOT
BRANCH   1   9
ATOM      8  C   UNL     1      47.844   8.866  15.158  0.00  0.00    +0.000 C 
ATOM      9  C   UNL     1      47.541   9.003  13.663  0.00  0.00    +0.000 C 
BRANCH   9  10
ATOM     10  N   UNL     1      48.760   9.207  12.884  0.00  0.00    +0.000 N 
ATOM     11  C   UNL     1      48.837  10.028  11.786  0.00  0.00    +0.000 C 
ATOM     12  O   UNL     1      47.887  10.685  11.372  0.00  0.00    +0.000 OA
ATOM     13  H   UNL     1      49.444   8.459  12.938  0.00  0.00    +0.000 HD
BRANCH  11  14
ATOM     14  C   UNL     1      50.167  10.145  11.174  0.00  0.00    +0.000 A 
ATOM     15  C   UNL     1      50.656  11.393  10.810  0.00  0.00    +0.000 A 
ATOM     16  S   UNL     1      52.232  11.344  10.159  0.00  0.00    +0.000 S 
ATOM     17  C   UNL     1      52.297   9.649  10.299  0.00  0.00    +0.000 A 
ATOM     18  N   UNL     1      53.391   8.951   9.888  0.00  0.00    +0.000 NA
ATOM     19  C   UNL     1      53.287   7.670  10.030  0.00  0.00    +0.000 A 
ATOM     20  N   UNL     1      52.195   7.025  10.549  0.00  0.00    +0.000 N 
ATOM     21  C   UNL     1      51.088   7.693  11.010  0.00  0.00    +0.000 A 
ATOM     22  O   UNL     1      50.149   7.094  11.527  0.00  0.00    +0.000 OA
ATOM     23  C   UNL     1      51.142   9.132  10.856  0.00  0.00    +0.000 A 
ATOM     24  H   UNL     1      52.183   6.021  10.650  0.00  0.00    +0.000 HD
ENDBRANCH  11  14
ENDBRANCH   9  10
ENDBRANCH   1   9
BRANCH   4  25
ATOM     25  C   UNL     1      44.619   4.223  11.891  0.00  0.00    +0.000 C 
BRANCH  25  26
ATOM     26  N   UNL     1      45.197   3.582  10.736  0.00  0.00    +0.000 N 
ATOM     27  C   UNL     1      44.751   3.815   9.455  0.00  0.00    +0.000 C 
ATOM     28  O   UNL     1      43.790   4.530   9.185  0.00  0.00    +0.000 OA
ATOM     29  H   UNL     1      45.993   2.960  10.830  0.00  0.00    +0.000 HD
BRANCH  27  30
ATOM     30  C   UNL     1      45.553   3.143   8.430  0.00  0.00    +0.000 A 
ATOM     31  C   UNL     1      46.013   1.841   8.471  0.00  0.00    +0.000 A 
ATOM     32  N   UNL     1      46.691   1.651   7.301  0.00  0.00    +0.000 N 
ATOM     33  C   UNL     1      46.624   2.817   6.591  0.00  0.00    +0.000 A 
ATOM     34  N   UNL     1      45.951   3.742   7.240  0.00  0.00    +0.000 NA
ATOM     35  H   UNL     1      47.156   0.803   7.006  0.00  0.00    +0.000 HD
ENDBRANCH  27  30
ENDBRANCH  25  26
ENDBRANCH   4  25
TORSDOF 6
ENDMDL
