MODEL 1
REMARK VINA RESULT:    -9.007      0.000      0.000
REMARK INTER + INTRA:         -14.239
REMARK INTER:                 -13.219
REMARK INTRA:                  -1.020
REMARK UNBOUND:                -1.020
REMARK  Name = 
REMARK  8 active torsions:
REMARK  status: ('A' for Active; 'I' for Inactive)
REMARK    1  A    between atoms: C_2  and  O_3
REMARK    2  A    between atoms: C_2  and  C_20
REMARK    3  A    between atoms: O_3  and  C_4
REMARK    4  A    between atoms: C_4  and  C_5
REMARK    5  A    between atoms: C_8  and  C_9
REMARK    6  A    between atoms: C_9  and  N_10
REMARK    7  A    between atoms: N_10  and  C_11
REMARK    8  A    between atoms: C_11  and  C_12
REMARK                            x       y       z     vdW  Elec       q    Type
REMARK                         _______ _______ _______ _____ _____    ______ ____
ROOT
ATOM      1  C   UNL     1      46.508   4.948  13.586  0.00  0.00    +0.000 A 
ATOM      2  C   UNL     1      46.129   6.080  12.861  0.00  0.00    +0.000 A 
ATOM      3  C   UNL     1      45.236   5.970  11.797  0.00  0.00    +0.000 A 
ATOM      4  C   UNL     1      44.730   4.720  11.405  0.00  0.00    +0.000 A 
ATOM      5  C   UNL     1      45.107   3.589  12.141  0.00  0.00    +0.000 A 
ATOM      6  C   UNL     1      45.990   3.701  13.216  0.00  0.00    +0.000 A 
ENDROOT
BRANCH   1   7
ATOM      7  C   UNL     1      47.436   5.076  14.765  0.00  0.00    +0.000 C 
BRANCH   7   8
ATOM      8  O   UNL     1      47.761   3.787  15.296  0.00  0.00    +0.000 OA
BRANCH   8  10
ATOM      9  O   UNL     1      46.441   3.246  17.088  0.00  0.00    +0.000 OA
ATOM     10  C   UNL     1      47.512   3.621  16.621  0.00  0.00    +0.000 C 
BRANCH  10  11
ATOM     11  C   UNL     1      48.623   4.055  17.461  0.00  0.00    +0.000 A 
ATOM     12  C   UNL     1      48.487   5.149  18.302  0.00  0.00    +0.000 A 
ATOM     13  S   UNL     1      49.926   5.543  19.130  0.00  0.00    +0.000 S 
ATOM     14  C   UNL     1      50.747   4.215  18.452  0.00  0.00    +0.000 A 
ATOM     15  N   UNL     1      52.038   3.949  18.786  0.00  0.00    +0.000 NA
ATOM     16  C   UNL     1      52.518   2.881  18.242  0.00  0.00    +0.000 A 
ATOM     17  N   UNL     1      51.828   2.062  17.386  0.00  0.00    +0.000 N 
ATOM     18  C   UNL     1      50.522   2.289  17.013  0.00  0.00    +0.000 A 
ATOM     19  O   UNL     1      49.938   1.497  16.285  0.00  0.00    +0.000 OA
ATOM     20  C   UNL     1      49.941   3.488  17.593  0.00  0.00    +0.000 A 
ATOM     21  H   UNL     1      52.250   1.222  17.018  0.00  0.00    +0.000 HD
ENDBRANCH  10  11
ENDBRANCH   8  10
ENDBRANCH   7   8
ENDBRANCH   1   7
BRANCH   4  22
ATOM     22  C   UNL     1      43.757   4.559  10.258  0.00  0.00    +0.000 C 
BRANCH  22  23
ATOM     23  N   UNL     1      44.167   3.628   9.209  0.00  0.00    +0.000 NA
ATOM     24  H   UNL     1      43.358   3.370   8.648  0.00  0.00    +0.000 HD
BRANCH  23  25
ATOM     25  C   UNL     1      45.238   4.150   8.362  0.00  0.00    +0.000 C 
BRANCH  25  26
ATOM     26  C   UNL     1      45.848   3.009   7.535  0.00  0.00    +0.000 C 
ATOM     27  C   UNL     1      46.104   1.763   8.394  0.00  0.00    +0.000 C 
ATOM     28  C   UNL     1      46.840   0.698   7.597  0.00  0.00    +0.000 C 
ATOM     29  O   UNL     1      48.052   1.216   7.051  0.00  0.00    +0.000 OA
ATOM     30  C   UNL     1      47.816   2.294   6.147  0.00  0.00    +0.000 C 
ATOM     31  C   UNL     1      47.152   3.461   6.866  0.00  0.00    +0.000 C 
ENDBRANCH  25  26
ENDBRANCH  23  25
ENDBRANCH  22  23
ENDBRANCH   4  22
TORSDOF 8
ENDMDL
MODEL 2
REMARK VINA RESULT:    -8.417      1.269      2.244
REMARK INTER + INTRA:         -13.373
REMARK INTER:                 -12.314
REMARK INTRA:                  -1.059
REMARK UNBOUND:                -1.020
REMARK  Name = 
REMARK  8 active torsions:
REMARK  status: ('A' for Active; 'I' for Inactive)
REMARK    1  A    between atoms: C_2  and  O_3
REMARK    2  A    between atoms: C_2  and  C_20
REMARK    3  A    between atoms: O_3  and  C_4
REMARK    4  A    between atoms: C_4  and  C_5
REMARK    5  A    between atoms: C_8  and  C_9
REMARK    6  A    between atoms: C_9  and  N_10
REMARK    7  A    between atoms: N_10  and  C_11
REMARK    8  A    between atoms: C_11  and  C_12
REMARK                            x       y       z     vdW  Elec       q    Type
REMARK                         _______ _______ _______ _____ _____    ______ ____
ROOT
ATOM      1  C   UNL     1      46.430   4.597  13.698  0.00  0.00    +0.000 A 
ATOM      2  C   UNL     1      45.927   3.386  13.219  0.00  0.00    +0.000 A 
ATOM      3  C   UNL     1      45.088   3.361  12.105  0.00  0.00    +0.000 A 
ATOM      4  C   UNL     1      44.700   4.550  11.467  0.00  0.00    +0.000 A 
ATOM      5  C   UNL     1      45.215   5.762  11.947  0.00  0.00    +0.000 A 
ATOM      6  C   UNL     1      46.066   5.786  13.053  0.00  0.00    +0.000 A 
ENDROOT
BRANCH   1   7
ATOM      7  C   UNL     1      47.374   4.618  14.871  0.00  0.00    +0.000 C 
BRANCH   7   8
ATOM      8  O   UNL     1      47.597   3.293  15.365  0.00  0.00    +0.000 OA
BRANCH   8  10
ATOM      9  O   UNL     1      46.607   2.948  17.401  0.00  0.00    +0.000 OA
ATOM     10  C   UNL     1      47.602   3.166  16.717  0.00  0.00    +0.000 C 
BRANCH  10  11
ATOM     11  C   UNL     1      48.911   3.438  17.303  0.00  0.00    +0.000 A 
ATOM     12  C   UNL     1      50.000   2.636  16.999  0.00  0.00    +0.000 A 
ATOM     13  S   UNL     1      51.412   3.070  17.854  0.00  0.00    +0.000 S 
ATOM     14  C   UNL     1      50.629   4.390  18.591  0.00  0.00    +0.000 A 
ATOM     15  N   UNL     1      51.303   5.219  19.431  0.00  0.00    +0.000 NA
ATOM     16  C   UNL     1      50.603   6.210  19.874  0.00  0.00    +0.000 A 
ATOM     17  N   UNL     1      49.288   6.439  19.561  0.00  0.00    +0.000 N 
ATOM     18  C   UNL     1      48.560   5.628  18.720  0.00  0.00    +0.000 A 
ATOM     19  O   UNL     1      47.403   5.909  18.435  0.00  0.00    +0.000 OA
ATOM     20  C   UNL     1      49.304   4.491  18.204  0.00  0.00    +0.000 A 
ATOM     21  H   UNL     1      48.804   7.252  19.915  0.00  0.00    +0.000 HD
ENDBRANCH  10  11
ENDBRANCH   8  10
ENDBRANCH   7   8
ENDBRANCH   1   7
BRANCH   4  22
ATOM     22  C   UNL     1      43.795   4.565  10.256  0.00  0.00    +0.000 C 
BRANCH  22  23
ATOM     23  N   UNL     1      44.175   3.661   9.172  0.00  0.00    +0.000 NA
ATOM     24  H   UNL     1      43.369   3.487   8.576  0.00  0.00    +0.000 HD
BRANCH  23  25
ATOM     25  C   UNL     1      45.305   4.150   8.384  0.00  0.00    +0.000 C 
BRANCH  25  26
ATOM     26  C   UNL     1      45.882   3.004   7.541  0.00  0.00    +0.000 C 
ATOM     27  C   UNL     1      46.122   1.745   8.385  0.00  0.00    +0.000 C 
ATOM     28  C   UNL     1      46.827   0.672   7.570  0.00  0.00    +0.000 C 
ATOM     29  O   UNL     1      48.044   1.171   7.016  0.00  0.00    +0.000 OA
ATOM     30  C   UNL     1      47.820   2.262   6.124  0.00  0.00    +0.000 C 
ATOM     31  C   UNL     1      47.189   3.435   6.861  0.00  0.00    +0.000 C 
ENDBRANCH  25  26
ENDBRANCH  23  25
ENDBRANCH  22  23
ENDBRANCH   4  22
TORSDOF 8
ENDMDL
MODEL 3
REMARK VINA RESULT:    -7.884      1.919      2.597
REMARK INTER + INTRA:         -12.590
REMARK INTER:                 -11.751
REMARK INTRA:                  -0.839
REMARK UNBOUND:                -1.020
REMARK  Name = 
REMARK  8 active torsions:
REMARK  status: ('A' for Active; 'I' for Inactive)
REMARK    1  A    between atoms: C_2  and  O_3
REMARK    2  A    between atoms: C_2  and  C_20
REMARK    3  A    between atoms: O_3  and  C_4
REMARK    4  A    between atoms: C_4  and  C_5
REMARK    5  A    between atoms: C_8  and  C_9
REMARK    6  A    between atoms: C_9  and  N_10
REMARK    7  A    between atoms: N_10  and  C_11
REMARK    8  A    between atoms: C_11  and  C_12
REMARK                            x       y       z     vdW  Elec       q    Type
REMARK                         _______ _______ _______ _____ _____    ______ ____
ROOT
ATOM      1  C   UNL     1      46.890   6.342  13.006  0.00  0.00    +0.000 A 
ATOM      2  C   UNL     1      46.231   5.210  13.492  0.00  0.00    +0.000 A 
ATOM      3  C   UNL     1      45.296   4.544  12.701  0.00  0.00    +0.000 A 
ATOM      4  C   UNL     1      44.968   5.015  11.419  0.00  0.00    +0.000 A 
ATOM      5  C   UNL     1      45.638   6.146  10.934  0.00  0.00    +0.000 A 
ATOM      6  C   UNL     1      46.584   6.805  11.720  0.00  0.00    +0.000 A 
ENDROOT
BRANCH   1   7
ATOM      7  C   UNL     1      47.933   7.032  13.843  0.00  0.00    +0.000 C 
BRANCH   7   8
ATOM      8  O   UNL     1      48.542   6.112  14.755  0.00  0.00    +0.000 OA
BRANCH   8  10
ATOM      9  O   UNL     1      50.634   6.896  15.260  0.00  0.00    +0.000 OA
ATOM     10  C   UNL     1      49.479   6.643  15.584  0.00  0.00    +0.000 C 
BRANCH  10  11
ATOM     11  C   UNL     1      49.004   6.772  16.958  0.00  0.00    +0.000 A 
ATOM     12  C   UNL     1      48.469   7.969  17.410  0.00  0.00    +0.000 A 
ATOM     13  S   UNL     1      48.057   7.937  19.065  0.00  0.00    +0.000 S 
ATOM     14  C   UNL     1      48.505   6.301  19.204  0.00  0.00    +0.000 A 
ATOM     15  N   UNL     1      48.361   5.636  20.382  0.00  0.00    +0.000 NA
ATOM     16  C   UNL     1      48.686   4.387  20.330  0.00  0.00    +0.000 A 
ATOM     17  N   UNL     1      49.154   3.748  19.212  0.00  0.00    +0.000 N 
ATOM     18  C   UNL     1      49.322   4.376  17.998  0.00  0.00    +0.000 A 
ATOM     19  O   UNL     1      49.695   3.743  17.018  0.00  0.00    +0.000 OA
ATOM     20  C   UNL     1      48.978   5.788  18.009  0.00  0.00    +0.000 A 
ATOM     21  H   UNL     1      49.362   2.759  19.227  0.00  0.00    +0.000 HD
ENDBRANCH  10  11
ENDBRANCH   8  10
ENDBRANCH   7   8
ENDBRANCH   1   7
BRANCH   4  22
ATOM     22  C   UNL     1      43.962   4.320  10.530  0.00  0.00    +0.000 C 
BRANCH  22  23
ATOM     23  N   UNL     1      44.514   3.335   9.602  0.00  0.00    +0.000 NA
ATOM     24  H   UNL     1      43.828   2.601   9.436  0.00  0.00    +0.000 HD
BRANCH  23  25
ATOM     25  C   UNL     1      44.960   3.921   8.339  0.00  0.00    +0.000 C 
BRANCH  25  26
ATOM     26  C   UNL     1      45.668   2.852   7.494  0.00  0.00    +0.000 C 
ATOM     27  C   UNL     1      46.086   1.644   8.343  0.00  0.00    +0.000 C 
ATOM     28  C   UNL     1      46.912   0.666   7.523  0.00  0.00    +0.000 C 
ATOM     29  O   UNL     1      48.042   1.314   6.943  0.00  0.00    +0.000 OA
ATOM     30  C   UNL     1      47.661   2.357   6.047  0.00  0.00    +0.000 C 
ATOM     31  C   UNL     1      46.894   3.445   6.786  0.00  0.00    +0.000 C 
ENDBRANCH  25  26
ENDBRANCH  23  25
ENDBRANCH  22  23
ENDBRANCH   4  22
TORSDOF 8
ENDMDL
MODEL 4
REMARK VINA RESULT:    -7.508      1.725      2.556
REMARK INTER + INTRA:         -12.039
REMARK INTER:                 -11.265
REMARK INTRA:                  -0.773
REMARK UNBOUND:                -1.020
REMARK  Name = 
REMARK  8 active torsions:
REMARK  status: ('A' for Active; 'I' for Inactive)
REMARK    1  A    between atoms: C_2  and  O_3
REMARK    2  A    between atoms: C_2  and  C_20
REMARK    3  A    between atoms: O_3  and  C_4
REMARK    4  A    between atoms: C_4  and  C_5
REMARK    5  A    between atoms: C_8  and  C_9
REMARK    6  A    between atoms: C_9  and  N_10
REMARK    7  A    between atoms: N_10  and  C_11
REMARK    8  A    between atoms: C_11  and  C_12
REMARK                            x       y       z     vdW  Elec       q    Type
REMARK                         _______ _______ _______ _____ _____    ______ ____
ROOT
ATOM      1  C   UNL     1      46.809   4.203  13.878  0.00  0.00    +0.000 A 
ATOM      2  C   UNL     1      46.116   3.255  13.122  0.00  0.00    +0.000 A 
ATOM      3  C   UNL     1      45.434   3.636  11.967  0.00  0.00    +0.000 A 
ATOM      4  C   UNL     1      45.395   4.980  11.561  0.00  0.00    +0.000 A 
ATOM      5  C   UNL     1      46.100   5.925  12.319  0.00  0.00    +0.000 A 
ATOM      6  C   UNL     1      46.794   5.541  13.467  0.00  0.00    +0.000 A 
ENDROOT
BRANCH   1   7
ATOM      7  C   UNL     1      47.583   3.782  15.099  0.00  0.00    +0.000 C 
BRANCH   7   8
ATOM      8  O   UNL     1      46.749   3.804  16.262  0.00  0.00    +0.000 OA
BRANCH   8  10
ATOM      9  O   UNL     1      46.679   4.999  18.214  0.00  0.00    +0.000 OA
ATOM     10  C   UNL     1      47.301   4.366  17.368  0.00  0.00    +0.000 C 
BRANCH  10  11
ATOM     11  C   UNL     1      48.756   4.246  17.393  0.00  0.00    +0.000 A 
ATOM     12  C   UNL     1      49.359   3.053  17.760  0.00  0.00    +0.000 A 
ATOM     13  S   UNL     1      51.062   3.148  17.809  0.00  0.00    +0.000 S 
ATOM     14  C   UNL     1      51.044   4.760  17.261  0.00  0.00    +0.000 A 
ATOM     15  N   UNL     1      52.204   5.436  17.047  0.00  0.00    +0.000 NA
ATOM     16  C   UNL     1      52.044   6.629  16.579  0.00  0.00    +0.000 A 
ATOM     17  N   UNL     1      50.830   7.211  16.319  0.00  0.00    +0.000 N 
ATOM     18  C   UNL     1      49.628   6.571  16.523  0.00  0.00    +0.000 A 
ATOM     19  O   UNL     1      48.575   7.119  16.225  0.00  0.00    +0.000 OA
ATOM     20  C   UNL     1      49.757   5.227  17.060  0.00  0.00    +0.000 A 
ATOM     21  H   UNL     1      50.773   8.138  15.923  0.00  0.00    +0.000 HD
ENDBRANCH  10  11
ENDBRANCH   8  10
ENDBRANCH   7   8
ENDBRANCH   1   7
BRANCH   4  22
ATOM     22  C   UNL     1      44.670   5.432  10.313  0.00  0.00    +0.000 C 
BRANCH  22  23
ATOM     23  N   UNL     1      45.376   5.202   9.054  0.00  0.00    +0.000 NA
ATOM     24  H   UNL     1      46.377   5.149   9.231  0.00  0.00    +0.000 HD
BRANCH  23  25
ATOM     25  C   UNL     1      44.914   4.010   8.345  0.00  0.00    +0.000 C 
BRANCH  25  26
ATOM     26  C   UNL     1      46.115   3.123   7.986  0.00  0.00    +0.000 C 
ATOM     27  C   UNL     1      46.552   3.324   6.529  0.00  0.00    +0.000 C 
ATOM     28  C   UNL     1      47.644   2.335   6.150  0.00  0.00    +0.000 C 
ATOM     29  O   UNL     1      47.222   0.994   6.390  0.00  0.00    +0.000 OA
ATOM     30  C   UNL     1      46.937   0.759   7.768  0.00  0.00    +0.000 C 
ATOM     31  C   UNL     1      45.790   1.644   8.237  0.00  0.00    +0.000 C 
ENDBRANCH  25  26
ENDBRANCH  23  25
ENDBRANCH  22  23
ENDBRANCH   4  22
TORSDOF 8
ENDMDL
MODEL 5
REMARK VINA RESULT:    -7.409      2.287      3.129
REMARK INTER + INTRA:         -11.894
REMARK INTER:                 -10.785
REMARK INTRA:                  -1.109
REMARK UNBOUND:                -1.020
REMARK  Name = 
REMARK  8 active torsions:
REMARK  status: ('A' for Active; 'I' for Inactive)
REMARK    1  A    between atoms: C_2  and  O_3
REMARK    2  A    between atoms: C_2  and  C_20
REMARK    3  A    between atoms: O_3  and  C_4
REMARK    4  A    between atoms: C_4  and  C_5
REMARK    5  A    between atoms: C_8  and  C_9
REMARK    6  A    between atoms: C_9  and  N_10
REMARK    7  A    between atoms: N_10  and  C_11
REMARK    8  A    between atoms: C_11  and  C_12
REMARK                            x       y       z     vdW  Elec       q    Type
REMARK                         _______ _______ _______ _____ _____    ______ ____
ROOT
ATOM      1  C   UNL     1      47.191   8.080  12.919  0.00  0.00    +0.000 A 
ATOM      2  C   UNL     1      45.812   8.286  12.995  0.00  0.00    +0.000 A 
ATOM      3  C   UNL     1      44.938   7.484  12.261  0.00  0.00    +0.000 A 
ATOM      4  C   UNL     1      45.423   6.484  11.404  0.00  0.00    +0.000 A 
ATOM      5  C   UNL     1      46.808   6.276  11.339  0.00  0.00    +0.000 A 
ATOM      6  C   UNL     1      47.682   7.069  12.084  0.00  0.00    +0.000 A 
ENDROOT
BRANCH   1   7
ATOM      7  C   UNL     1      48.131   8.915  13.748  0.00  0.00    +0.000 C 
BRANCH   7   8
ATOM      8  O   UNL     1      48.227   8.399  15.080  0.00  0.00    +0.000 OA
BRANCH   8  10
ATOM      9  O   UNL     1      50.198   7.368  14.537  0.00  0.00    +0.000 OA
ATOM     10  C   UNL     1      49.255   7.540  15.301  0.00  0.00    +0.000 C 
BRANCH  10  11
ATOM     11  C   UNL     1      49.065   6.734  16.504  0.00  0.00    +0.000 A 
ATOM     12  C   UNL     1      49.509   7.189  17.735  0.00  0.00    +0.000 A 
ATOM     13  S   UNL     1      49.269   6.062  18.994  0.00  0.00    +0.000 S 
ATOM     14  C   UNL     1      48.492   4.970  17.945  0.00  0.00    +0.000 A 
ATOM     15  N   UNL     1      47.994   3.793  18.408  0.00  0.00    +0.000 NA
ATOM     16  C   UNL     1      47.380   3.088  17.517  0.00  0.00    +0.000 A 
ATOM     17  N   UNL     1      47.231   3.448  16.203  0.00  0.00    +0.000 N 
ATOM     18  C   UNL     1      47.720   4.626  15.683  0.00  0.00    +0.000 A 
ATOM     19  O   UNL     1      47.514   4.921  14.513  0.00  0.00    +0.000 OA
ATOM     20  C   UNL     1      48.429   5.449  16.648  0.00  0.00    +0.000 A 
ATOM     21  H   UNL     1      46.712   2.867  15.560  0.00  0.00    +0.000 HD
ENDBRANCH  10  11
ENDBRANCH   8  10
ENDBRANCH   7   8
ENDBRANCH   1   7
BRANCH   4  22
ATOM     22  C   UNL     1      44.509   5.592  10.594  0.00  0.00    +0.000 C 
BRANCH  22  23
ATOM     23  N   UNL     1      45.099   5.009   9.390  0.00  0.00    +0.000 NA
ATOM     24  H   UNL     1      46.078   4.790   9.564  0.00  0.00    +0.000 HD
BRANCH  23  25
ATOM     25  C   UNL     1      44.383   3.827   8.912  0.00  0.00    +0.000 C 
BRANCH  25  26
ATOM     26  C   UNL     1      45.269   3.046   7.932  0.00  0.00    +0.000 C 
ATOM     27  C   UNL     1      45.750   1.720   8.538  0.00  0.00    +0.000 C 
ATOM     28  C   UNL     1      46.742   1.031   7.614  0.00  0.00    +0.000 C 
ATOM     29  O   UNL     1      47.836   1.893   7.307  0.00  0.00    +0.000 OA
ATOM     30  C   UNL     1      47.414   3.072   6.624  0.00  0.00    +0.000 C 
ATOM     31  C   UNL     1      46.475   3.891   7.499  0.00  0.00    +0.000 C 
ENDBRANCH  25  26
ENDBRANCH  23  25
ENDBRANCH  22  23
ENDBRANCH   4  22
TORSDOF 8
ENDMDL
MODEL 6
REMARK VINA RESULT:    -7.396      2.296      2.791
REMARK INTER + INTRA:         -11.875
REMARK INTER:                 -11.138
REMARK INTRA:                  -0.737
REMARK UNBOUND:                -1.020
REMARK  Name = 
REMARK  8 active torsions:
REMARK  status: ('A' for Active; 'I' for Inactive)
REMARK    1  A    between atoms: C_2  and  O_3
REMARK    2  A    between atoms: C_2  and  C_20
REMARK    3  A    between atoms: O_3  and  C_4
REMARK    4  A    between atoms: C_4  and  C_5
REMARK    5  A    between atoms: C_8  and  C_9
REMARK    6  A    between atoms: C_9  and  N_10
REMARK    7  A    between atoms: N_10  and  C_11
REMARK    8  A    between atoms: C_11  and  C_12
REMARK                            x       y       z     vdW  Elec       q    Type
REMARK                         _______ _______ _______ _____ _____    ______ ____
ROOT
ATOM      1  C   UNL     1      47.057   6.190  12.764  0.00  0.00    +0.000 A 
ATOM      2  C   UNL     1      46.706   6.679  11.505  0.00  0.00    +0.000 A 
ATOM      3  C   UNL     1      45.661   6.096  10.788  0.00  0.00    +0.000 A 
ATOM      4  C   UNL     1      44.968   4.986  11.296  0.00  0.00    +0.000 A 
ATOM      5  C   UNL     1      45.320   4.505  12.565  0.00  0.00    +0.000 A 
ATOM      6  C   UNL     1      46.356   5.097  13.288  0.00  0.00    +0.000 A 
ENDROOT
BRANCH   1   7
ATOM      7  C   UNL     1      48.155   6.850  13.557  0.00  0.00    +0.000 C 
BRANCH   7   8
ATOM      8  O   UNL     1      47.947   6.666  14.961  0.00  0.00    +0.000 OA
BRANCH   8  10
ATOM      9  O   UNL     1      50.197   6.629  15.386  0.00  0.00    +0.000 OA
ATOM     10  C   UNL     1      49.047   6.312  15.674  0.00  0.00    +0.000 C 
BRANCH  10  11
ATOM     11  C   UNL     1      48.738   5.398  16.769  0.00  0.00    +0.000 A 
ATOM     12  C   UNL     1      48.140   4.173  16.518  0.00  0.00    +0.000 A 
ATOM     13  S   UNL     1      47.783   3.296  17.938  0.00  0.00    +0.000 S 
ATOM     14  C   UNL     1      48.492   4.492  18.922  0.00  0.00    +0.000 A 
ATOM     15  N   UNL     1      48.555   4.336  20.271  0.00  0.00    +0.000 NA
ATOM     16  C   UNL     1      49.169   5.291  20.888  0.00  0.00    +0.000 A 
ATOM     17  N   UNL     1      49.712   6.392  20.278  0.00  0.00    +0.000 N 
ATOM     18  C   UNL     1      49.671   6.599  18.917  0.00  0.00    +0.000 A 
ATOM     19  O   UNL     1      50.217   7.575  18.421  0.00  0.00    +0.000 OA
ATOM     20  C   UNL     1      48.980   5.554  18.181  0.00  0.00    +0.000 A 
ATOM     21  H   UNL     1      50.208   7.090  20.813  0.00  0.00    +0.000 HD
ENDBRANCH  10  11
ENDBRANCH   8  10
ENDBRANCH   7   8
ENDBRANCH   1   7
BRANCH   4  22
ATOM     22  C   UNL     1      43.828   4.328  10.552  0.00  0.00    +0.000 C 
BRANCH  22  23
ATOM     23  N   UNL     1      44.218   3.370   9.518  0.00  0.00    +0.000 NA
ATOM     24  H   UNL     1      43.393   2.881   9.179  0.00  0.00    +0.000 HD
BRANCH  23  25
ATOM     25  C   UNL     1      44.946   3.985   8.409  0.00  0.00    +0.000 C 
BRANCH  25  26
ATOM     26  C   UNL     1      45.615   2.894   7.561  0.00  0.00    +0.000 C 
ATOM     27  C   UNL     1      46.041   1.694   8.417  0.00  0.00    +0.000 C 
ATOM     28  C   UNL     1      46.830   0.692   7.589  0.00  0.00    +0.000 C 
ATOM     29  O   UNL     1      47.952   1.315   6.968  0.00  0.00    +0.000 OA
ATOM     30  C   UNL     1      47.560   2.350   6.066  0.00  0.00    +0.000 C 
ATOM     31  C   UNL     1      46.829   3.459   6.811  0.00  0.00    +0.000 C 
ENDBRANCH  25  26
ENDBRANCH  23  25
ENDBRANCH  22  23
ENDBRANCH   4  22
TORSDOF 8
ENDMDL
MODEL 7
REMARK VINA RESULT:    -7.070      2.088      2.742
REMARK INTER + INTRA:         -11.396
REMARK INTER:                 -10.427
REMARK INTRA:                  -0.969
REMARK UNBOUND:                -1.020
REMARK  Name = 
REMARK  8 active torsions:
REMARK  status: ('A' for Active; 'I' for Inactive)
REMARK    1  A    between atoms: C_2  and  O_3
REMARK    2  A    between atoms: C_2  and  C_20
REMARK    3  A    between atoms: O_3  and  C_4
REMARK    4  A    between atoms: C_4  and  C_5
REMARK    5  A    between atoms: C_8  and  C_9
REMARK    6  A    between atoms: C_9  and  N_10
REMARK    7  A    between atoms: N_10  and  C_11
REMARK    8  A    between atoms: C_11  and  C_12
REMARK                            x       y       z     vdW  Elec       q    Type
REMARK                         _______ _______ _______ _____ _____    ______ ____
ROOT
ATOM      1  C   UNL     1      46.968   6.400  12.751  0.00  0.00    +0.000 A 
ATOM      2  C   UNL     1      46.482   5.378  13.568  0.00  0.00    +0.000 A 
ATOM      3  C   UNL     1      45.495   4.511  13.101  0.00  0.00    +0.000 A 
ATOM      4  C   UNL     1      44.942   4.669  11.821  0.00  0.00    +0.000 A 
ATOM      5  C   UNL     1      45.440   5.691  11.001  0.00  0.00    +0.000 A 
ATOM      6  C   UNL     1      46.438   6.550  11.463  0.00  0.00    +0.000 A 
ENDROOT
BRANCH   1   7
ATOM      7  C   UNL     1      48.068   7.306  13.239  0.00  0.00    +0.000 C 
BRANCH   7   8
ATOM      8  O   UNL     1      48.993   6.584  14.058  0.00  0.00    +0.000 OA
BRANCH   8  10
ATOM      9  O   UNL     1      49.388   8.323  15.496  0.00  0.00    +0.000 OA
ATOM     10  C   UNL     1      49.238   7.124  15.280  0.00  0.00    +0.000 C 
BRANCH  10  11
ATOM     11  C   UNL     1      49.431   6.112  16.314  0.00  0.00    +0.000 A 
ATOM     12  C   UNL     1      48.357   5.378  16.791  0.00  0.00    +0.000 A 
ATOM     13  S   UNL     1      48.780   4.313  18.055  0.00  0.00    +0.000 S 
ATOM     14  C   UNL     1      50.424   4.743  17.943  0.00  0.00    +0.000 A 
ATOM     15  N   UNL     1      51.355   4.152  18.739  0.00  0.00    +0.000 NA
ATOM     16  C   UNL     1      52.567   4.531  18.510  0.00  0.00    +0.000 A 
ATOM     17  N   UNL     1      52.931   5.456  17.565  0.00  0.00    +0.000 N 
ATOM     18  C   UNL     1      52.028   6.085  16.738  0.00  0.00    +0.000 A 
ATOM     19  O   UNL     1      52.415   6.865  15.877  0.00  0.00    +0.000 OA
ATOM     20  C   UNL     1      50.646   5.698  16.967  0.00  0.00    +0.000 A 
ATOM     21  H   UNL     1      53.902   5.687  17.412  0.00  0.00    +0.000 HD
ENDBRANCH  10  11
ENDBRANCH   8  10
ENDBRANCH   7   8
ENDBRANCH   1   7
BRANCH   4  22
ATOM     22  C   UNL     1      43.872   3.748  11.277  0.00  0.00    +0.000 C 
BRANCH  22  23
ATOM     23  N   UNL     1      44.353   2.638  10.455  0.00  0.00    +0.000 NA
ATOM     24  H   UNL     1      43.744   1.832  10.583  0.00  0.00    +0.000 HD
BRANCH  23  25
ATOM     25  C   UNL     1      44.466   2.979   9.038  0.00  0.00    +0.000 C 
BRANCH  25  26
ATOM     26  C   UNL     1      45.828   2.515   8.502  0.00  0.00    +0.000 C 
ATOM     27  C   UNL     1      46.237   3.295   7.245  0.00  0.00    +0.000 C 
ATOM     28  C   UNL     1      47.513   2.725   6.646  0.00  0.00    +0.000 C 
ATOM     29  O   UNL     1      47.371   1.332   6.374  0.00  0.00    +0.000 OA
ATOM     30  C   UNL     1      47.120   0.577   7.559  0.00  0.00    +0.000 C 
ATOM     31  C   UNL     1      45.809   1.010   8.202  0.00  0.00    +0.000 C 
ENDBRANCH  25  26
ENDBRANCH  23  25
ENDBRANCH  22  23
ENDBRANCH   4  22
TORSDOF 8
ENDMDL
MODEL 8
REMARK VINA RESULT:    -6.981      3.040      9.266
REMARK INTER + INTRA:         -11.265
REMARK INTER:                 -10.206
REMARK INTRA:                  -1.059
REMARK UNBOUND:                -1.020
REMARK  Name = 
REMARK  8 active torsions:
REMARK  status: ('A' for Active; 'I' for Inactive)
REMARK    1  A    between atoms: C_2  and  O_3
REMARK    2  A    between atoms: C_2  and  C_20
REMARK    3  A    between atoms: O_3  and  C_4
REMARK    4  A    between atoms: C_4  and  C_5
REMARK    5  A    between atoms: C_8  and  C_9
REMARK    6  A    between atoms: C_9  and  N_10
REMARK    7  A    between atoms: N_10  and  C_11
REMARK    8  A    between atoms: C_11  and  C_12
REMARK                            x       y       z     vdW  Elec       q    Type
REMARK                         _______ _______ _______ _____ _____    ______ ____
ROOT
ATOM      1  C   UNL     1      47.507   5.617  14.193  0.00  0.00    +0.000 A 
ATOM      2  C   UNL     1      46.949   4.432  14.677  0.00  0.00    +0.000 A 
ATOM      3  C   UNL     1      47.258   3.977  15.958  0.00  0.00    +0.000 A 
ATOM      4  C   UNL     1      48.164   4.675  16.773  0.00  0.00    +0.000 A 
ATOM      5  C   UNL     1      48.715   5.869  16.285  0.00  0.00    +0.000 A 
ATOM      6  C   UNL     1      48.393   6.331  15.008  0.00  0.00    +0.000 A 
ENDROOT
BRANCH   1   7
ATOM      7  C   UNL     1      47.135   6.131  12.828  0.00  0.00    +0.000 C 
BRANCH   7   8
ATOM      8  O   UNL     1      45.884   6.826  12.871  0.00  0.00    +0.000 OA
BRANCH   8  10
ATOM      9  O   UNL     1      44.736   7.639  11.064  0.00  0.00    +0.000 OA
ATOM     10  C   UNL     1      45.107   6.703  11.764  0.00  0.00    +0.000 C 
BRANCH  10  11
ATOM     11  C   UNL     1      44.646   5.335  11.550  0.00  0.00    +0.000 A 
ATOM     12  C   UNL     1      43.827   4.713  12.479  0.00  0.00    +0.000 A 
ATOM     13  S   UNL     1      43.474   3.091  12.085  0.00  0.00    +0.000 S 
ATOM     14  C   UNL     1      44.338   3.199  10.621  0.00  0.00    +0.000 A 
ATOM     15  N   UNL     1      44.399   2.143   9.768  0.00  0.00    +0.000 NA
ATOM     16  C   UNL     1      45.039   2.382   8.672  0.00  0.00    +0.000 A 
ATOM     17  N   UNL     1      45.632   3.577   8.358  0.00  0.00    +0.000 N 
ATOM     18  C   UNL     1      45.603   4.674   9.189  0.00  0.00    +0.000 A 
ATOM     19  O   UNL     1      46.107   5.733   8.836  0.00  0.00    +0.000 OA
ATOM     20  C   UNL     1      44.902   4.450  10.442  0.00  0.00    +0.000 A 
ATOM     21  H   UNL     1      46.092   3.711   7.469  0.00  0.00    +0.000 HD
ENDBRANCH  10  11
ENDBRANCH   8  10
ENDBRANCH   7   8
ENDBRANCH   1   7
BRANCH   4  22
ATOM     22  C   UNL     1      48.524   4.217  18.168  0.00  0.00    +0.000 C 
BRANCH  22  23
ATOM     23  N   UNL     1      49.895   3.741  18.342  0.00  0.00    +0.000 NA
ATOM     24  H   UNL     1      50.043   3.478  19.314  0.00  0.00    +0.000 HD
BRANCH  23  25
ATOM     25  C   UNL     1      50.238   2.634  17.451  0.00  0.00    +0.000 C 
BRANCH  25  26
ATOM     26  C   UNL     1      51.746   2.356  17.527  0.00  0.00    +0.000 C 
ATOM     27  C   UNL     1      52.036   0.864  17.734  0.00  0.00    +0.000 C 
ATOM     28  C   UNL     1      53.522   0.626  17.953  0.00  0.00    +0.000 C 
ATOM     29  O   UNL     1      54.008   1.410  19.042  0.00  0.00    +0.000 OA
ATOM     30  C   UNL     1      53.862   2.809  18.803  0.00  0.00    +0.000 C 
ATOM     31  C   UNL     1      52.392   3.176  18.651  0.00  0.00    +0.000 C 
ENDBRANCH  25  26
ENDBRANCH  23  25
ENDBRANCH  22  23
ENDBRANCH   4  22
TORSDOF 8
ENDMDL
MODEL 9
REMARK VINA RESULT:    -6.711      3.707      8.742
REMARK INTER + INTRA:         -10.870
REMARK INTER:                  -9.328
REMARK INTRA:                  -1.542
REMARK UNBOUND:                -1.020
REMARK  Name = 
REMARK  8 active torsions:
REMARK  status: ('A' for Active; 'I' for Inactive)
REMARK    1  A    between atoms: C_2  and  O_3
REMARK    2  A    between atoms: C_2  and  C_20
REMARK    3  A    between atoms: O_3  and  C_4
REMARK    4  A    between atoms: C_4  and  C_5
REMARK    5  A    between atoms: C_8  and  C_9
REMARK    6  A    between atoms: C_9  and  N_10
REMARK    7  A    between atoms: N_10  and  C_11
REMARK    8  A    between atoms: C_11  and  C_12
REMARK                            x       y       z     vdW  Elec       q    Type
REMARK                         _______ _______ _______ _____ _____    ______ ____
ROOT
ATOM      1  C   UNL     1      48.875   7.969  15.195  0.00  0.00    +0.000 A 
ATOM      2  C   UNL     1      49.939   7.076  15.331  0.00  0.00    +0.000 A 
ATOM      3  C   UNL     1      50.442   6.766  16.594  0.00  0.00    +0.000 A 
ATOM      4  C   UNL     1      49.920   7.371  17.749  0.00  0.00    +0.000 A 
ATOM      5  C   UNL     1      48.846   8.259  17.606  0.00  0.00    +0.000 A 
ATOM      6  C   UNL     1      48.332   8.559  16.344  0.00  0.00    +0.000 A 
ENDROOT
BRANCH   1   7
ATOM      7  C   UNL     1      48.301   8.266  13.835  0.00  0.00    +0.000 C 
BRANCH   7   8
ATOM      8  O   UNL     1      47.036   7.619  13.665  0.00  0.00    +0.000 OA
BRANCH   8  10
ATOM      9  O   UNL     1      48.071   5.733  12.879  0.00  0.00    +0.000 OA
ATOM     10  C   UNL     1      47.071   6.431  13.006  0.00  0.00    +0.000 C 
BRANCH  10  11
ATOM     11  C   UNL     1      45.807   6.117  12.348  0.00  0.00    +0.000 A 
ATOM     12  C   UNL     1      45.110   7.094  11.655  0.00  0.00    +0.000 A 
ATOM     13  S   UNL     1      43.618   6.544  11.035  0.00  0.00    +0.000 S 
ATOM     14  C   UNL     1      43.900   4.964  11.604  0.00  0.00    +0.000 A 
ATOM     15  N   UNL     1      43.005   3.968  11.367  0.00  0.00    +0.000 NA
ATOM     16  C   UNL     1      43.372   2.810  11.805  0.00  0.00    +0.000 A 
ATOM     17  N   UNL     1      44.545   2.561  12.468  0.00  0.00    +0.000 N 
ATOM     18  C   UNL     1      45.481   3.534  12.737  0.00  0.00    +0.000 A 
ATOM     19  O   UNL     1      46.536   3.246  13.289  0.00  0.00    +0.000 OA
ATOM     20  C   UNL     1      45.108   4.859  12.272  0.00  0.00    +0.000 A 
ATOM     21  H   UNL     1      44.789   1.625  12.759  0.00  0.00    +0.000 HD
ENDBRANCH  10  11
ENDBRANCH   8  10
ENDBRANCH   7   8
ENDBRANCH   1   7
BRANCH   4  22
ATOM     22  C   UNL     1      50.436   7.059  19.135  0.00  0.00    +0.000 C 
BRANCH  22  23
ATOM     23  N   UNL     1      50.458   5.642  19.497  0.00  0.00    +0.000 NA
ATOM     24  H   UNL     1      51.163   5.486  20.214  0.00  0.00    +0.000 HD
BRANCH  23  25
ATOM     25  C   UNL     1      49.156   5.140  19.934  0.00  0.00    +0.000 C 
BRANCH  25  26
ATOM     26  C   UNL     1      48.646   4.089  18.937  0.00  0.00    +0.000 C 
ATOM     27  C   UNL     1      49.791   3.495  18.106  0.00  0.00    +0.000 C 
ATOM     28  C   UNL     1      49.252   2.567  17.028  0.00  0.00    +0.000 C 
ATOM     29  O   UNL     1      48.303   3.241  16.204  0.00  0.00    +0.000 OA
ATOM     30  C   UNL     1      47.168   3.685  16.946  0.00  0.00    +0.000 C 
ATOM     31  C   UNL     1      47.584   4.693  18.009  0.00  0.00    +0.000 C 
ENDBRANCH  25  26
ENDBRANCH  23  25
ENDBRANCH  22  23
ENDBRANCH   4  22
TORSDOF 8
ENDMDL
