MODEL 1
REMARK VINA RESULT:    -7.539      0.000      0.000
REMARK INTER + INTRA:         -12.459
REMARK INTER:                 -11.726
REMARK INTRA:                  -0.734
REMARK UNBOUND:                -0.734
REMARK  Name = 
REMARK  12 active torsions:
REMARK  status: ('A' for Active; 'I' for Inactive)
REMARK    1  A    between atoms: C_1  and  O_2
REMARK    2  A    between atoms: O_2  and  C_3
REMARK    3  A    between atoms: C_3  and  C_4
REMARK    4  A    between atoms: C_4  and  N_5
REMARK    5  A    between atoms: C_4  and  C_6
REMARK    6  A    between atoms: C_6  and  O_7
REMARK    7  A    between atoms: O_7  and  C_8
REMARK    8  A    between atoms: C_11  and  N_12
REMARK    9  A    between atoms: N_12  and  C_13
REMARK   10  A    between atoms: C_13  and  C_14
REMARK   11  A    between atoms: C_17  and  O_18
REMARK   12  A    between atoms: O_18  and  C_19
REMARK                            x       y       z     vdW  Elec       q    Type
REMARK                         _______ _______ _______ _____ _____    ______ ____
ROOT
ATOM      1  C   UNL     1      46.772   5.105  13.854  0.00  0.00    +0.000 A 
ATOM      2  C   UNL     1      47.092   5.996  12.846  0.00  0.00    +0.000 A 
ATOM      3  N   UNL     1      46.343   6.133  11.720  0.00  0.00    +0.000 NA
ATOM      4  C   UNL     1      45.263   5.328  11.616  0.00  0.00    +0.000 A 
ATOM      5  C   UNL     1      44.920   4.494  12.683  0.00  0.00    +0.000 A 
ATOM      6  N   UNL     1      45.656   4.353  13.809  0.00  0.00    +0.000 NA
ENDROOT
BRANCH   4   7
ATOM      7  N   UNL     1      44.518   5.432  10.442  0.00  0.00    +0.000 N 
ATOM      8  H   UNL     1      43.815   6.153  10.575  0.00  0.00    +0.000 HD
BRANCH   7   9
ATOM      9  C   UNL     1      43.936   4.188   9.956  0.00  0.00    +0.000 C 
BRANCH   9  10
ATOM     10  C   UNL     1      44.899   3.480   9.055  0.00  0.00    +0.000 A 
ATOM     11  C   UNL     1      45.684   4.169   8.125  0.00  0.00    +0.000 A 
ATOM     12  C   UNL     1      46.601   3.470   7.346  0.00  0.00    +0.000 A 
ATOM     13  C   UNL     1      46.702   2.101   7.528  0.00  0.00    +0.000 A 
ATOM     14  N   UNL     1      45.967   1.406   8.425  0.00  0.00    +0.000 NA
ATOM     15  C   UNL     1      45.088   2.109   9.165  0.00  0.00    +0.000 A 
BRANCH  13  16
ATOM     16  O   UNL     1      47.614   1.431   6.739  0.00  0.00    +0.000 OA
ATOM     17  C   UNL     1      47.906   2.141   5.538  0.00  0.00    +0.000 C 
ENDBRANCH  13  16
ENDBRANCH   9  10
ENDBRANCH   7   9
ENDBRANCH   4   7
BRANCH   1  18
ATOM     18  O   UNL     1      47.598   4.999  14.952  0.00  0.00    +0.000 OA
BRANCH  18  19
ATOM     19  C   UNL     1      47.498   3.697  15.559  0.00  0.00    +0.000 C 
BRANCH  19  20
ATOM     20  C   UNL     1      47.516   3.848  17.093  0.00  0.00    +0.000 C 
BRANCH  20  21
ATOM     21  N   UNL     1      46.647   2.838  17.739  0.00  0.00    +0.000 NA
ATOM     22  H   UNL     1      46.797   1.929  17.304  0.00  0.00    +0.000 HD
ATOM     23  H   UNL     1      45.676   3.081  17.527  0.00  0.00    +0.000 HD
ENDBRANCH  20  21
BRANCH  20  24
ATOM     24  C   UNL     1      48.952   3.743  17.637  0.00  0.00    +0.000 C 
BRANCH  24  26
ATOM     25  C   UNL     1      50.497   2.007  17.242  0.00  0.00    +0.000 C 
ATOM     26  O   UNL     1      49.803   3.112  16.677  0.00  0.00    +0.000 OA
ENDBRANCH  24  26
ENDBRANCH  20  24
ENDBRANCH  19  20
ENDBRANCH  18  19
ENDBRANCH   1  18
TORSDOF 10
ENDMDL
MODEL 2
REMARK VINA RESULT:    -6.805      1.379      1.750
REMARK INTER + INTRA:         -11.318
REMARK INTER:                 -10.638
REMARK INTRA:                  -0.680
REMARK UNBOUND:                -0.734
REMARK  Name = 
REMARK  12 active torsions:
REMARK  status: ('A' for Active; 'I' for Inactive)
REMARK    1  A    between atoms: C_1  and  O_2
REMARK    2  A    between atoms: O_2  and  C_3
REMARK    3  A    between atoms: C_3  and  C_4
REMARK    4  A    between atoms: C_4  and  N_5
REMARK    5  A    between atoms: C_4  and  C_6
REMARK    6  A    between atoms: C_6  and  O_7
REMARK    7  A    between atoms: O_7  and  C_8
REMARK    8  A    between atoms: C_11  and  N_12
REMARK    9  A    between atoms: N_12  and  C_13
REMARK   10  A    between atoms: C_13  and  C_14
REMARK   11  A    between atoms: C_17  and  O_18
REMARK   12  A    between atoms: O_18  and  C_19
REMARK                            x       y       z     vdW  Elec       q    Type
REMARK                         _______ _______ _______ _____ _____    ______ ____
ROOT
ATOM      1  C   UNL     1      46.813   4.885  14.028  0.00  0.00    +0.000 A 
ATOM      2  C   UNL     1      46.699   3.558  13.657  0.00  0.00    +0.000 A 
ATOM      3  N   UNL     1      45.744   3.113  12.799  0.00  0.00    +0.000 NA
ATOM      4  C   UNL     1      44.877   4.039  12.333  0.00  0.00    +0.000 A 
ATOM      5  C   UNL     1      45.064   5.384  12.663  0.00  0.00    +0.000 A 
ATOM      6  N   UNL     1      46.014   5.838  13.512  0.00  0.00    +0.000 NA
ENDROOT
BRANCH   4   7
ATOM      7  N   UNL     1      43.867   3.580  11.490  0.00  0.00    +0.000 N 
ATOM      8  H   UNL     1      43.926   2.567  11.446  0.00  0.00    +0.000 HD
BRANCH   7   9
ATOM      9  C   UNL     1      43.835   4.180  10.163  0.00  0.00    +0.000 C 
BRANCH   9  10
ATOM     10  C   UNL     1      44.771   3.459   9.243  0.00  0.00    +0.000 A 
ATOM     11  C   UNL     1      45.552   4.138   8.304  0.00  0.00    +0.000 A 
ATOM     12  C   UNL     1      46.445   3.427   7.508  0.00  0.00    +0.000 A 
ATOM     13  C   UNL     1      46.525   2.055   7.682  0.00  0.00    +0.000 A 
ATOM     14  N   UNL     1      45.793   1.370   8.588  0.00  0.00    +0.000 NA
ATOM     15  C   UNL     1      44.938   2.084   9.346  0.00  0.00    +0.000 A 
BRANCH  13  16
ATOM     16  O   UNL     1      47.413   1.373   6.876  0.00  0.00    +0.000 OA
ATOM     17  C   UNL     1      47.945   2.202   5.846  0.00  0.00    +0.000 C 
ENDBRANCH  13  16
ENDBRANCH   9  10
ENDBRANCH   7   9
ENDBRANCH   4   7
BRANCH   1  18
ATOM     18  O   UNL     1      47.789   5.256  14.928  0.00  0.00    +0.000 OA
BRANCH  18  19
ATOM     19  C   UNL     1      48.080   4.192  15.853  0.00  0.00    +0.000 C 
BRANCH  19  20
ATOM     20  C   UNL     1      47.384   4.483  17.198  0.00  0.00    +0.000 C 
BRANCH  20  21
ATOM     21  N   UNL     1      46.681   3.283  17.705  0.00  0.00    +0.000 NA
ATOM     22  H   UNL     1      47.122   2.444  17.332  0.00  0.00    +0.000 HD
ATOM     23  H   UNL     1      45.736   3.288  17.314  0.00  0.00    +0.000 HD
ENDBRANCH  20  21
BRANCH  20  24
ATOM     24  C   UNL     1      48.398   4.988  18.241  0.00  0.00    +0.000 C 
BRANCH  24  26
ATOM     25  C   UNL     1      48.661   4.760  20.572  0.00  0.00    +0.000 C 
ATOM     26  O   UNL     1      47.773   5.116  19.520  0.00  0.00    +0.000 OA
ENDBRANCH  24  26
ENDBRANCH  20  24
ENDBRANCH  19  20
ENDBRANCH  18  19
ENDBRANCH   1  18
TORSDOF 10
ENDMDL
MODEL 3
REMARK VINA RESULT:    -6.332      2.350      3.574
REMARK INTER + INTRA:         -10.583
REMARK INTER:                  -9.786
REMARK INTRA:                  -0.797
REMARK UNBOUND:                -0.734
REMARK  Name = 
REMARK  12 active torsions:
REMARK  status: ('A' for Active; 'I' for Inactive)
REMARK    1  A    between atoms: C_1  and  O_2
REMARK    2  A    between atoms: O_2  and  C_3
REMARK    3  A    between atoms: C_3  and  C_4
REMARK    4  A    between atoms: C_4  and  N_5
REMARK    5  A    between atoms: C_4  and  C_6
REMARK    6  A    between atoms: C_6  and  O_7
REMARK    7  A    between atoms: O_7  and  C_8
REMARK    8  A    between atoms: C_11  and  N_12
REMARK    9  A    between atoms: N_12  and  C_13
REMARK   10  A    between atoms: C_13  and  C_14
REMARK   11  A    between atoms: C_17  and  O_18
REMARK   12  A    between atoms: O_18  and  C_19
REMARK                            x       y       z     vdW  Elec       q    Type
REMARK                         _______ _______ _______ _____ _____    ______ ____
ROOT
ATOM      1  C   UNL     1      47.122   5.478  13.667  0.00  0.00    +0.000 A 
ATOM      2  C   UNL     1      46.859   4.121  13.668  0.00  0.00    +0.000 A 
ATOM      3  N   UNL     1      45.831   3.569  12.970  0.00  0.00    +0.000 NA
ATOM      4  C   UNL     1      45.047   4.426  12.280  0.00  0.00    +0.000 A 
ATOM      5  C   UNL     1      45.382   5.781  12.233  0.00  0.00    +0.000 A 
ATOM      6  N   UNL     1      46.405   6.339  12.920  0.00  0.00    +0.000 NA
ENDROOT
BRANCH   4   7
ATOM      7  N   UNL     1      43.964   3.871  11.601  0.00  0.00    +0.000 N 
ATOM      8  H   UNL     1      44.035   2.859  11.662  0.00  0.00    +0.000 HD
BRANCH   7   9
ATOM      9  C   UNL     1      43.786   4.321  10.227  0.00  0.00    +0.000 C 
BRANCH   9  10
ATOM     10  C   UNL     1      44.690   3.559   9.309  0.00  0.00    +0.000 A 
ATOM     11  C   UNL     1      45.490   4.202   8.359  0.00  0.00    +0.000 A 
ATOM     12  C   UNL     1      46.351   3.452   7.564  0.00  0.00    +0.000 A 
ATOM     13  C   UNL     1      46.383   2.080   7.751  0.00  0.00    +0.000 A 
ATOM     14  N   UNL     1      45.633   1.429   8.667  0.00  0.00    +0.000 NA
ATOM     15  C   UNL     1      44.809   2.180   9.422  0.00  0.00    +0.000 A 
BRANCH  13  16
ATOM     16  O   UNL     1      47.242   1.359   6.946  0.00  0.00    +0.000 OA
ATOM     17  C   UNL     1      47.904   2.188   5.994  0.00  0.00    +0.000 C 
ENDBRANCH  13  16
ENDBRANCH   9  10
ENDBRANCH   7   9
ENDBRANCH   4   7
BRANCH   1  18
ATOM     18  O   UNL     1      48.164   5.968  14.424  0.00  0.00    +0.000 OA
BRANCH  18  19
ATOM     19  C   UNL     1      48.236   7.404  14.349  0.00  0.00    +0.000 C 
BRANCH  19  20
ATOM     20  C   UNL     1      49.636   7.818  13.852  0.00  0.00    +0.000 C 
BRANCH  20  21
ATOM     21  N   UNL     1      50.699   7.120  14.611  0.00  0.00    +0.000 NA
ATOM     22  H   UNL     1      50.621   7.350  15.600  0.00  0.00    +0.000 HD
ATOM     23  H   UNL     1      51.598   7.507  14.313  0.00  0.00    +0.000 HD
ENDBRANCH  20  21
BRANCH  20  24
ATOM     24  C   UNL     1      49.786   7.541  12.345  0.00  0.00    +0.000 C 
BRANCH  24  26
ATOM     25  C   UNL     1      51.711   8.072  11.094  0.00  0.00    +0.000 C 
ATOM     26  O   UNL     1      50.541   8.581  11.721  0.00  0.00    +0.000 OA
ENDBRANCH  24  26
ENDBRANCH  20  24
ENDBRANCH  19  20
ENDBRANCH  18  19
ENDBRANCH   1  18
TORSDOF 10
ENDMDL
MODEL 4
REMARK VINA RESULT:    -6.321      2.438      3.547
REMARK INTER + INTRA:         -10.566
REMARK INTER:                  -9.615
REMARK INTRA:                  -0.951
REMARK UNBOUND:                -0.734
REMARK  Name = 
REMARK  12 active torsions:
REMARK  status: ('A' for Active; 'I' for Inactive)
REMARK    1  A    between atoms: C_1  and  O_2
REMARK    2  A    between atoms: O_2  and  C_3
REMARK    3  A    between atoms: C_3  and  C_4
REMARK    4  A    between atoms: C_4  and  N_5
REMARK    5  A    between atoms: C_4  and  C_6
REMARK    6  A    between atoms: C_6  and  O_7
REMARK    7  A    between atoms: O_7  and  C_8
REMARK    8  A    between atoms: C_11  and  N_12
REMARK    9  A    between atoms: N_12  and  C_13
REMARK   10  A    between atoms: C_13  and  C_14
REMARK   11  A    between atoms: C_17  and  O_18
REMARK   12  A    between atoms: O_18  and  C_19
REMARK                            x       y       z     vdW  Elec       q    Type
REMARK                         _______ _______ _______ _____ _____    ______ ____
ROOT
ATOM      1  C   UNL     1      46.810   5.320  13.852  0.00  0.00    +0.000 A 
ATOM      2  C   UNL     1      46.952   3.952  13.711  0.00  0.00    +0.000 A 
ATOM      3  N   UNL     1      46.091   3.193  12.984  0.00  0.00    +0.000 NA
ATOM      4  C   UNL     1      45.055   3.844  12.411  0.00  0.00    +0.000 A 
ATOM      5  C   UNL     1      44.979   5.236  12.505  0.00  0.00    +0.000 A 
ATOM      6  N   UNL     1      45.833   6.001  13.223  0.00  0.00    +0.000 NA
ENDROOT
BRANCH   4   7
ATOM      7  N   UNL     1      44.142   3.064  11.703  0.00  0.00    +0.000 N 
ATOM      8  H   UNL     1      44.511   2.120  11.643  0.00  0.00    +0.000 HD
BRANCH   7   9
ATOM      9  C   UNL     1      43.754   3.580  10.398  0.00  0.00    +0.000 C 
BRANCH   9  10
ATOM     10  C   UNL     1      44.802   3.255   9.378  0.00  0.00    +0.000 A 
ATOM     11  C   UNL     1      45.231   1.944   9.152  0.00  0.00    +0.000 A 
ATOM     12  C   UNL     1      46.170   1.689   8.157  0.00  0.00    +0.000 A 
ATOM     13  C   UNL     1      46.646   2.760   7.419  0.00  0.00    +0.000 A 
ATOM     14  N   UNL     1      46.244   4.037   7.604  0.00  0.00    +0.000 NA
ATOM     15  C   UNL     1      45.334   4.254   8.574  0.00  0.00    +0.000 A 
BRANCH  13  16
ATOM     16  O   UNL     1      47.581   2.481   6.443  0.00  0.00    +0.000 OA
ATOM     17  C   UNL     1      47.164   2.938   5.159  0.00  0.00    +0.000 C 
ENDBRANCH  13  16
ENDBRANCH   9  10
ENDBRANCH   7   9
ENDBRANCH   4   7
BRANCH   1  18
ATOM     18  O   UNL     1      47.706   6.018  14.632  0.00  0.00    +0.000 OA
BRANCH  18  19
ATOM     19  C   UNL     1      48.451   6.970  13.848  0.00  0.00    +0.000 C 
BRANCH  19  20
ATOM     20  C   UNL     1      48.225   8.385  14.418  0.00  0.00    +0.000 C 
BRANCH  20  21
ATOM     21  N   UNL     1      46.836   8.839  14.182  0.00  0.00    +0.000 NA
ATOM     22  H   UNL     1      46.727   9.118  13.208  0.00  0.00    +0.000 HD
ATOM     23  H   UNL     1      46.692   9.694  14.724  0.00  0.00    +0.000 HD
ENDBRANCH  20  21
BRANCH  20  24
ATOM     24  C   UNL     1      48.552   8.429  15.921  0.00  0.00    +0.000 C 
BRANCH  24  26
ATOM     25  C   UNL     1      47.957   9.969  17.604  0.00  0.00    +0.000 C 
ATOM     26  O   UNL     1      48.642   9.783  16.372  0.00  0.00    +0.000 OA
ENDBRANCH  24  26
ENDBRANCH  20  24
ENDBRANCH  19  20
ENDBRANCH  18  19
ENDBRANCH   1  18
TORSDOF 10
ENDMDL
MODEL 5
REMARK VINA RESULT:    -6.230      1.920      2.520
REMARK INTER + INTRA:         -10.424
REMARK INTER:                  -9.716
REMARK INTRA:                  -0.708
REMARK UNBOUND:                -0.734
REMARK  Name = 
REMARK  12 active torsions:
REMARK  status: ('A' for Active; 'I' for Inactive)
REMARK    1  A    between atoms: C_1  and  O_2
REMARK    2  A    between atoms: O_2  and  C_3
REMARK    3  A    between atoms: C_3  and  C_4
REMARK    4  A    between atoms: C_4  and  N_5
REMARK    5  A    between atoms: C_4  and  C_6
REMARK    6  A    between atoms: C_6  and  O_7
REMARK    7  A    between atoms: O_7  and  C_8
REMARK    8  A    between atoms: C_11  and  N_12
REMARK    9  A    between atoms: N_12  and  C_13
REMARK   10  A    between atoms: C_13  and  C_14
REMARK   11  A    between atoms: C_17  and  O_18
REMARK   12  A    between atoms: O_18  and  C_19
REMARK                            x       y       z     vdW  Elec       q    Type
REMARK                         _______ _______ _______ _____ _____    ______ ____
ROOT
ATOM      1  C   UNL     1      47.107   5.814  13.410  0.00  0.00    +0.000 A 
ATOM      2  C   UNL     1      47.158   6.541  12.235  0.00  0.00    +0.000 A 
ATOM      3  N   UNL     1      46.198   6.460  11.276  0.00  0.00    +0.000 NA
ATOM      4  C   UNL     1      45.183   5.600  11.515  0.00  0.00    +0.000 A 
ATOM      5  C   UNL     1      45.117   4.937  12.743  0.00  0.00    +0.000 A 
ATOM      6  N   UNL     1      46.064   5.015  13.705  0.00  0.00    +0.000 NA
ENDROOT
BRANCH   4   7
ATOM      7  N   UNL     1      44.221   5.477  10.514  0.00  0.00    +0.000 N 
ATOM      8  H   UNL     1      43.409   6.023  10.786  0.00  0.00    +0.000 HD
BRANCH   7   9
ATOM      9  C   UNL     1      43.862   4.113  10.153  0.00  0.00    +0.000 C 
BRANCH   9  10
ATOM     10  C   UNL     1      44.888   3.532   9.230  0.00  0.00    +0.000 A 
ATOM     11  C   UNL     1      45.157   2.160   9.194  0.00  0.00    +0.000 A 
ATOM     12  C   UNL     1      46.084   1.665   8.282  0.00  0.00    +0.000 A 
ATOM     13  C   UNL     1      46.710   2.563   7.434  0.00  0.00    +0.000 A 
ATOM     14  N   UNL     1      46.465   3.892   7.435  0.00  0.00    +0.000 NA
ATOM     15  C   UNL     1      45.563   4.344   8.327  0.00  0.00    +0.000 A 
BRANCH  13  16
ATOM     16  O   UNL     1      47.629   2.046   6.543  0.00  0.00    +0.000 OA
ATOM     17  C   UNL     1      47.465   2.584   5.234  0.00  0.00    +0.000 C 
ENDBRANCH  13  16
ENDBRANCH   9  10
ENDBRANCH   7   9
ENDBRANCH   4   7
BRANCH   1  18
ATOM     18  O   UNL     1      48.134   5.926  14.321  0.00  0.00    +0.000 OA
BRANCH  18  19
ATOM     19  C   UNL     1      48.914   7.114  14.088  0.00  0.00    +0.000 C 
BRANCH  19  20
ATOM     20  C   UNL     1      48.835   8.026  15.329  0.00  0.00    +0.000 C 
BRANCH  20  21
ATOM     21  N   UNL     1      47.576   8.803  15.341  0.00  0.00    +0.000 NA
ATOM     22  H   UNL     1      47.566   9.452  14.556  0.00  0.00    +0.000 HD
ATOM     23  H   UNL     1      47.581   9.392  16.177  0.00  0.00    +0.000 HD
ENDBRANCH  20  21
BRANCH  20  24
ATOM     24  C   UNL     1      48.966   7.202  16.623  0.00  0.00    +0.000 C 
BRANCH  24  26
ATOM     25  C   UNL     1      50.232   5.386  17.433  0.00  0.00    +0.000 C 
ATOM     26  O   UNL     1      50.263   6.607  16.704  0.00  0.00    +0.000 OA
ENDBRANCH  24  26
ENDBRANCH  20  24
ENDBRANCH  19  20
ENDBRANCH  18  19
ENDBRANCH   1  18
TORSDOF 10
ENDMDL
MODEL 6
REMARK VINA RESULT:    -6.127      2.195      8.544
REMARK INTER + INTRA:         -10.264
REMARK INTER:                  -9.735
REMARK INTRA:                  -0.529
REMARK UNBOUND:                -0.734
REMARK  Name = 
REMARK  12 active torsions:
REMARK  status: ('A' for Active; 'I' for Inactive)
REMARK    1  A    between atoms: C_1  and  O_2
REMARK    2  A    between atoms: O_2  and  C_3
REMARK    3  A    between atoms: C_3  and  C_4
REMARK    4  A    between atoms: C_4  and  N_5
REMARK    5  A    between atoms: C_4  and  C_6
REMARK    6  A    between atoms: C_6  and  O_7
REMARK    7  A    between atoms: O_7  and  C_8
REMARK    8  A    between atoms: C_11  and  N_12
REMARK    9  A    between atoms: N_12  and  C_13
REMARK   10  A    between atoms: C_13  and  C_14
REMARK   11  A    between atoms: C_17  and  O_18
REMARK   12  A    between atoms: O_18  and  C_19
REMARK                            x       y       z     vdW  Elec       q    Type
REMARK                         _______ _______ _______ _____ _____    ______ ____
ROOT
ATOM      1  C   UNL     1      44.538   4.248  11.580  0.00  0.00    +0.000 A 
ATOM      2  C   UNL     1      45.211   3.254  12.266  0.00  0.00    +0.000 A 
ATOM      3  N   UNL     1      46.008   3.508  13.338  0.00  0.00    +0.000 NA
ATOM      4  C   UNL     1      46.135   4.805  13.696  0.00  0.00    +0.000 A 
ATOM      5  C   UNL     1      45.383   5.779  13.035  0.00  0.00    +0.000 A 
ATOM      6  N   UNL     1      44.584   5.536  11.971  0.00  0.00    +0.000 NA
ENDROOT
BRANCH   4   7
ATOM      7  N   UNL     1      46.987   5.076  14.765  0.00  0.00    +0.000 N 
ATOM      8  H   UNL     1      47.931   5.172  14.402  0.00  0.00    +0.000 HD
BRANCH   7   9
ATOM      9  C   UNL     1      46.925   4.133  15.873  0.00  0.00    +0.000 C 
BRANCH   9  10
ATOM     10  C   UNL     1      48.245   4.072  16.579  0.00  0.00    +0.000 A 
ATOM     11  C   UNL     1      48.836   2.856  16.935  0.00  0.00    +0.000 A 
ATOM     12  C   UNL     1      50.087   2.852  17.544  0.00  0.00    +0.000 A 
ATOM     13  C   UNL     1      50.705   4.070  17.773  0.00  0.00    +0.000 A 
ATOM     14  N   UNL     1      50.167   5.261  17.432  0.00  0.00    +0.000 NA
ATOM     15  C   UNL     1      48.956   5.235  16.844  0.00  0.00    +0.000 A 
BRANCH  13  16
ATOM     16  O   UNL     1      51.943   4.038  18.384  0.00  0.00    +0.000 OA
ATOM     17  C   UNL     1      51.890   4.517  19.724  0.00  0.00    +0.000 C 
ENDBRANCH  13  16
ENDBRANCH   9  10
ENDBRANCH   7   9
ENDBRANCH   4   7
BRANCH   1  18
ATOM     18  O   UNL     1      43.773   3.916  10.483  0.00  0.00    +0.000 OA
BRANCH  18  19
ATOM     19  C   UNL     1      44.532   3.148   9.529  0.00  0.00    +0.000 C 
BRANCH  19  20
ATOM     20  C   UNL     1      44.908   4.049   8.336  0.00  0.00    +0.000 C 
BRANCH  20  21
ATOM     21  N   UNL     1      45.751   5.186   8.771  0.00  0.00    +0.000 NA
ATOM     22  H   UNL     1      45.867   5.841   7.999  0.00  0.00    +0.000 HD
ATOM     23  H   UNL     1      46.688   4.823   8.960  0.00  0.00    +0.000 HD
ENDBRANCH  20  21
BRANCH  20  24
ATOM     24  C   UNL     1      45.628   3.239   7.243  0.00  0.00    +0.000 C 
BRANCH  24  26
ATOM     25  C   UNL     1      47.815   2.476   6.807  0.00  0.00    +0.000 C 
ATOM     26  O   UNL     1      47.014   3.583   7.200  0.00  0.00    +0.000 OA
ENDBRANCH  24  26
ENDBRANCH  20  24
ENDBRANCH  19  20
ENDBRANCH  18  19
ENDBRANCH   1  18
TORSDOF 10
ENDMDL
MODEL 7
REMARK VINA RESULT:    -5.998      2.165      7.957
REMARK INTER + INTRA:         -10.063
REMARK INTER:                  -9.359
REMARK INTRA:                  -0.705
REMARK UNBOUND:                -0.734
REMARK  Name = 
REMARK  12 active torsions:
REMARK  status: ('A' for Active; 'I' for Inactive)
REMARK    1  A    between atoms: C_1  and  O_2
REMARK    2  A    between atoms: O_2  and  C_3
REMARK    3  A    between atoms: C_3  and  C_4
REMARK    4  A    between atoms: C_4  and  N_5
REMARK    5  A    between atoms: C_4  and  C_6
REMARK    6  A    between atoms: C_6  and  O_7
REMARK    7  A    between atoms: O_7  and  C_8
REMARK    8  A    between atoms: C_11  and  N_12
REMARK    9  A    between atoms: N_12  and  C_13
REMARK   10  A    between atoms: C_13  and  C_14
REMARK   11  A    between atoms: C_17  and  O_18
REMARK   12  A    between atoms: O_18  and  C_19
REMARK                            x       y       z     vdW  Elec       q    Type
REMARK                         _______ _______ _______ _____ _____    ______ ____
ROOT
ATOM      1  C   UNL     1      45.181   3.800   8.375  0.00  0.00    +0.000 A 
ATOM      2  C   UNL     1      44.554   2.995   9.307  0.00  0.00    +0.000 A 
ATOM      3  N   UNL     1      44.441   3.336  10.618  0.00  0.00    +0.000 NA
ATOM      4  C   UNL     1      45.002   4.510  10.982  0.00  0.00    +0.000 A 
ATOM      5  C   UNL     1      45.561   5.339  10.006  0.00  0.00    +0.000 A 
ATOM      6  N   UNL     1      45.674   5.010   8.699  0.00  0.00    +0.000 NA
ENDROOT
BRANCH   4   7
ATOM      7  N   UNL     1      44.932   4.843  12.334  0.00  0.00    +0.000 N 
ATOM      8  H   UNL     1      45.178   5.823  12.433  0.00  0.00    +0.000 HD
BRANCH   7   9
ATOM      9  C   UNL     1      45.705   3.995  13.231  0.00  0.00    +0.000 C 
BRANCH   9  10
ATOM     10  C   UNL     1      46.756   4.801  13.932  0.00  0.00    +0.000 A 
ATOM     11  C   UNL     1      47.235   6.005  13.407  0.00  0.00    +0.000 A 
ATOM     12  C   UNL     1      48.174   6.742  14.123  0.00  0.00    +0.000 A 
ATOM     13  C   UNL     1      48.600   6.246  15.344  0.00  0.00    +0.000 A 
ATOM     14  N   UNL     1      48.149   5.092  15.883  0.00  0.00    +0.000 NA
ATOM     15  C   UNL     1      47.240   4.400  15.170  0.00  0.00    +0.000 A 
BRANCH  13  16
ATOM     16  O   UNL     1      49.536   6.992  16.030  0.00  0.00    +0.000 OA
ATOM     17  C   UNL     1      50.405   7.699  15.149  0.00  0.00    +0.000 C 
ENDBRANCH  13  16
ENDBRANCH   9  10
ENDBRANCH   7   9
ENDBRANCH   4   7
BRANCH   1  18
ATOM     18  O   UNL     1      45.283   3.372   7.069  0.00  0.00    +0.000 OA
BRANCH  18  19
ATOM     19  C   UNL     1      46.639   3.465   6.592  0.00  0.00    +0.000 C 
BRANCH  19  20
ATOM     20  C   UNL     1      47.165   2.050   6.277  0.00  0.00    +0.000 C 
BRANCH  20  21
ATOM     21  N   UNL     1      48.297   2.102   5.324  0.00  0.00    +0.000 NA
ATOM     22  H   UNL     1      48.754   1.192   5.285  0.00  0.00    +0.000 HD
ATOM     23  H   UNL     1      48.999   2.739   5.709  0.00  0.00    +0.000 HD
ENDBRANCH  20  21
BRANCH  20  24
ATOM     24  C   UNL     1      47.586   1.323   7.566  0.00  0.00    +0.000 C 
BRANCH  24  26
ATOM     25  C   UNL     1      46.490  -0.746   7.297  0.00  0.00    +0.000 C 
ATOM     26  O   UNL     1      46.532   0.474   8.026  0.00  0.00    +0.000 OA
ENDBRANCH  24  26
ENDBRANCH  20  24
ENDBRANCH  19  20
ENDBRANCH  18  19
ENDBRANCH   1  18
TORSDOF 10
ENDMDL
MODEL 8
REMARK VINA RESULT:    -5.736      2.503      8.363
REMARK INTER + INTRA:          -9.655
REMARK INTER:                  -9.017
REMARK INTRA:                  -0.638
REMARK UNBOUND:                -0.734
REMARK  Name = 
REMARK  12 active torsions:
REMARK  status: ('A' for Active; 'I' for Inactive)
REMARK    1  A    between atoms: C_1  and  O_2
REMARK    2  A    between atoms: O_2  and  C_3
REMARK    3  A    between atoms: C_3  and  C_4
REMARK    4  A    between atoms: C_4  and  N_5
REMARK    5  A    between atoms: C_4  and  C_6
REMARK    6  A    between atoms: C_6  and  O_7
REMARK    7  A    between atoms: O_7  and  C_8
REMARK    8  A    between atoms: C_11  and  N_12
REMARK    9  A    between atoms: N_12  and  C_13
REMARK   10  A    between atoms: C_13  and  C_14
REMARK   11  A    between atoms: C_17  and  O_18
REMARK   12  A    between atoms: O_18  and  C_19
REMARK                            x       y       z     vdW  Elec       q    Type
REMARK                         _______ _______ _______ _____ _____    ______ ____
ROOT
ATOM      1  C   UNL     1      46.478   5.100  13.549  0.00  0.00    +0.000 A 
ATOM      2  C   UNL     1      47.514   6.016  13.530  0.00  0.00    +0.000 A 
ATOM      3  N   UNL     1      48.393   6.154  14.557  0.00  0.00    +0.000 NA
ATOM      4  C   UNL     1      48.194   5.357  15.629  0.00  0.00    +0.000 A 
ATOM      5  C   UNL     1      47.189   4.387  15.589  0.00  0.00    +0.000 A 
ATOM      6  N   UNL     1      46.312   4.238  14.570  0.00  0.00    +0.000 NA
ENDROOT
BRANCH   4   7
ATOM      7  N   UNL     1      49.065   5.527  16.704  0.00  0.00    +0.000 N 
ATOM      8  H   UNL     1      50.010   5.596  16.339  0.00  0.00    +0.000 HD
BRANCH   7   9
ATOM      9  C   UNL     1      48.962   4.529  17.760  0.00  0.00    +0.000 C 
BRANCH   9  10
ATOM     10  C   UNL     1      50.073   3.531  17.642  0.00  0.00    +0.000 A 
ATOM     11  C   UNL     1      51.365   3.807  18.099  0.00  0.00    +0.000 A 
ATOM     12  C   UNL     1      52.349   2.827  18.013  0.00  0.00    +0.000 A 
ATOM     13  C   UNL     1      52.002   1.599  17.472  0.00  0.00    +0.000 A 
ATOM     14  N   UNL     1      50.761   1.297  17.032  0.00  0.00    +0.000 NA
ATOM     15  C   UNL     1      49.829   2.264  17.128  0.00  0.00    +0.000 A 
BRANCH  13  16
ATOM     16  O   UNL     1      52.998   0.647  17.393  0.00  0.00    +0.000 OA
ATOM     17  C   UNL     1      54.298   1.229  17.432  0.00  0.00    +0.000 C 
ENDBRANCH  13  16
ENDBRANCH   9  10
ENDBRANCH   7   9
ENDBRANCH   4   7
BRANCH   1  18
ATOM     18  O   UNL     1      45.607   5.039  12.483  0.00  0.00    +0.000 OA
BRANCH  18  19
ATOM     19  C   UNL     1      44.583   4.050  12.700  0.00  0.00    +0.000 C 
BRANCH  19  20
ATOM     20  C   UNL     1      44.347   3.268  11.392  0.00  0.00    +0.000 C 
BRANCH  20  21
ATOM     21  N   UNL     1      43.215   2.324  11.532  0.00  0.00    +0.000 NA
ATOM     22  H   UNL     1      43.377   1.710  12.329  0.00  0.00    +0.000 HD
ATOM     23  H   UNL     1      43.218   1.710  10.714  0.00  0.00    +0.000 HD
ENDBRANCH  20  21
BRANCH  20  24
ATOM     24  C   UNL     1      44.098   4.229  10.216  0.00  0.00    +0.000 C 
BRANCH  24  26
ATOM     25  C   UNL     1      44.836   3.495   8.102  0.00  0.00    +0.000 C 
ATOM     26  O   UNL     1      45.190   4.182   9.295  0.00  0.00    +0.000 OA
ENDBRANCH  24  26
ENDBRANCH  20  24
ENDBRANCH  19  20
ENDBRANCH  18  19
ENDBRANCH   1  18
TORSDOF 10
ENDMDL
MODEL 9
REMARK VINA RESULT:    -5.484      2.841      8.363
REMARK INTER + INTRA:          -9.264
REMARK INTER:                  -8.764
REMARK INTRA:                  -0.499
REMARK UNBOUND:                -0.734
REMARK  Name = 
REMARK  12 active torsions:
REMARK  status: ('A' for Active; 'I' for Inactive)
REMARK    1  A    between atoms: C_1  and  O_2
REMARK    2  A    between atoms: O_2  and  C_3
REMARK    3  A    between atoms: C_3  and  C_4
REMARK    4  A    between atoms: C_4  and  N_5
REMARK    5  A    between atoms: C_4  and  C_6
REMARK    6  A    between atoms: C_6  and  O_7
REMARK    7  A    between atoms: O_7  and  C_8
REMARK    8  A    between atoms: C_11  and  N_12
REMARK    9  A    between atoms: N_12  and  C_13
REMARK   10  A    between atoms: C_13  and  C_14
REMARK   11  A    between atoms: C_17  and  O_18
REMARK   12  A    between atoms: O_18  and  C_19
REMARK                            x       y       z     vdW  Elec       q    Type
REMARK                         _______ _______ _______ _____ _____    ______ ____
ROOT
ATOM      1  C   UNL     1      44.591   4.417  11.229  0.00  0.00    +0.000 A 
ATOM      2  C   UNL     1      44.886   3.550  12.265  0.00  0.00    +0.000 A 
ATOM      3  N   UNL     1      45.648   3.909  13.331  0.00  0.00    +0.000 NA
ATOM      4  C   UNL     1      46.135   5.169  13.324  0.00  0.00    +0.000 A 
ATOM      5  C   UNL     1      45.757   6.047  12.305  0.00  0.00    +0.000 A 
ATOM      6  N   UNL     1      44.996   5.702  11.242  0.00  0.00    +0.000 NA
ENDROOT
BRANCH   4   7
ATOM      7  N   UNL     1      46.956   5.527  14.392  0.00  0.00    +0.000 N 
ATOM      8  H   UNL     1      46.380   5.596  15.226  0.00  0.00    +0.000 HD
BRANCH   7   9
ATOM      9  C   UNL     1      47.764   6.722  14.190  0.00  0.00    +0.000 C 
BRANCH   9  10
ATOM     10  C   UNL     1      48.957   6.703  15.095  0.00  0.00    +0.000 A 
ATOM     11  C   UNL     1      48.971   5.965  16.282  0.00  0.00    +0.000 A 
ATOM     12  C   UNL     1      50.123   5.939  17.063  0.00  0.00    +0.000 A 
ATOM     13  C   UNL     1      51.224   6.655  16.624  0.00  0.00    +0.000 A 
ATOM     14  N   UNL     1      51.247   7.369  15.477  0.00  0.00    +0.000 NA
ATOM     15  C   UNL     1      50.119   7.375  14.742  0.00  0.00    +0.000 A 
BRANCH  13  16
ATOM     16  O   UNL     1      52.351   6.618  17.419  0.00  0.00    +0.000 OA
ATOM     17  C   UNL     1      52.379   5.462  18.253  0.00  0.00    +0.000 C 
ENDBRANCH  13  16
ENDBRANCH   9  10
ENDBRANCH   7   9
ENDBRANCH   4   7
BRANCH   1  18
ATOM     18  O   UNL     1      43.837   3.972  10.166  0.00  0.00    +0.000 OA
BRANCH  18  19
ATOM     19  C   UNL     1      44.508   2.914   9.455  0.00  0.00    +0.000 C 
BRANCH  19  20
ATOM     20  C   UNL     1      45.094   3.476   8.143  0.00  0.00    +0.000 C 
BRANCH  20  21
ATOM     21  N   UNL     1      45.584   4.860   8.327  0.00  0.00    +0.000 NA
ATOM     22  H   UNL     1      45.484   5.132   9.304  0.00  0.00    +0.000 HD
ATOM     23  H   UNL     1      44.959   5.483   7.810  0.00  0.00    +0.000 HD
ENDBRANCH  20  21
BRANCH  20  24
ATOM     24  C   UNL     1      46.226   2.574   7.619  0.00  0.00    +0.000 C 
BRANCH  24  26
ATOM     25  C   UNL     1      46.785   0.284   7.632  0.00  0.00    +0.000 C 
ATOM     26  O   UNL     1      46.318   1.383   8.404  0.00  0.00    +0.000 OA
ENDBRANCH  24  26
ENDBRANCH  20  24
ENDBRANCH  19  20
ENDBRANCH  18  19
ENDBRANCH   1  18
TORSDOF 10
ENDMDL
