MODEL 1
REMARK VINA RESULT:    -8.409      0.000      0.000
REMARK INTER + INTRA:         -13.280
REMARK INTER:                 -12.341
REMARK INTRA:                  -0.939
REMARK UNBOUND:                -0.939
REMARK  Name = 
REMARK  9 active torsions:
REMARK  status: ('A' for Active; 'I' for Inactive)
REMARK    1  A    between atoms: C_1  and  C_2
REMARK    2  A    between atoms: C_2  and  C_3
REMARK    3  A    between atoms: C_2  and  C_14
REMARK    4  A    between atoms: C_3  and  N_4
REMARK    5  A    between atoms: N_4  and  C_5
REMARK    6  A    between atoms: C_8  and  C_9
REMARK    7  A    between atoms: C_18  and  O_19
REMARK    8  A    between atoms: O_19  and  C_20
REMARK    9  A    between atoms: C_20  and  C_21
REMARK                            x       y       z     vdW  Elec       q    Type
REMARK                         _______ _______ _______ _____ _____    ______ ____
ROOT
ATOM      1  C   UNL     1      42.951   5.260  12.665  0.00  0.00    +0.000 C 
ATOM      2  C   UNL     1      44.193   4.424  12.576  0.00  0.00    +0.000 C 
ENDROOT
BRANCH   2   3
ATOM      3  C   UNL     1      45.494   5.081  12.846  0.00  0.00    +0.000 A 
ATOM      4  C   UNL     1      45.992   6.072  11.991  0.00  0.00    +0.000 A 
ATOM      5  C   UNL     1      47.234   6.668  12.236  0.00  0.00    +0.000 A 
ATOM      6  C   UNL     1      47.988   6.299  13.352  0.00  0.00    +0.000 A 
ATOM      7  C   UNL     1      47.486   5.351  14.238  0.00  0.00    +0.000 A 
ATOM      8  C   UNL     1      46.262   4.732  13.967  0.00  0.00    +0.000 A 
BRANCH   7   9
ATOM      9  O   UNL     1      48.102   4.931  15.383  0.00  0.00    +0.000 OA
BRANCH   9  10
ATOM     10  C   UNL     1      47.256   4.377  16.399  0.00  0.00    +0.000 C 
BRANCH  10  11
ATOM     11  C   UNL     1      47.861   3.103  16.987  0.00  0.00    +0.000 C 
ATOM     12  F   UNL     1      48.384   2.283  16.049  0.00  0.00    +0.000 F 
ATOM     13  F   UNL     1      48.850   3.399  17.864  0.00  0.00    +0.000 F 
ATOM     14  F   UNL     1      46.925   2.397  17.665  0.00  0.00    +0.000 F 
ENDBRANCH  10  11
ENDBRANCH   9  10
ENDBRANCH   7   9
ENDBRANCH   2   3
BRANCH   2  15
ATOM     15  C   UNL     1      44.199   3.191  11.713  0.00  0.00    +0.000 C 
BRANCH  15  16
ATOM     16  N   UNL     1      43.765   3.497  10.347  0.00  0.00    +0.000 N 
ATOM     17  H   UNL     1      43.424   4.449  10.255  0.00  0.00    +0.000 HD
BRANCH  16  18
ATOM     18  C   UNL     1      44.696   3.205   9.331  0.00  0.00    +0.000 A 
ATOM     19  C   UNL     1      45.186   1.902   9.182  0.00  0.00    +0.000 A 
ATOM     20  C   UNL     1      46.127   1.607   8.190  0.00  0.00    +0.000 A 
ATOM     21  C   UNL     1      46.585   2.642   7.389  0.00  0.00    +0.000 A 
ATOM     22  N   UNL     1      46.192   3.934   7.530  0.00  0.00    +0.000 NA
ATOM     23  C   UNL     1      45.281   4.173   8.505  0.00  0.00    +0.000 A 
BRANCH  21  24
ATOM     24  C   UNL     1      47.565   2.376   6.285  0.00  0.00    +0.000 C 
ATOM     25  N   UNL     1      47.500   3.251   5.233  0.00  0.00    +0.000 N 
ATOM     26  O   UNL     1      48.357   1.444   6.309  0.00  0.00    +0.000 OA
ATOM     27  H   UNL     1      46.824   4.006   5.256  0.00  0.00    +0.000 HD
ATOM     28  H   UNL     1      48.116   3.135   4.443  0.00  0.00    +0.000 HD
ENDBRANCH  21  24
ENDBRANCH  16  18
ENDBRANCH  15  16
ENDBRANCH   2  15
TORSDOF 8
ENDMDL
MODEL 2
REMARK VINA RESULT:    -7.474      2.737      3.368
REMARK INTER + INTRA:         -11.908
REMARK INTER:                 -10.758
REMARK INTRA:                  -1.150
REMARK UNBOUND:                -0.939
REMARK  Name = 
REMARK  9 active torsions:
REMARK  status: ('A' for Active; 'I' for Inactive)
REMARK    1  A    between atoms: C_1  and  C_2
REMARK    2  A    between atoms: C_2  and  C_3
REMARK    3  A    between atoms: C_2  and  C_14
REMARK    4  A    between atoms: C_3  and  N_4
REMARK    5  A    between atoms: N_4  and  C_5
REMARK    6  A    between atoms: C_8  and  C_9
REMARK    7  A    between atoms: C_18  and  O_19
REMARK    8  A    between atoms: O_19  and  C_20
REMARK    9  A    between atoms: C_20  and  C_21
REMARK                            x       y       z     vdW  Elec       q    Type
REMARK                         _______ _______ _______ _____ _____    ______ ____
ROOT
ATOM      1  C   UNL     1      45.724   4.070  12.756  0.00  0.00    +0.000 C 
ATOM      2  C   UNL     1      45.138   5.098  11.834  0.00  0.00    +0.000 C 
ENDROOT
BRANCH   2   3
ATOM      3  C   UNL     1      45.631   6.492  11.944  0.00  0.00    +0.000 A 
ATOM      4  C   UNL     1      44.744   7.575  11.907  0.00  0.00    +0.000 A 
ATOM      5  C   UNL     1      45.218   8.888  11.983  0.00  0.00    +0.000 A 
ATOM      6  C   UNL     1      46.585   9.141  12.119  0.00  0.00    +0.000 A 
ATOM      7  C   UNL     1      47.475   8.075  12.206  0.00  0.00    +0.000 A 
ATOM      8  C   UNL     1      46.999   6.765  12.091  0.00  0.00    +0.000 A 
BRANCH   7   9
ATOM      9  O   UNL     1      48.826   8.183  12.379  0.00  0.00    +0.000 OA
BRANCH   9  10
ATOM     10  C   UNL     1      49.462   7.136  13.124  0.00  0.00    +0.000 C 
BRANCH  10  11
ATOM     11  C   UNL     1      49.487   7.459  14.617  0.00  0.00    +0.000 C 
ATOM     12  F   UNL     1      49.596   8.781  14.872  0.00  0.00    +0.000 F 
ATOM     13  F   UNL     1      48.360   7.020  15.225  0.00  0.00    +0.000 F 
ATOM     14  F   UNL     1      50.532   6.843  15.222  0.00  0.00    +0.000 F 
ENDBRANCH  10  11
ENDBRANCH   9  10
ENDBRANCH   7   9
ENDBRANCH   2   3
BRANCH   2  15
ATOM     15  C   UNL     1      43.762   4.887  11.264  0.00  0.00    +0.000 C 
BRANCH  15  16
ATOM     16  N   UNL     1      43.784   4.907   9.798  0.00  0.00    +0.000 N 
ATOM     17  H   UNL     1      43.961   5.836   9.429  0.00  0.00    +0.000 HD
BRANCH  16  18
ATOM     18  C   UNL     1      44.632   3.962   9.187  0.00  0.00    +0.000 A 
ATOM     19  C   UNL     1      45.580   4.378   8.245  0.00  0.00    +0.000 A 
ATOM     20  C   UNL     1      46.413   3.446   7.617  0.00  0.00    +0.000 A 
ATOM     21  C   UNL     1      46.247   2.104   7.925  0.00  0.00    +0.000 A 
ATOM     22  N   UNL     1      45.303   1.639   8.784  0.00  0.00    +0.000 NA
ATOM     23  C   UNL     1      44.519   2.579   9.366  0.00  0.00    +0.000 A 
BRANCH  21  24
ATOM     24  C   UNL     1      47.138   1.065   7.311  0.00  0.00    +0.000 C 
ATOM     25  N   UNL     1      46.850  -0.226   7.668  0.00  0.00    +0.000 N 
ATOM     26  O   UNL     1      48.061   1.341   6.558  0.00  0.00    +0.000 OA
ATOM     27  H   UNL     1      46.077  -0.406   8.299  0.00  0.00    +0.000 HD
ATOM     28  H   UNL     1      47.408  -0.985   7.309  0.00  0.00    +0.000 HD
ENDBRANCH  21  24
ENDBRANCH  16  18
ENDBRANCH  15  16
ENDBRANCH   2  15
TORSDOF 8
ENDMDL
MODEL 3
REMARK VINA RESULT:    -7.434      3.580      4.329
REMARK INTER + INTRA:         -11.850
REMARK INTER:                 -10.772
REMARK INTRA:                  -1.077
REMARK UNBOUND:                -0.939
REMARK  Name = 
REMARK  9 active torsions:
REMARK  status: ('A' for Active; 'I' for Inactive)
REMARK    1  A    between atoms: C_1  and  C_2
REMARK    2  A    between atoms: C_2  and  C_3
REMARK    3  A    between atoms: C_2  and  C_14
REMARK    4  A    between atoms: C_3  and  N_4
REMARK    5  A    between atoms: N_4  and  C_5
REMARK    6  A    between atoms: C_8  and  C_9
REMARK    7  A    between atoms: C_18  and  O_19
REMARK    8  A    between atoms: O_19  and  C_20
REMARK    9  A    between atoms: C_20  and  C_21
REMARK                            x       y       z     vdW  Elec       q    Type
REMARK                         _______ _______ _______ _____ _____    ______ ____
ROOT
ATOM      1  C   UNL     1      45.647   3.626  12.785  0.00  0.00    +0.000 C 
ATOM      2  C   UNL     1      45.156   4.815  12.013  0.00  0.00    +0.000 C 
ENDROOT
BRANCH   2   3
ATOM      3  C   UNL     1      45.749   6.138  12.323  0.00  0.00    +0.000 A 
ATOM      4  C   UNL     1      44.952   7.287  12.386  0.00  0.00    +0.000 A 
ATOM      5  C   UNL     1      45.522   8.537  12.651  0.00  0.00    +0.000 A 
ATOM      6  C   UNL     1      46.895   8.655  12.879  0.00  0.00    +0.000 A 
ATOM      7  C   UNL     1      47.693   7.516  12.868  0.00  0.00    +0.000 A 
ATOM      8  C   UNL     1      47.124   6.275  12.566  0.00  0.00    +0.000 A 
BRANCH   7   9
ATOM      9  O   UNL     1      49.037   7.488  13.114  0.00  0.00    +0.000 OA
BRANCH   9  10
ATOM     10  C   UNL     1      49.727   8.743  13.050  0.00  0.00    +0.000 C 
BRANCH  10  11
ATOM     11  C   UNL     1      50.277   8.998  11.648  0.00  0.00    +0.000 C 
ATOM     12  F   UNL     1      51.520   9.528  11.654  0.00  0.00    +0.000 F 
ATOM     13  F   UNL     1      50.329   7.849  10.933  0.00  0.00    +0.000 F 
ATOM     14  F   UNL     1      49.477   9.855  10.968  0.00  0.00    +0.000 F 
ENDBRANCH  10  11
ENDBRANCH   9  10
ENDBRANCH   7   9
ENDBRANCH   2   3
BRANCH   2  15
ATOM     15  C   UNL     1      43.779   4.791  11.408  0.00  0.00    +0.000 C 
BRANCH  15  16
ATOM     16  N   UNL     1      43.838   4.882   9.946  0.00  0.00    +0.000 N 
ATOM     17  H   UNL     1      44.066   5.820   9.629  0.00  0.00    +0.000 HD
BRANCH  16  18
ATOM     18  C   UNL     1      44.658   3.932   9.308  0.00  0.00    +0.000 A 
ATOM     19  C   UNL     1      45.616   4.346   8.375  0.00  0.00    +0.000 A 
ATOM     20  C   UNL     1      46.421   3.408   7.720  0.00  0.00    +0.000 A 
ATOM     21  C   UNL     1      46.219   2.064   7.992  0.00  0.00    +0.000 A 
ATOM     22  N   UNL     1      45.263   1.602   8.839  0.00  0.00    +0.000 NA
ATOM     23  C   UNL     1      44.506   2.547   9.449  0.00  0.00    +0.000 A 
BRANCH  21  24
ATOM     24  C   UNL     1      47.078   1.017   7.347  0.00  0.00    +0.000 C 
ATOM     25  N   UNL     1      46.745  -0.275   7.658  0.00  0.00    +0.000 N 
ATOM     26  O   UNL     1      48.015   1.288   6.609  0.00  0.00    +0.000 OA
ATOM     27  H   UNL     1      45.963  -0.450   8.279  0.00  0.00    +0.000 HD
ATOM     28  H   UNL     1      47.281  -1.039   7.276  0.00  0.00    +0.000 HD
ENDBRANCH  21  24
ENDBRANCH  16  18
ENDBRANCH  15  16
ENDBRANCH   2  15
TORSDOF 8
ENDMDL
MODEL 4
REMARK VINA RESULT:    -7.293      4.226      7.743
REMARK INTER + INTRA:         -11.642
REMARK INTER:                 -10.598
REMARK INTRA:                  -1.044
REMARK UNBOUND:                -0.939
REMARK  Name = 
REMARK  9 active torsions:
REMARK  status: ('A' for Active; 'I' for Inactive)
REMARK    1  A    between atoms: C_1  and  C_2
REMARK    2  A    between atoms: C_2  and  C_3
REMARK    3  A    between atoms: C_2  and  C_14
REMARK    4  A    between atoms: C_3  and  N_4
REMARK    5  A    between atoms: N_4  and  C_5
REMARK    6  A    between atoms: C_8  and  C_9
REMARK    7  A    between atoms: C_18  and  O_19
REMARK    8  A    between atoms: O_19  and  C_20
REMARK    9  A    between atoms: C_20  and  C_21
REMARK                            x       y       z     vdW  Elec       q    Type
REMARK                         _______ _______ _______ _____ _____    ______ ____
ROOT
ATOM      1  C   UNL     1      44.241   8.345  11.078  0.00  0.00    +0.000 C 
ATOM      2  C   UNL     1      45.093   7.206  11.554  0.00  0.00    +0.000 C 
ENDROOT
BRANCH   2   3
ATOM      3  C   UNL     1      44.522   5.840  11.498  0.00  0.00    +0.000 A 
ATOM      4  C   UNL     1      43.667   5.374  12.504  0.00  0.00    +0.000 A 
ATOM      5  C   UNL     1      43.153   4.074  12.460  0.00  0.00    +0.000 A 
ATOM      6  C   UNL     1      43.468   3.225  11.396  0.00  0.00    +0.000 A 
ATOM      7  C   UNL     1      44.277   3.688  10.364  0.00  0.00    +0.000 A 
ATOM      8  C   UNL     1      44.817   4.976  10.433  0.00  0.00    +0.000 A 
BRANCH   7   9
ATOM      9  O   UNL     1      44.627   2.976   9.251  0.00  0.00    +0.000 OA
BRANCH   9  10
ATOM     10  C   UNL     1      44.902   3.735   8.066  0.00  0.00    +0.000 C 
BRANCH  10  11
ATOM     11  C   UNL     1      46.210   3.286   7.415  0.00  0.00    +0.000 C 
ATOM     12  F   UNL     1      46.742   2.189   7.996  0.00  0.00    +0.000 F 
ATOM     13  F   UNL     1      46.023   3.001   6.104  0.00  0.00    +0.000 F 
ATOM     14  F   UNL     1      47.139   4.269   7.481  0.00  0.00    +0.000 F 
ENDBRANCH  10  11
ENDBRANCH   9  10
ENDBRANCH   7   9
ENDBRANCH   2   3
BRANCH   2  15
ATOM     15  C   UNL     1      46.188   7.465  12.552  0.00  0.00    +0.000 C 
BRANCH  15  16
ATOM     16  N   UNL     1      47.176   6.382  12.550  0.00  0.00    +0.000 N 
ATOM     17  H   UNL     1      48.077   6.684  12.192  0.00  0.00    +0.000 HD
BRANCH  16  18
ATOM     18  C   UNL     1      47.334   5.697  13.771  0.00  0.00    +0.000 A 
ATOM     19  C   UNL     1      48.110   6.255  14.793  0.00  0.00    +0.000 A 
ATOM     20  C   UNL     1      48.291   5.574  16.001  0.00  0.00    +0.000 A 
ATOM     21  C   UNL     1      47.713   4.321  16.141  0.00  0.00    +0.000 A 
ATOM     22  N   UNL     1      47.003   3.704  15.161  0.00  0.00    +0.000 NA
ATOM     23  C   UNL     1      46.857   4.402  14.008  0.00  0.00    +0.000 A 
BRANCH  21  24
ATOM     24  C   UNL     1      47.841   3.561  17.428  0.00  0.00    +0.000 C 
ATOM     25  N   UNL     1      46.799   2.718  17.707  0.00  0.00    +0.000 N 
ATOM     26  O   UNL     1      48.795   3.688  18.183  0.00  0.00    +0.000 OA
ATOM     27  H   UNL     1      46.027   2.650  17.053  0.00  0.00    +0.000 HD
ATOM     28  H   UNL     1      46.800   2.179  18.560  0.00  0.00    +0.000 HD
ENDBRANCH  21  24
ENDBRANCH  16  18
ENDBRANCH  15  16
ENDBRANCH   2  15
TORSDOF 8
ENDMDL
MODEL 5
REMARK VINA RESULT:    -7.032      3.644      4.326
REMARK INTER + INTRA:         -11.259
REMARK INTER:                 -10.290
REMARK INTRA:                  -0.970
REMARK UNBOUND:                -0.939
REMARK  Name = 
REMARK  9 active torsions:
REMARK  status: ('A' for Active; 'I' for Inactive)
REMARK    1  A    between atoms: C_1  and  C_2
REMARK    2  A    between atoms: C_2  and  C_3
REMARK    3  A    between atoms: C_2  and  C_14
REMARK    4  A    between atoms: C_3  and  N_4
REMARK    5  A    between atoms: N_4  and  C_5
REMARK    6  A    between atoms: C_8  and  C_9
REMARK    7  A    between atoms: C_18  and  O_19
REMARK    8  A    between atoms: O_19  and  C_20
REMARK    9  A    between atoms: C_20  and  C_21
REMARK                            x       y       z     vdW  Elec       q    Type
REMARK                         _______ _______ _______ _____ _____    ______ ____
ROOT
ATOM      1  C   UNL     1      43.257   7.092  11.622  0.00  0.00    +0.000 C 
ATOM      2  C   UNL     1      43.831   5.742  11.934  0.00  0.00    +0.000 C 
ENDROOT
BRANCH   2   3
ATOM      3  C   UNL     1      45.164   5.687  12.580  0.00  0.00    +0.000 A 
ATOM      4  C   UNL     1      45.482   4.671  13.490  0.00  0.00    +0.000 A 
ATOM      5  C   UNL     1      46.731   4.640  14.118  0.00  0.00    +0.000 A 
ATOM      6  C   UNL     1      47.693   5.611  13.830  0.00  0.00    +0.000 A 
ATOM      7  C   UNL     1      47.410   6.600  12.892  0.00  0.00    +0.000 A 
ATOM      8  C   UNL     1      46.146   6.647  12.296  0.00  0.00    +0.000 A 
BRANCH   7   9
ATOM      9  O   UNL     1      48.272   7.582  12.491  0.00  0.00    +0.000 OA
BRANCH   9  10
ATOM     10  C   UNL     1      48.176   8.837  13.176  0.00  0.00    +0.000 C 
BRANCH  10  11
ATOM     11  C   UNL     1      47.865   9.974  12.204  0.00  0.00    +0.000 C 
ATOM     12  F   UNL     1      48.693  10.001  11.137  0.00  0.00    +0.000 F 
ATOM     13  F   UNL     1      46.599   9.873  11.733  0.00  0.00    +0.000 F 
ATOM     14  F   UNL     1      47.966  11.174  12.824  0.00  0.00    +0.000 F 
ENDBRANCH  10  11
ENDBRANCH   9  10
ENDBRANCH   7   9
ENDBRANCH   2   3
BRANCH   2  15
ATOM     15  C   UNL     1      43.391   4.545  11.137  0.00  0.00    +0.000 C 
BRANCH  15  16
ATOM     16  N   UNL     1      43.649   4.735   9.706  0.00  0.00    +0.000 N 
ATOM     17  H   UNL     1      43.931   5.686   9.489  0.00  0.00    +0.000 HD
BRANCH  16  18
ATOM     18  C   UNL     1      44.532   3.810   9.117  0.00  0.00    +0.000 A 
ATOM     19  C   UNL     1      45.352   4.204   8.052  0.00  0.00    +0.000 A 
ATOM     20  C   UNL     1      46.218   3.287   7.446  0.00  0.00    +0.000 A 
ATOM     21  C   UNL     1      46.213   1.978   7.903  0.00  0.00    +0.000 A 
ATOM     22  N   UNL     1      45.396   1.527   8.889  0.00  0.00    +0.000 NA
ATOM     23  C   UNL     1      44.573   2.449   9.444  0.00  0.00    +0.000 A 
BRANCH  21  24
ATOM     24  C   UNL     1      47.149   0.962   7.316  0.00  0.00    +0.000 C 
ATOM     25  N   UNL     1      46.815  -0.342   7.567  0.00  0.00    +0.000 N 
ATOM     26  O   UNL     1      48.141   1.268   6.670  0.00  0.00    +0.000 OA
ATOM     27  H   UNL     1      45.984  -0.546   8.112  0.00  0.00    +0.000 HD
ATOM     28  H   UNL     1      47.399  -1.088   7.219  0.00  0.00    +0.000 HD
ENDBRANCH  21  24
ENDBRANCH  16  18
ENDBRANCH  15  16
ENDBRANCH   2  15
TORSDOF 8
ENDMDL
MODEL 6
REMARK VINA RESULT:    -6.361      2.985      5.034
REMARK INTER + INTRA:         -10.275
REMARK INTER:                  -9.196
REMARK INTRA:                  -1.079
REMARK UNBOUND:                -0.939
REMARK  Name = 
REMARK  9 active torsions:
REMARK  status: ('A' for Active; 'I' for Inactive)
REMARK    1  A    between atoms: C_1  and  C_2
REMARK    2  A    between atoms: C_2  and  C_3
REMARK    3  A    between atoms: C_2  and  C_14
REMARK    4  A    between atoms: C_3  and  N_4
REMARK    5  A    between atoms: N_4  and  C_5
REMARK    6  A    between atoms: C_8  and  C_9
REMARK    7  A    between atoms: C_18  and  O_19
REMARK    8  A    between atoms: O_19  and  C_20
REMARK    9  A    between atoms: C_20  and  C_21
REMARK                            x       y       z     vdW  Elec       q    Type
REMARK                         _______ _______ _______ _____ _____    ______ ____
ROOT
ATOM      1  C   UNL     1      50.427   8.598  13.757  0.00  0.00    +0.000 C 
ATOM      2  C   UNL     1      49.170   7.896  14.178  0.00  0.00    +0.000 C 
ENDROOT
BRANCH   2   3
ATOM      3  C   UNL     1      49.022   7.533  15.607  0.00  0.00    +0.000 A 
ATOM      4  C   UNL     1      48.576   8.471  16.546  0.00  0.00    +0.000 A 
ATOM      5  C   UNL     1      48.466   8.131  17.898  0.00  0.00    +0.000 A 
ATOM      6  C   UNL     1      48.778   6.840  18.331  0.00  0.00    +0.000 A 
ATOM      7  C   UNL     1      49.176   5.882  17.404  0.00  0.00    +0.000 A 
ATOM      8  C   UNL     1      49.321   6.239  16.060  0.00  0.00    +0.000 A 
BRANCH   7   9
ATOM      9  O   UNL     1      49.471   4.578  17.688  0.00  0.00    +0.000 OA
BRANCH   9  10
ATOM     10  C   UNL     1      48.445   3.817  18.340  0.00  0.00    +0.000 C 
BRANCH  10  11
ATOM     11  C   UNL     1      47.515   3.159  17.322  0.00  0.00    +0.000 C 
ATOM     12  F   UNL     1      46.694   2.238  17.872  0.00  0.00    +0.000 F 
ATOM     13  F   UNL     1      46.737   4.084  16.710  0.00  0.00    +0.000 F 
ATOM     14  F   UNL     1      48.230   2.536  16.354  0.00  0.00    +0.000 F 
ENDBRANCH  10  11
ENDBRANCH   9  10
ENDBRANCH   7   9
ENDBRANCH   2   3
BRANCH   2  15
ATOM     15  C   UNL     1      48.395   7.093  13.169  0.00  0.00    +0.000 C 
BRANCH  15  16
ATOM     16  N   UNL     1      46.974   7.024  13.524  0.00  0.00    +0.000 N 
ATOM     17  H   UNL     1      46.499   7.910  13.385  0.00  0.00    +0.000 HD
BRANCH  16  18
ATOM     18  C   UNL     1      46.246   5.975  12.928  0.00  0.00    +0.000 A 
ATOM     19  C   UNL     1      45.863   6.063  11.585  0.00  0.00    +0.000 A 
ATOM     20  C   UNL     1      45.122   5.036  10.989  0.00  0.00    +0.000 A 
ATOM     21  C   UNL     1      44.749   3.955  11.773  0.00  0.00    +0.000 A 
ATOM     22  N   UNL     1      45.039   3.847  13.096  0.00  0.00    +0.000 NA
ATOM     23  C   UNL     1      45.756   4.866  13.629  0.00  0.00    +0.000 A 
BRANCH  21  24
ATOM     24  C   UNL     1      43.987   2.808  11.178  0.00  0.00    +0.000 C 
ATOM     25  N   UNL     1      44.556   2.255  10.061  0.00  0.00    +0.000 N 
ATOM     26  O   UNL     1      42.931   2.399  11.641  0.00  0.00    +0.000 OA
ATOM     27  H   UNL     1      45.431   2.631   9.711  0.00  0.00    +0.000 HD
ATOM     28  H   UNL     1      44.101   1.487   9.592  0.00  0.00    +0.000 HD
ENDBRANCH  21  24
ENDBRANCH  16  18
ENDBRANCH  15  16
ENDBRANCH   2  15
TORSDOF 8
ENDMDL
MODEL 7
REMARK VINA RESULT:    -6.351      4.820      8.622
REMARK INTER + INTRA:         -10.260
REMARK INTER:                  -9.713
REMARK INTRA:                  -0.546
REMARK UNBOUND:                -0.939
REMARK  Name = 
REMARK  9 active torsions:
REMARK  status: ('A' for Active; 'I' for Inactive)
REMARK    1  A    between atoms: C_1  and  C_2
REMARK    2  A    between atoms: C_2  and  C_3
REMARK    3  A    between atoms: C_2  and  C_14
REMARK    4  A    between atoms: C_3  and  N_4
REMARK    5  A    between atoms: N_4  and  C_5
REMARK    6  A    between atoms: C_8  and  C_9
REMARK    7  A    between atoms: C_18  and  O_19
REMARK    8  A    between atoms: O_19  and  C_20
REMARK    9  A    between atoms: C_20  and  C_21
REMARK                            x       y       z     vdW  Elec       q    Type
REMARK                         _______ _______ _______ _____ _____    ______ ____
ROOT
ATOM      1  C   UNL     1      47.545   7.361  11.506  0.00  0.00    +0.000 C 
ATOM      2  C   UNL     1      46.931   6.353  12.432  0.00  0.00    +0.000 C 
ENDROOT
BRANCH   2   3
ATOM      3  C   UNL     1      45.636   5.749  12.040  0.00  0.00    +0.000 A 
ATOM      4  C   UNL     1      44.501   5.892  12.848  0.00  0.00    +0.000 A 
ATOM      5  C   UNL     1      43.288   5.296  12.487  0.00  0.00    +0.000 A 
ATOM      6  C   UNL     1      43.184   4.564  11.302  0.00  0.00    +0.000 A 
ATOM      7  C   UNL     1      44.290   4.452  10.464  0.00  0.00    +0.000 A 
ATOM      8  C   UNL     1      45.509   5.019  10.849  0.00  0.00    +0.000 A 
BRANCH   7   9
ATOM      9  O   UNL     1      44.311   3.801   9.263  0.00  0.00    +0.000 OA
BRANCH   9  10
ATOM     10  C   UNL     1      45.265   4.268   8.299  0.00  0.00    +0.000 C 
BRANCH  10  11
ATOM     11  C   UNL     1      45.989   3.101   7.630  0.00  0.00    +0.000 C 
ATOM     12  F   UNL     1      45.514   2.818   6.398  0.00  0.00    +0.000 F 
ATOM     13  F   UNL     1      47.312   3.362   7.505  0.00  0.00    +0.000 F 
ATOM     14  F   UNL     1      45.873   1.976   8.376  0.00  0.00    +0.000 F 
ENDBRANCH  10  11
ENDBRANCH   9  10
ENDBRANCH   7   9
ENDBRANCH   2   3
BRANCH   2  15
ATOM     15  C   UNL     1      47.274   6.384  13.896  0.00  0.00    +0.000 C 
BRANCH  15  16
ATOM     16  N   UNL     1      47.101   5.064  14.511  0.00  0.00    +0.000 N 
ATOM     17  H   UNL     1      47.403   4.312  13.899  0.00  0.00    +0.000 HD
BRANCH  16  18
ATOM     18  C   UNL     1      47.660   4.911  15.795  0.00  0.00    +0.000 A 
ATOM     19  C   UNL     1      47.303   3.814  16.589  0.00  0.00    +0.000 A 
ATOM     20  C   UNL     1      47.836   3.664  17.873  0.00  0.00    +0.000 A 
ATOM     21  C   UNL     1      48.694   4.644  18.347  0.00  0.00    +0.000 A 
ATOM     22  N   UNL     1      49.026   5.759  17.646  0.00  0.00    +0.000 NA
ATOM     23  C   UNL     1      48.483   5.863  16.408  0.00  0.00    +0.000 A 
BRANCH  21  24
ATOM     24  C   UNL     1      49.325   4.515  19.702  0.00  0.00    +0.000 C 
ATOM     25  N   UNL     1      48.527   3.945  20.659  0.00  0.00    +0.000 N 
ATOM     26  O   UNL     1      50.461   4.898  19.946  0.00  0.00    +0.000 OA
ATOM     27  H   UNL     1      47.590   3.648  20.411  0.00  0.00    +0.000 HD
ATOM     28  H   UNL     1      48.871   3.833  21.600  0.00  0.00    +0.000 HD
ENDBRANCH  21  24
ENDBRANCH  16  18
ENDBRANCH  15  16
ENDBRANCH   2  15
TORSDOF 8
ENDMDL
MODEL 8
REMARK VINA RESULT:    -5.845      5.114      7.981
REMARK INTER + INTRA:          -9.518
REMARK INTER:                  -8.590
REMARK INTRA:                  -0.928
REMARK UNBOUND:                -0.939
REMARK  Name = 
REMARK  9 active torsions:
REMARK  status: ('A' for Active; 'I' for Inactive)
REMARK    1  A    between atoms: C_1  and  C_2
REMARK    2  A    between atoms: C_2  and  C_3
REMARK    3  A    between atoms: C_2  and  C_14
REMARK    4  A    between atoms: C_3  and  N_4
REMARK    5  A    between atoms: N_4  and  C_5
REMARK    6  A    between atoms: C_8  and  C_9
REMARK    7  A    between atoms: C_18  and  O_19
REMARK    8  A    between atoms: O_19  and  C_20
REMARK    9  A    between atoms: C_20  and  C_21
REMARK                            x       y       z     vdW  Elec       q    Type
REMARK                         _______ _______ _______ _____ _____    ______ ____
ROOT
ATOM      1  C   UNL     1      49.623   7.368  12.048  0.00  0.00    +0.000 C 
ATOM      2  C   UNL     1      48.603   7.376  13.148  0.00  0.00    +0.000 C 
ENDROOT
BRANCH   2   3
ATOM      3  C   UNL     1      47.189   7.121  12.787  0.00  0.00    +0.000 A 
ATOM      4  C   UNL     1      46.418   8.104  12.155  0.00  0.00    +0.000 A 
ATOM      5  C   UNL     1      45.075   7.866  11.843  0.00  0.00    +0.000 A 
ATOM      6  C   UNL     1      44.487   6.634  12.137  0.00  0.00    +0.000 A 
ATOM      7  C   UNL     1      45.253   5.629  12.721  0.00  0.00    +0.000 A 
ATOM      8  C   UNL     1      46.584   5.886  13.065  0.00  0.00    +0.000 A 
BRANCH   7   9
ATOM      9  O   UNL     1      44.813   4.371  13.023  0.00  0.00    +0.000 OA
BRANCH   9  10
ATOM     10  C   UNL     1      44.964   3.377  12.000  0.00  0.00    +0.000 C 
BRANCH  10  11
ATOM     11  C   UNL     1      43.629   3.079  11.319  0.00  0.00    +0.000 C 
ATOM     12  F   UNL     1      43.069   1.922  11.734  0.00  0.00    +0.000 F 
ATOM     13  F   UNL     1      42.736   4.069  11.553  0.00  0.00    +0.000 F 
ATOM     14  F   UNL     1      43.786   2.993   9.976  0.00  0.00    +0.000 F 
ENDBRANCH  10  11
ENDBRANCH   9  10
ENDBRANCH   7   9
ENDBRANCH   2   3
BRANCH   2  15
ATOM     15  C   UNL     1      48.873   8.158  14.405  0.00  0.00    +0.000 C 
BRANCH  15  16
ATOM     16  N   UNL     1      48.267   7.512  15.574  0.00  0.00    +0.000 N 
ATOM     17  H   UNL     1      47.314   7.212  15.395  0.00  0.00    +0.000 HD
BRANCH  16  18
ATOM     18  C   UNL     1      49.015   6.468  16.151  0.00  0.00    +0.000 A 
ATOM     19  C   UNL     1      48.360   5.373  16.728  0.00  0.00    +0.000 A 
ATOM     20  C   UNL     1      49.093   4.340  17.322  0.00  0.00    +0.000 A 
ATOM     21  C   UNL     1      50.475   4.451  17.357  0.00  0.00    +0.000 A 
ATOM     22  N   UNL     1      51.158   5.519  16.870  0.00  0.00    +0.000 NA
ATOM     23  C   UNL     1      50.406   6.495  16.305  0.00  0.00    +0.000 A 
BRANCH  21  24
ATOM     24  C   UNL     1      51.313   3.356  17.948  0.00  0.00    +0.000 C 
ATOM     25  N   UNL     1      50.867   2.086  17.693  0.00  0.00    +0.000 N 
ATOM     26  O   UNL     1      52.313   3.572  18.618  0.00  0.00    +0.000 OA
ATOM     27  H   UNL     1      50.029   1.957  17.136  0.00  0.00    +0.000 HD
ATOM     28  H   UNL     1      51.366   1.292  18.064  0.00  0.00    +0.000 HD
ENDBRANCH  21  24
ENDBRANCH  16  18
ENDBRANCH  15  16
ENDBRANCH   2  15
TORSDOF 8
ENDMDL
MODEL 9
REMARK VINA RESULT:    -5.838      4.671      8.357
REMARK INTER + INTRA:          -9.507
REMARK INTER:                  -8.624
REMARK INTRA:                  -0.882
REMARK UNBOUND:                -0.939
REMARK  Name = 
REMARK  9 active torsions:
REMARK  status: ('A' for Active; 'I' for Inactive)
REMARK    1  A    between atoms: C_1  and  C_2
REMARK    2  A    between atoms: C_2  and  C_3
REMARK    3  A    between atoms: C_2  and  C_14
REMARK    4  A    between atoms: C_3  and  N_4
REMARK    5  A    between atoms: N_4  and  C_5
REMARK    6  A    between atoms: C_8  and  C_9
REMARK    7  A    between atoms: C_18  and  O_19
REMARK    8  A    between atoms: O_19  and  C_20
REMARK    9  A    between atoms: C_20  and  C_21
REMARK                            x       y       z     vdW  Elec       q    Type
REMARK                         _______ _______ _______ _____ _____    ______ ____
ROOT
ATOM      1  C   UNL     1      49.701   7.727  11.884  0.00  0.00    +0.000 C 
ATOM      2  C   UNL     1      48.646   7.151  12.782  0.00  0.00    +0.000 C 
ENDROOT
BRANCH   2   3
ATOM      3  C   UNL     1      47.233   7.245  12.344  0.00  0.00    +0.000 A 
ATOM      4  C   UNL     1      46.494   8.419  12.541  0.00  0.00    +0.000 A 
ATOM      5  C   UNL     1      45.153   8.492  12.151  0.00  0.00    +0.000 A 
ATOM      6  C   UNL     1      44.534   7.401  11.537  0.00  0.00    +0.000 A 
ATOM      7  C   UNL     1      45.268   6.245  11.289  0.00  0.00    +0.000 A 
ATOM      8  C   UNL     1      46.597   6.164  11.716  0.00  0.00    +0.000 A 
BRANCH   7   9
ATOM      9  O   UNL     1      44.796   5.125  10.663  0.00  0.00    +0.000 OA
BRANCH   9  10
ATOM     10  C   UNL     1      43.529   4.626  11.112  0.00  0.00    +0.000 C 
BRANCH  10  11
ATOM     11  C   UNL     1      43.709   3.513  12.144  0.00  0.00    +0.000 C 
ATOM     12  F   UNL     1      42.988   2.407  11.861  0.00  0.00    +0.000 F 
ATOM     13  F   UNL     1      45.008   3.140  12.229  0.00  0.00    +0.000 F 
ATOM     14  F   UNL     1      43.334   3.937  13.374  0.00  0.00    +0.000 F 
ENDBRANCH  10  11
ENDBRANCH   9  10
ENDBRANCH   7   9
ENDBRANCH   2   3
BRANCH   2  15
ATOM     15  C   UNL     1      48.913   7.027  14.258  0.00  0.00    +0.000 C 
BRANCH  15  16
ATOM     16  N   UNL     1      47.944   6.134  14.900  0.00  0.00    +0.000 N 
ATOM     17  H   UNL     1      47.711   5.336  14.317  0.00  0.00    +0.000 HD
BRANCH  16  18
ATOM     18  C   UNL     1      48.272   5.714  16.204  0.00  0.00    +0.000 A 
ATOM     19  C   UNL     1      47.761   4.510  16.702  0.00  0.00    +0.000 A 
ATOM     20  C   UNL     1      48.063   4.094  18.003  0.00  0.00    +0.000 A 
ATOM     21  C   UNL     1      48.847   4.922  18.792  0.00  0.00    +0.000 A 
ATOM     22  N   UNL     1      49.317   6.129  18.383  0.00  0.00    +0.000 NA
ATOM     23  C   UNL     1      48.997   6.490  17.116  0.00  0.00    +0.000 A 
BRANCH  21  24
ATOM     24  C   UNL     1      49.234   4.509  20.181  0.00  0.00    +0.000 C 
ATOM     25  N   UNL     1      50.572   4.605  20.460  0.00  0.00    +0.000 N 
ATOM     26  O   UNL     1      48.425   4.106  21.005  0.00  0.00    +0.000 OA
ATOM     27  H   UNL     1      51.206   4.941  19.743  0.00  0.00    +0.000 HD
ATOM     28  H   UNL     1      50.918   4.335  21.368  0.00  0.00    +0.000 HD
ENDBRANCH  21  24
ENDBRANCH  16  18
ENDBRANCH  15  16
ENDBRANCH   2  15
TORSDOF 8
ENDMDL
