MODEL 1
REMARK VINA RESULT:    -8.054      0.000      0.000
REMARK INTER + INTRA:          -9.852
REMARK INTER:                  -9.467
REMARK INTRA:                  -0.385
REMARK UNBOUND:                -0.385
REMARK  Name = 
REMARK  3 active torsions:
REMARK  status: ('A' for Active; 'I' for Inactive)
REMARK    1  A    between atoms: C_2  and  C_4
REMARK    2  A    between atoms: N_8  and  C_9
REMARK    3  A    between atoms: C_9  and  C_10
REMARK                            x       y       z     vdW  Elec       q    Type
REMARK                         _______ _______ _______ _____ _____    ______ ____
ROOT
ATOM      1  C   UNL     1      46.628   2.692   7.345  0.00  0.00    +0.000 A 
ATOM      2  C   UNL     1      46.049   1.781   8.178  0.00  0.00    +0.000 A 
ATOM      3  N   UNL     1      45.213   2.121   9.179  0.00  0.00    +0.000 NA
ATOM      4  C   UNL     1      44.983   3.433   9.373  0.00  0.00    +0.000 A 
ATOM      5  N   UNL     1      43.964   3.695  10.290  0.00  0.00    +0.000 N 
ATOM      6  N   UNL     1      45.576   4.408   8.670  0.00  0.00    +0.000 NA
ATOM      7  C   UNL     1      46.393   4.013   7.657  0.00  0.00    +0.000 A 
ATOM      8  H   UNL     1      43.780   2.788  10.714  0.00  0.00    +0.000 HD
ENDROOT
BRANCH   1  10
ATOM      9  N   UNL     1      47.307   3.082   5.046  0.00  0.00    +0.000 N 
ATOM     10  C   UNL     1      47.448   2.320   6.179  0.00  0.00    +0.000 C 
ATOM     11  O   UNL     1      48.257   1.404   6.238  0.00  0.00    +0.000 OA
ATOM     12  H   UNL     1      47.965   2.881   4.300  0.00  0.00    +0.000 HD
ATOM     13  H   UNL     1      46.870   3.990   5.040  0.00  0.00    +0.000 HD
ENDBRANCH   1  10
BRANCH   5  14
ATOM     14  C   UNL     1      44.007   4.825  11.229  0.00  0.00    +0.000 C 
ATOM     15  C   UNL     1      42.651   5.124  11.860  0.00  0.00    +0.000 C 
ATOM     16  C   UNL     1      43.314   6.147  10.997  0.00  0.00    +0.000 C 
BRANCH  14  17
ATOM     17  C   UNL     1      45.247   4.779  12.108  0.00  0.00    +0.000 A 
ATOM     18  C   UNL     1      46.062   5.904  12.305  0.00  0.00    +0.000 A 
ATOM     19  C   UNL     1      47.053   5.904  13.283  0.00  0.00    +0.000 A 
ATOM     20  C   UNL     1      47.228   4.758  14.037  0.00  0.00    +0.000 A 
ATOM     21  N   UNL     1      46.517   3.629  13.852  0.00  0.00    +0.000 NA
ATOM     22  C   UNL     1      45.552   3.668  12.899  0.00  0.00    +0.000 A 
ENDBRANCH  14  17
ENDBRANCH   5  14
TORSDOF 3
ENDMDL
MODEL 2
REMARK VINA RESULT:    -6.450      3.024      6.277
REMARK INTER + INTRA:          -7.966
REMARK INTER:                  -7.849
REMARK INTRA:                  -0.117
REMARK UNBOUND:                -0.385
REMARK  Name = 
REMARK  3 active torsions:
REMARK  status: ('A' for Active; 'I' for Inactive)
REMARK    1  A    between atoms: C_2  and  C_4
REMARK    2  A    between atoms: N_8  and  C_9
REMARK    3  A    between atoms: C_9  and  C_10
REMARK                            x       y       z     vdW  Elec       q    Type
REMARK                         _______ _______ _______ _____ _____    ______ ____
ROOT
ATOM      1  C   UNL     1      48.014   6.487  13.947  0.00  0.00    +0.000 A 
ATOM      2  C   UNL     1      47.922   7.028  12.698  0.00  0.00    +0.000 A 
ATOM      3  N   UNL     1      46.978   6.671  11.805  0.00  0.00    +0.000 NA
ATOM      4  C   UNL     1      46.117   5.703  12.171  0.00  0.00    +0.000 A 
ATOM      5  N   UNL     1      45.056   5.529  11.281  0.00  0.00    +0.000 N 
ATOM      6  N   UNL     1      46.182   5.046  13.338  0.00  0.00    +0.000 NA
ATOM      7  C   UNL     1      47.139   5.458  14.213  0.00  0.00    +0.000 A 
ATOM      8  H   UNL     1      45.326   6.083  10.471  0.00  0.00    +0.000 HD
ENDROOT
BRANCH   1  10
ATOM      9  N   UNL     1      48.451   7.361  16.171  0.00  0.00    +0.000 N 
ATOM     10  C   UNL     1      48.970   6.955  14.966  0.00  0.00    +0.000 C 
ATOM     11  O   UNL     1      50.176   6.934  14.763  0.00  0.00    +0.000 OA
ATOM     12  H   UNL     1      49.134   7.565  16.894  0.00  0.00    +0.000 HD
ATOM     13  H   UNL     1      47.516   7.141  16.473  0.00  0.00    +0.000 HD
ENDBRANCH   1  10
BRANCH   5  14
ATOM     14  C   UNL     1      44.484   4.210  10.970  0.00  0.00    +0.000 C 
ATOM     15  C   UNL     1      42.987   4.133  11.250  0.00  0.00    +0.000 C 
ATOM     16  C   UNL     1      43.933   3.260  12.008  0.00  0.00    +0.000 C 
BRANCH  14  17
ATOM     17  C   UNL     1      45.031   3.653   9.666  0.00  0.00    +0.000 A 
ATOM     18  C   UNL     1      45.583   4.480   8.676  0.00  0.00    +0.000 A 
ATOM     19  C   UNL     1      46.278   3.937   7.599  0.00  0.00    +0.000 A 
ATOM     20  C   UNL     1      46.389   2.560   7.519  0.00  0.00    +0.000 A 
ATOM     21  N   UNL     1      45.829   1.716   8.406  0.00  0.00    +0.000 NA
ATOM     22  C   UNL     1      45.169   2.279   9.449  0.00  0.00    +0.000 A 
ENDBRANCH  14  17
ENDBRANCH   5  14
TORSDOF 3
ENDMDL
MODEL 3
REMARK VINA RESULT:    -6.074      3.003      6.401
REMARK INTER + INTRA:          -7.525
REMARK INTER:                  -8.201
REMARK INTRA:                   0.676
REMARK UNBOUND:                -0.385
REMARK  Name = 
REMARK  3 active torsions:
REMARK  status: ('A' for Active; 'I' for Inactive)
REMARK    1  A    between atoms: C_2  and  C_4
REMARK    2  A    between atoms: N_8  and  C_9
REMARK    3  A    between atoms: C_9  and  C_10
REMARK                            x       y       z     vdW  Elec       q    Type
REMARK                         _______ _______ _______ _____ _____    ______ ____
ROOT
ATOM      1  C   UNL     1      47.866   5.909  14.630  0.00  0.00    +0.000 A 
ATOM      2  C   UNL     1      47.371   4.787  15.225  0.00  0.00    +0.000 A 
ATOM      3  N   UNL     1      46.609   3.882  14.579  0.00  0.00    +0.000 NA
ATOM      4  C   UNL     1      46.302   4.139  13.294  0.00  0.00    +0.000 A 
ATOM      5  N   UNL     1      45.683   3.072  12.640  0.00  0.00    +0.000 N 
ATOM      6  N   UNL     1      46.661   5.257  12.648  0.00  0.00    +0.000 NA
ATOM      7  C   UNL     1      47.447   6.128  13.336  0.00  0.00    +0.000 A 
ATOM      8  H   UNL     1      45.462   2.422  13.392  0.00  0.00    +0.000 HD
ENDROOT
BRANCH   1  10
ATOM      9  N   UNL     1      48.245   7.764  16.152  0.00  0.00    +0.000 N 
ATOM     10  C   UNL     1      48.793   6.840  15.296  0.00  0.00    +0.000 C 
ATOM     11  O   UNL     1      50.002   6.758  15.133  0.00  0.00    +0.000 OA
ATOM     12  H   UNL     1      48.911   8.312  16.687  0.00  0.00    +0.000 HD
ATOM     13  H   UNL     1      47.310   7.690  16.520  0.00  0.00    +0.000 HD
ENDBRANCH   1  10
BRANCH   5  14
ATOM     14  C   UNL     1      44.617   3.256  11.644  0.00  0.00    +0.000 C 
ATOM     15  C   UNL     1      43.530   4.218  12.112  0.00  0.00    +0.000 C 
ATOM     16  C   UNL     1      43.192   2.790  11.832  0.00  0.00    +0.000 C 
BRANCH  14  17
ATOM     17  C   UNL     1      45.178   3.388  10.238  0.00  0.00    +0.000 A 
ATOM     18  C   UNL     1      45.336   2.280   9.392  0.00  0.00    +0.000 A 
ATOM     19  C   UNL     1      45.635   2.449   8.043  0.00  0.00    +0.000 A 
ATOM     20  C   UNL     1      45.795   3.737   7.565  0.00  0.00    +0.000 A 
ATOM     21  N   UNL     1      45.715   4.834   8.341  0.00  0.00    +0.000 NA
ATOM     22  C   UNL     1      45.411   4.634   9.648  0.00  0.00    +0.000 A 
ENDBRANCH  14  17
ENDBRANCH   5  14
TORSDOF 3
ENDMDL
MODEL 4
REMARK VINA RESULT:    -5.455      3.378      5.269
REMARK INTER + INTRA:          -6.796
REMARK INTER:                  -6.868
REMARK INTRA:                   0.072
REMARK UNBOUND:                -0.385
REMARK  Name = 
REMARK  3 active torsions:
REMARK  status: ('A' for Active; 'I' for Inactive)
REMARK    1  A    between atoms: C_2  and  C_4
REMARK    2  A    between atoms: N_8  and  C_9
REMARK    3  A    between atoms: C_9  and  C_10
REMARK                            x       y       z     vdW  Elec       q    Type
REMARK                         _______ _______ _______ _____ _____    ______ ____
ROOT
ATOM      1  C   UNL     1      44.877   4.813  11.112  0.00  0.00    +0.000 A 
ATOM      2  C   UNL     1      44.876   4.668  12.468  0.00  0.00    +0.000 A 
ATOM      3  N   UNL     1      45.540   5.494  13.300  0.00  0.00    +0.000 NA
ATOM      4  C   UNL     1      46.265   6.481  12.742  0.00  0.00    +0.000 A 
ATOM      5  N   UNL     1      46.758   7.407  13.663  0.00  0.00    +0.000 N 
ATOM      6  N   UNL     1      46.406   6.650  11.419  0.00  0.00    +0.000 NA
ATOM      7  C   UNL     1      45.698   5.804  10.623  0.00  0.00    +0.000 A 
ATOM      8  H   UNL     1      46.577   6.971  14.565  0.00  0.00    +0.000 HD
ENDROOT
BRANCH   1  10
ATOM      9  N   UNL     1      44.077   4.314   8.874  0.00  0.00    +0.000 N 
ATOM     10  C   UNL     1      44.062   3.985  10.206  0.00  0.00    +0.000 C 
ATOM     11  O   UNL     1      43.440   3.015  10.619  0.00  0.00    +0.000 OA
ATOM     12  H   UNL     1      43.605   3.660   8.257  0.00  0.00    +0.000 HD
ATOM     13  H   UNL     1      44.771   4.914   8.460  0.00  0.00    +0.000 HD
ENDBRANCH   1  10
BRANCH   5  14
ATOM     14  C   UNL     1      48.080   8.037  13.531  0.00  0.00    +0.000 C 
ATOM     15  C   UNL     1      48.004   9.558  13.440  0.00  0.00    +0.000 C 
ATOM     16  C   UNL     1      48.549   8.770  12.295  0.00  0.00    +0.000 C 
BRANCH  14  17
ATOM     17  C   UNL     1      49.105   7.392  14.448  0.00  0.00    +0.000 A 
ATOM     18  C   UNL     1      50.441   7.821  14.490  0.00  0.00    +0.000 A 
ATOM     19  C   UNL     1      51.302   7.376  15.490  0.00  0.00    +0.000 A 
ATOM     20  C   UNL     1      50.812   6.482  16.424  0.00  0.00    +0.000 A 
ATOM     21  N   UNL     1      49.558   5.989  16.398  0.00  0.00    +0.000 NA
ATOM     22  C   UNL     1      48.743   6.453  15.419  0.00  0.00    +0.000 A 
ENDBRANCH  14  17
ENDBRANCH   5  14
TORSDOF 3
ENDMDL
MODEL 5
REMARK VINA RESULT:    -5.414      4.841      7.681
REMARK INTER + INTRA:          -6.749
REMARK INTER:                  -6.446
REMARK INTRA:                  -0.303
REMARK UNBOUND:                -0.385
REMARK  Name = 
REMARK  3 active torsions:
REMARK  status: ('A' for Active; 'I' for Inactive)
REMARK    1  A    between atoms: C_2  and  C_4
REMARK    2  A    between atoms: N_8  and  C_9
REMARK    3  A    between atoms: C_9  and  C_10
REMARK                            x       y       z     vdW  Elec       q    Type
REMARK                         _______ _______ _______ _____ _____    ______ ____
ROOT
ATOM      1  C   UNL     1      47.406   5.733  13.511  0.00  0.00    +0.000 A 
ATOM      2  C   UNL     1      47.017   4.488  13.908  0.00  0.00    +0.000 A 
ATOM      3  N   UNL     1      47.249   4.000  15.143  0.00  0.00    +0.000 NA
ATOM      4  C   UNL     1      47.933   4.783  15.998  0.00  0.00    +0.000 A 
ATOM      5  N   UNL     1      47.960   4.296  17.306  0.00  0.00    +0.000 N 
ATOM      6  N   UNL     1      48.438   5.982  15.674  0.00  0.00    +0.000 NA
ATOM      7  C   UNL     1      48.158   6.438  14.424  0.00  0.00    +0.000 A 
ATOM      8  H   UNL     1      47.589   3.352  17.221  0.00  0.00    +0.000 HD
ENDROOT
BRANCH   1  10
ATOM      9  N   UNL     1      47.901   7.270  11.696  0.00  0.00    +0.000 N 
ATOM     10  C   UNL     1      47.055   6.315  12.204  0.00  0.00    +0.000 C 
ATOM     11  O   UNL     1      46.080   5.925  11.576  0.00  0.00    +0.000 OA
ATOM     12  H   UNL     1      47.703   7.568  10.746  0.00  0.00    +0.000 HD
ATOM     13  H   UNL     1      48.836   7.419  12.038  0.00  0.00    +0.000 HD
ENDBRANCH   1  10
BRANCH   5  14
ATOM     14  C   UNL     1      49.134   4.428  18.181  0.00  0.00    +0.000 C 
ATOM     15  C   UNL     1      48.762   4.570  19.654  0.00  0.00    +0.000 C 
ATOM     16  C   UNL     1      49.478   5.679  18.955  0.00  0.00    +0.000 C 
BRANCH  14  17
ATOM     17  C   UNL     1      50.246   3.472  17.780  0.00  0.00    +0.000 A 
ATOM     18  C   UNL     1      51.594   3.740  18.058  0.00  0.00    +0.000 A 
ATOM     19  C   UNL     1      52.567   2.758  17.887  0.00  0.00    +0.000 A 
ATOM     20  C   UNL     1      52.170   1.520  17.414  0.00  0.00    +0.000 A 
ATOM     21  N   UNL     1      50.901   1.225  17.073  0.00  0.00    +0.000 NA
ATOM     22  C   UNL     1      49.978   2.201  17.263  0.00  0.00    +0.000 A 
ENDBRANCH  14  17
ENDBRANCH   5  14
TORSDOF 3
ENDMDL
MODEL 6
REMARK VINA RESULT:    -5.241      2.574      3.608
REMARK INTER + INTRA:          -6.545
REMARK INTER:                  -7.356
REMARK INTRA:                   0.811
REMARK UNBOUND:                -0.385
REMARK  Name = 
REMARK  3 active torsions:
REMARK  status: ('A' for Active; 'I' for Inactive)
REMARK    1  A    between atoms: C_2  and  C_4
REMARK    2  A    between atoms: N_8  and  C_9
REMARK    3  A    between atoms: C_9  and  C_10
REMARK                            x       y       z     vdW  Elec       q    Type
REMARK                         _______ _______ _______ _____ _____    ______ ____
ROOT
ATOM      1  C   UNL     1      46.091   2.634   8.199  0.00  0.00    +0.000 A 
ATOM      2  C   UNL     1      46.369   3.886   7.736  0.00  0.00    +0.000 A 
ATOM      3  N   UNL     1      46.082   5.009   8.424  0.00  0.00    +0.000 NA
ATOM      4  C   UNL     1      45.454   4.866   9.606  0.00  0.00    +0.000 A 
ATOM      5  N   UNL     1      45.369   6.048  10.344  0.00  0.00    +0.000 N 
ATOM      6  N   UNL     1      45.055   3.686  10.103  0.00  0.00    +0.000 NA
ATOM      7  C   UNL     1      45.388   2.582   9.382  0.00  0.00    +0.000 A 
ATOM      8  H   UNL     1      45.661   6.766   9.685  0.00  0.00    +0.000 HD
ENDROOT
BRANCH   1  10
ATOM      9  N   UNL     1      47.124   1.546   6.289  0.00  0.00    +0.000 N 
ATOM     10  C   UNL     1      46.506   1.401   7.506  0.00  0.00    +0.000 C 
ATOM     11  O   UNL     1      46.352   0.302   8.019  0.00  0.00    +0.000 OA
ATOM     12  H   UNL     1      47.506   0.694   5.889  0.00  0.00    +0.000 HD
ATOM     13  H   UNL     1      47.511   2.417   5.964  0.00  0.00    +0.000 HD
ENDBRANCH   1  10
BRANCH   5  14
ATOM     14  C   UNL     1      44.199   6.393  11.164  0.00  0.00    +0.000 C 
ATOM     15  C   UNL     1      44.004   5.447  12.345  0.00  0.00    +0.000 C 
ATOM     16  C   UNL     1      42.961   5.535  11.279  0.00  0.00    +0.000 C 
BRANCH  14  17
ATOM     17  C   UNL     1      44.087   7.893  11.381  0.00  0.00    +0.000 A 
ATOM     18  C   UNL     1      45.113   8.637  11.985  0.00  0.00    +0.000 A 
ATOM     19  C   UNL     1      45.089  10.029  11.969  0.00  0.00    +0.000 A 
ATOM     20  C   UNL     1      44.016  10.658  11.364  0.00  0.00    +0.000 A 
ATOM     21  N   UNL     1      42.974   9.997  10.823  0.00  0.00    +0.000 NA
ATOM     22  C   UNL     1      43.036   8.642  10.845  0.00  0.00    +0.000 A 
ENDBRANCH  14  17
ENDBRANCH   5  14
TORSDOF 3
ENDMDL
MODEL 7
REMARK VINA RESULT:    -5.131      3.991      5.922
REMARK INTER + INTRA:          -6.416
REMARK INTER:                  -6.319
REMARK INTRA:                  -0.097
REMARK UNBOUND:                -0.385
REMARK  Name = 
REMARK  3 active torsions:
REMARK  status: ('A' for Active; 'I' for Inactive)
REMARK    1  A    between atoms: C_2  and  C_4
REMARK    2  A    between atoms: N_8  and  C_9
REMARK    3  A    between atoms: C_9  and  C_10
REMARK                            x       y       z     vdW  Elec       q    Type
REMARK                         _______ _______ _______ _____ _____    ______ ____
ROOT
ATOM      1  C   UNL     1      44.816   4.216  11.780  0.00  0.00    +0.000 A 
ATOM      2  C   UNL     1      45.226   4.854  10.647  0.00  0.00    +0.000 A 
ATOM      3  N   UNL     1      46.051   5.920  10.655  0.00  0.00    +0.000 NA
ATOM      4  C   UNL     1      46.448   6.383  11.855  0.00  0.00    +0.000 A 
ATOM      5  N   UNL     1      47.449   7.354  11.780  0.00  0.00    +0.000 N 
ATOM      6  N   UNL     1      46.028   5.885  13.026  0.00  0.00    +0.000 NA
ATOM      7  C   UNL     1      45.213   4.797  12.964  0.00  0.00    +0.000 A 
ATOM      8  H   UNL     1      47.487   7.586  10.789  0.00  0.00    +0.000 HD
ENDROOT
BRANCH   1  10
ATOM      9  N   UNL     1      44.037   2.226  10.626  0.00  0.00    +0.000 N 
ATOM     10  C   UNL     1      44.009   2.983  11.771  0.00  0.00    +0.000 C 
ATOM     11  O   UNL     1      43.384   2.626  12.760  0.00  0.00    +0.000 OA
ATOM     12  H   UNL     1      43.570   1.326  10.687  0.00  0.00    +0.000 HD
ATOM     13  H   UNL     1      44.735   2.333   9.908  0.00  0.00    +0.000 HD
ENDBRANCH   1  10
BRANCH   5  14
ATOM     14  C   UNL     1      47.514   8.505  12.692  0.00  0.00    +0.000 C 
ATOM     15  C   UNL     1      48.936   8.823  13.143  0.00  0.00    +0.000 C 
ATOM     16  C   UNL     1      47.910   8.411  14.147  0.00  0.00    +0.000 C 
BRANCH  14  17
ATOM     17  C   UNL     1      46.603   9.634  12.240  0.00  0.00    +0.000 A 
ATOM     18  C   UNL     1      47.035  10.629  11.351  0.00  0.00    +0.000 A 
ATOM     19  C   UNL     1      46.128  11.516  10.777  0.00  0.00    +0.000 A 
ATOM     20  C   UNL     1      44.795  11.404  11.125  0.00  0.00    +0.000 A 
ATOM     21  N   UNL     1      44.331  10.509  12.019  0.00  0.00    +0.000 NA
ATOM     22  C   UNL     1      45.240   9.653  12.549  0.00  0.00    +0.000 A 
ENDBRANCH  14  17
ENDBRANCH   5  14
TORSDOF 3
ENDMDL
