MODEL 1
REMARK VINA RESULT:    -8.018      0.000      0.000
REMARK INTER + INTRA:         -11.778
REMARK INTER:                 -10.831
REMARK INTRA:                  -0.947
REMARK UNBOUND:                -0.947
REMARK  Name = 
REMARK  6 active torsions:
REMARK  status: ('A' for Active; 'I' for Inactive)
REMARK    1  A    between atoms: C_2  and  C_20
REMARK    2  A    between atoms: N_3  and  C_4
REMARK    3  A    between atoms: C_4  and  C_5
REMARK    4  A    between atoms: C_8  and  C_9
REMARK    5  A    between atoms: C_9  and  N_10
REMARK    6  A    between atoms: C_11  and  C_13
REMARK                            x       y       z     vdW  Elec       q    Type
REMARK                         _______ _______ _______ _____ _____    ______ ____
ROOT
ATOM      1  C   UNL     1      46.389   7.627  12.894  0.00  0.00    +0.000 A 
ATOM      2  C   UNL     1      45.419   8.301  12.150  0.00  0.00    +0.000 A 
ATOM      3  C   UNL     1      44.481   7.579  11.415  0.00  0.00    +0.000 A 
ATOM      4  C   UNL     1      44.515   6.187  11.461  0.00  0.00    +0.000 A 
ATOM      5  N   UNL     1      45.434   5.510  12.197  0.00  0.00    +0.000 NA
ATOM      6  C   UNL     1      46.336   6.239  12.895  0.00  0.00    +0.000 A 
ENDROOT
BRANCH   1   7
ATOM      7  C   UNL     1      47.435   8.367  13.674  0.00  0.00    +0.000 C 
BRANCH   7  10
ATOM      8  O   UNL     1      49.841   7.057  14.089  0.00  0.00    +0.000 OA
ATOM      9  C   UNL     1      49.041   7.109  15.019  0.00  0.00    +0.000 C 
ATOM     10  N   UNL     1      47.795   7.669  14.881  0.00  0.00    +0.000 N 
ATOM     11  H   UNL     1      47.261   7.889  15.716  0.00  0.00    +0.000 HD
BRANCH   9  12
ATOM     12  C   UNL     1      49.357   6.536  16.333  0.00  0.00    +0.000 A 
ATOM     13  C   UNL     1      50.189   7.221  17.208  0.00  0.00    +0.000 A 
ATOM     14  S   UNL     1      50.455   6.400  18.680  0.00  0.00    +0.000 S 
ATOM     15  C   UNL     1      49.425   5.124  18.219  0.00  0.00    +0.000 A 
ATOM     16  N   UNL     1      49.176   4.085  19.060  0.00  0.00    +0.000 NA
ATOM     17  C   UNL     1      48.350   3.208  18.596  0.00  0.00    +0.000 A 
ATOM     18  N   UNL     1      47.753   3.276  17.363  0.00  0.00    +0.000 N 
ATOM     19  C   UNL     1      48.004   4.285  16.466  0.00  0.00    +0.000 A 
ATOM     20  O   UNL     1      47.506   4.282  15.346  0.00  0.00    +0.000 OA
ATOM     21  C   UNL     1      48.910   5.309  16.949  0.00  0.00    +0.000 A 
ATOM     22  H   UNL     1      47.126   2.550  17.052  0.00  0.00    +0.000 HD
ENDBRANCH   9  12
ENDBRANCH   7  10
ENDBRANCH   1   7
BRANCH   4  23
ATOM     23  C   UNL     1      43.524   5.371  10.665  0.00  0.00    +0.000 C 
BRANCH  23  24
ATOM     24  N   UNL     1      44.119   4.752   9.499  0.00  0.00    +0.000 N 
ATOM     25  C   UNL     1      44.440   3.416   9.457  0.00  0.00    +0.000 C 
ATOM     26  O   UNL     1      44.274   2.653  10.407  0.00  0.00    +0.000 OA
ATOM     27  H   UNL     1      44.029   5.221   8.603  0.00  0.00    +0.000 HD
BRANCH  25  28
ATOM     28  C   UNL     1      45.079   2.951   8.142  0.00  0.00    +0.000 C 
ATOM     29  C   UNL     1      46.050   1.796   8.311  0.00  0.00    +0.000 C 
ATOM     30  C   UNL     1      46.853   1.848   7.022  0.00  0.00    +0.000 C 
ATOM     31  C   UNL     1      46.820   3.314   6.604  0.00  0.00    +0.000 C 
ATOM     32  N   UNL     1      45.957   3.999   7.572  0.00  0.00    +0.000 NA
ATOM     33  H   UNL     1      45.388   4.707   7.107  0.00  0.00    +0.000 HD
ENDBRANCH  25  28
ENDBRANCH  23  24
ENDBRANCH   4  23
TORSDOF 6
ENDMDL
MODEL 2
REMARK VINA RESULT:    -7.861      2.143      3.641
REMARK INTER + INTRA:         -11.565
REMARK INTER:                 -10.591
REMARK INTRA:                  -0.974
REMARK UNBOUND:                -0.947
REMARK  Name = 
REMARK  6 active torsions:
REMARK  status: ('A' for Active; 'I' for Inactive)
REMARK    1  A    between atoms: C_2  and  C_20
REMARK    2  A    between atoms: N_3  and  C_4
REMARK    3  A    between atoms: C_4  and  C_5
REMARK    4  A    between atoms: C_8  and  C_9
REMARK    5  A    between atoms: C_9  and  N_10
REMARK    6  A    between atoms: C_11  and  C_13
REMARK                            x       y       z     vdW  Elec       q    Type
REMARK                         _______ _______ _______ _____ _____    ______ ____
ROOT
ATOM      1  C   UNL     1      46.029   4.580  13.662  0.00  0.00    +0.000 A 
ATOM      2  C   UNL     1      45.406   5.749  13.221  0.00  0.00    +0.000 A 
ATOM      3  C   UNL     1      44.676   5.741  12.033  0.00  0.00    +0.000 A 
ATOM      4  C   UNL     1      44.561   4.550  11.321  0.00  0.00    +0.000 A 
ATOM      5  N   UNL     1      45.138   3.395  11.743  0.00  0.00    +0.000 NA
ATOM      6  C   UNL     1      45.846   3.435  12.897  0.00  0.00    +0.000 A 
ENDROOT
BRANCH   1   7
ATOM      7  C   UNL     1      46.849   4.554  14.918  0.00  0.00    +0.000 C 
BRANCH   7  10
ATOM      8  O   UNL     1      49.043   4.861  16.581  0.00  0.00    +0.000 OA
ATOM      9  C   UNL     1      48.689   5.824  15.905  0.00  0.00    +0.000 C 
ATOM     10  N   UNL     1      47.567   5.786  15.114  0.00  0.00    +0.000 N 
ATOM     11  H   UNL     1      47.437   6.510  14.413  0.00  0.00    +0.000 HD
BRANCH   9  12
ATOM     12  C   UNL     1      49.424   7.093  15.936  0.00  0.00    +0.000 A 
ATOM     13  C   UNL     1      49.738   7.686  17.151  0.00  0.00    +0.000 A 
ATOM     14  S   UNL     1      50.582   9.160  16.993  0.00  0.00    +0.000 S 
ATOM     15  C   UNL     1      50.603   9.032  15.295  0.00  0.00    +0.000 A 
ATOM     16  N   UNL     1      51.220   9.969  14.527  0.00  0.00    +0.000 NA
ATOM     17  C   UNL     1      51.189   9.727  13.260  0.00  0.00    +0.000 A 
ATOM     18  N   UNL     1      50.593   8.631  12.690  0.00  0.00    +0.000 N 
ATOM     19  C   UNL     1      49.925   7.680  13.421  0.00  0.00    +0.000 A 
ATOM     20  O   UNL     1      49.345   6.747  12.876  0.00  0.00    +0.000 OA
ATOM     21  C   UNL     1      49.949   7.895  14.855  0.00  0.00    +0.000 A 
ATOM     22  H   UNL     1      50.591   8.506  11.690  0.00  0.00    +0.000 HD
ENDBRANCH   9  12
ENDBRANCH   7  10
ENDBRANCH   1   7
BRANCH   4  23
ATOM     23  C   UNL     1      43.791   4.506  10.022  0.00  0.00    +0.000 C 
BRANCH  23  24
ATOM     24  N   UNL     1      44.428   3.676   9.022  0.00  0.00    +0.000 N 
ATOM     25  C   UNL     1      45.533   4.089   8.316  0.00  0.00    +0.000 C 
ATOM     26  O   UNL     1      46.047   5.197   8.458  0.00  0.00    +0.000 OA
ATOM     27  H   UNL     1      44.256   2.675   9.042  0.00  0.00    +0.000 HD
BRANCH  25  28
ATOM     28  C   UNL     1      46.052   3.078   7.287  0.00  0.00    +0.000 C 
ATOM     29  C   UNL     1      46.397   1.724   7.882  0.00  0.00    +0.000 C 
ATOM     30  C   UNL     1      47.283   1.108   6.813  0.00  0.00    +0.000 C 
ATOM     31  C   UNL     1      47.942   2.299   6.123  0.00  0.00    +0.000 C 
ATOM     32  N   UNL     1      47.358   3.499   6.730  0.00  0.00    +0.000 NA
ATOM     33  H   UNL     1      47.213   4.223   6.025  0.00  0.00    +0.000 HD
ENDBRANCH  25  28
ENDBRANCH  23  24
ENDBRANCH   4  23
TORSDOF 6
ENDMDL
MODEL 3
REMARK VINA RESULT:    -7.822      2.307      2.998
REMARK INTER + INTRA:         -11.512
REMARK INTER:                 -10.532
REMARK INTRA:                  -0.980
REMARK UNBOUND:                -0.947
REMARK  Name = 
REMARK  6 active torsions:
REMARK  status: ('A' for Active; 'I' for Inactive)
REMARK    1  A    between atoms: C_2  and  C_20
REMARK    2  A    between atoms: N_3  and  C_4
REMARK    3  A    between atoms: C_4  and  C_5
REMARK    4  A    between atoms: C_8  and  C_9
REMARK    5  A    between atoms: C_9  and  N_10
REMARK    6  A    between atoms: C_11  and  C_13
REMARK                            x       y       z     vdW  Elec       q    Type
REMARK                         _______ _______ _______ _____ _____    ______ ____
ROOT
ATOM      1  C   UNL     1      46.496   4.722  14.348  0.00  0.00    +0.000 A 
ATOM      2  C   UNL     1      47.403   5.613  13.770  0.00  0.00    +0.000 A 
ATOM      3  C   UNL     1      47.156   6.128  12.499  0.00  0.00    +0.000 A 
ATOM      4  C   UNL     1      45.986   5.762  11.838  0.00  0.00    +0.000 A 
ATOM      5  N   UNL     1      45.078   4.916  12.390  0.00  0.00    +0.000 NA
ATOM      6  C   UNL     1      45.348   4.426  13.623  0.00  0.00    +0.000 A 
ENDROOT
BRANCH   1   7
ATOM      7  C   UNL     1      46.740   4.120  15.700  0.00  0.00    +0.000 C 
BRANCH   7  10
ATOM      8  O   UNL     1      47.768   4.976  18.125  0.00  0.00    +0.000 OA
ATOM      9  C   UNL     1      48.546   4.505  17.300  0.00  0.00    +0.000 C 
ATOM     10  N   UNL     1      48.138   4.128  16.045  0.00  0.00    +0.000 N 
ATOM     11  H   UNL     1      48.752   3.546  15.483  0.00  0.00    +0.000 HD
BRANCH   9  12
ATOM     12  C   UNL     1      49.975   4.352  17.595  0.00  0.00    +0.000 A 
ATOM     13  C   UNL     1      50.703   5.428  18.084  0.00  0.00    +0.000 A 
ATOM     14  S   UNL     1      52.349   5.071  18.356  0.00  0.00    +0.000 S 
ATOM     15  C   UNL     1      52.135   3.451  17.879  0.00  0.00    +0.000 A 
ATOM     16  N   UNL     1      53.167   2.566  17.915  0.00  0.00    +0.000 NA
ATOM     17  C   UNL     1      52.854   1.365  17.560  0.00  0.00    +0.000 A 
ATOM     18  N   UNL     1      51.600   0.969  17.169  0.00  0.00    +0.000 N 
ATOM     19  C   UNL     1      50.538   1.835  17.080  0.00  0.00    +0.000 A 
ATOM     20  O   UNL     1      49.446   1.465  16.663  0.00  0.00    +0.000 OA
ATOM     21  C   UNL     1      50.833   3.195  17.489  0.00  0.00    +0.000 A 
ATOM     22  H   UNL     1      51.423   0.017  16.890  0.00  0.00    +0.000 HD
ENDBRANCH   9  12
ENDBRANCH   7  10
ENDBRANCH   1   7
BRANCH   4  23
ATOM     23  C   UNL     1      45.692   6.289  10.453  0.00  0.00    +0.000 C 
BRANCH  23  24
ATOM     24  N   UNL     1      46.004   5.331   9.413  0.00  0.00    +0.000 N 
ATOM     25  C   UNL     1      45.062   4.476   8.893  0.00  0.00    +0.000 C 
ATOM     26  O   UNL     1      43.897   4.437   9.285  0.00  0.00    +0.000 OA
ATOM     27  H   UNL     1      46.834   5.483   8.849  0.00  0.00    +0.000 HD
BRANCH  25  28
ATOM     28  C   UNL     1      45.589   3.522   7.813  0.00  0.00    +0.000 C 
ATOM     29  C   UNL     1      46.036   2.175   8.354  0.00  0.00    +0.000 C 
ATOM     30  C   UNL     1      46.905   1.639   7.230  0.00  0.00    +0.000 C 
ATOM     31  C   UNL     1      47.464   2.882   6.546  0.00  0.00    +0.000 C 
ATOM     32  N   UNL     1      46.843   4.032   7.212  0.00  0.00    +0.000 NA
ATOM     33  H   UNL     1      46.625   4.764   6.535  0.00  0.00    +0.000 HD
ENDBRANCH  25  28
ENDBRANCH  23  24
ENDBRANCH   4  23
TORSDOF 6
ENDMDL
MODEL 4
REMARK VINA RESULT:    -7.769      2.422      3.135
REMARK INTER + INTRA:         -11.440
REMARK INTER:                 -10.727
REMARK INTRA:                  -0.714
REMARK UNBOUND:                -0.947
REMARK  Name = 
REMARK  6 active torsions:
REMARK  status: ('A' for Active; 'I' for Inactive)
REMARK    1  A    between atoms: C_2  and  C_20
REMARK    2  A    between atoms: N_3  and  C_4
REMARK    3  A    between atoms: C_4  and  C_5
REMARK    4  A    between atoms: C_8  and  C_9
REMARK    5  A    between atoms: C_9  and  N_10
REMARK    6  A    between atoms: C_11  and  C_13
REMARK                            x       y       z     vdW  Elec       q    Type
REMARK                         _______ _______ _______ _____ _____    ______ ____
ROOT
ATOM      1  C   UNL     1      46.254   4.377  13.649  0.00  0.00    +0.000 A 
ATOM      2  C   UNL     1      45.746   5.621  13.270  0.00  0.00    +0.000 A 
ATOM      3  C   UNL     1      44.945   5.727  12.134  0.00  0.00    +0.000 A 
ATOM      4  C   UNL     1      44.644   4.575  11.411  0.00  0.00    +0.000 A 
ATOM      5  N   UNL     1      45.107   3.351  11.774  0.00  0.00    +0.000 NA
ATOM      6  C   UNL     1      45.888   3.280  12.878  0.00  0.00    +0.000 A 
ENDROOT
BRANCH   1   7
ATOM      7  C   UNL     1      47.144   4.224  14.846  0.00  0.00    +0.000 C 
BRANCH   7  10
ATOM      8  O   UNL     1      49.190   4.640  16.667  0.00  0.00    +0.000 OA
ATOM      9  C   UNL     1      48.563   5.617  16.267  0.00  0.00    +0.000 C 
ATOM     10  N   UNL     1      47.485   5.497  15.425  0.00  0.00    +0.000 N 
ATOM     11  H   UNL     1      47.140   6.325  14.949  0.00  0.00    +0.000 HD
BRANCH   9  12
ATOM     12  C   UNL     1      48.906   6.976  16.699  0.00  0.00    +0.000 A 
ATOM     13  C   UNL     1      49.670   7.795  15.879  0.00  0.00    +0.000 A 
ATOM     14  S   UNL     1      49.981   9.333  16.548  0.00  0.00    +0.000 S 
ATOM     15  C   UNL     1      49.060   8.978  17.936  0.00  0.00    +0.000 A 
ATOM     16  N   UNL     1      48.882   9.903  18.916  0.00  0.00    +0.000 NA
ATOM     17  C   UNL     1      48.133   9.511  19.892  0.00  0.00    +0.000 A 
ATOM     18  N   UNL     1      47.548   8.273  19.976  0.00  0.00    +0.000 N 
ATOM     19  C   UNL     1      47.731   7.294  19.030  0.00  0.00    +0.000 A 
ATOM     20  O   UNL     1      47.249   6.176  19.168  0.00  0.00    +0.000 OA
ATOM     21  C   UNL     1      48.549   7.693  17.901  0.00  0.00    +0.000 A 
ATOM     22  H   UNL     1      46.984   8.022  20.773  0.00  0.00    +0.000 HD
ENDBRANCH   9  12
ENDBRANCH   7  10
ENDBRANCH   1   7
BRANCH   4  23
ATOM     23  C   UNL     1      43.792   4.654  10.166  0.00  0.00    +0.000 C 
BRANCH  23  24
ATOM     24  N   UNL     1      44.315   3.852   9.079  0.00  0.00    +0.000 N 
ATOM     25  C   UNL     1      45.424   4.224   8.357  0.00  0.00    +0.000 C 
ATOM     26  O   UNL     1      46.038   5.270   8.556  0.00  0.00    +0.000 OA
ATOM     27  H   UNL     1      44.056   2.871   9.033  0.00  0.00    +0.000 HD
BRANCH  25  28
ATOM     28  C   UNL     1      45.811   3.255   7.233  0.00  0.00    +0.000 C 
ATOM     29  C   UNL     1      46.552   2.022   7.720  0.00  0.00    +0.000 C 
ATOM     30  C   UNL     1      47.202   1.503   6.448  0.00  0.00    +0.000 C 
ATOM     31  C   UNL     1      47.410   2.743   5.586  0.00  0.00    +0.000 C 
ATOM     32  N   UNL     1      46.809   3.861   6.321  0.00  0.00    +0.000 NA
ATOM     33  H   UNL     1      46.341   4.502   5.680  0.00  0.00    +0.000 HD
ENDBRANCH  25  28
ENDBRANCH  23  24
ENDBRANCH   4  23
TORSDOF 6
ENDMDL
MODEL 5
REMARK VINA RESULT:    -7.583      2.274      3.467
REMARK INTER + INTRA:         -11.190
REMARK INTER:                 -10.279
REMARK INTRA:                  -0.911
REMARK UNBOUND:                -0.947
REMARK  Name = 
REMARK  6 active torsions:
REMARK  status: ('A' for Active; 'I' for Inactive)
REMARK    1  A    between atoms: C_2  and  C_20
REMARK    2  A    between atoms: N_3  and  C_4
REMARK    3  A    between atoms: C_4  and  C_5
REMARK    4  A    between atoms: C_8  and  C_9
REMARK    5  A    between atoms: C_9  and  N_10
REMARK    6  A    between atoms: C_11  and  C_13
REMARK                            x       y       z     vdW  Elec       q    Type
REMARK                         _______ _______ _______ _____ _____    ______ ____
ROOT
ATOM      1  C   UNL     1      46.966   4.755  14.268  0.00  0.00    +0.000 A 
ATOM      2  C   UNL     1      47.474   5.916  13.682  0.00  0.00    +0.000 A 
ATOM      3  C   UNL     1      46.958   6.363  12.467  0.00  0.00    +0.000 A 
ATOM      4  C   UNL     1      45.920   5.651  11.872  0.00  0.00    +0.000 A 
ATOM      5  N   UNL     1      45.393   4.533  12.436  0.00  0.00    +0.000 NA
ATOM      6  C   UNL     1      45.919   4.119  13.613  0.00  0.00    +0.000 A 
ENDROOT
BRANCH   1   7
ATOM      7  C   UNL     1      47.514   4.223  15.559  0.00  0.00    +0.000 C 
BRANCH   7  10
ATOM      8  O   UNL     1      49.679   5.523  16.697  0.00  0.00    +0.000 OA
ATOM      9  C   UNL     1      48.552   5.839  17.069  0.00  0.00    +0.000 C 
ATOM     10  N   UNL     1      47.427   5.195  16.618  0.00  0.00    +0.000 N 
ATOM     11  H   UNL     1      46.520   5.624  16.774  0.00  0.00    +0.000 HD
BRANCH   9  12
ATOM     12  C   UNL     1      48.343   6.904  18.056  0.00  0.00    +0.000 A 
ATOM     13  C   UNL     1      48.325   6.604  19.411  0.00  0.00    +0.000 A 
ATOM     14  S   UNL     1      48.057   7.962  20.408  0.00  0.00    +0.000 S 
ATOM     15  C   UNL     1      48.008   9.008  19.066  0.00  0.00    +0.000 A 
ATOM     16  N   UNL     1      47.844  10.349  19.226  0.00  0.00    +0.000 NA
ATOM     17  C   UNL     1      47.862  11.025  18.127  0.00  0.00    +0.000 A 
ATOM     18  N   UNL     1      48.027  10.479  16.879  0.00  0.00    +0.000 N 
ATOM     19  C   UNL     1      48.157   9.129  16.665  0.00  0.00    +0.000 A 
ATOM     20  O   UNL     1      48.235   8.667  15.533  0.00  0.00    +0.000 OA
ATOM     21  C   UNL     1      48.164   8.326  17.873  0.00  0.00    +0.000 A 
ATOM     22  H   UNL     1      48.017  11.062  16.056  0.00  0.00    +0.000 HD
ENDBRANCH   9  12
ENDBRANCH   7  10
ENDBRANCH   1   7
BRANCH   4  23
ATOM     23  C   UNL     1      45.346   6.097  10.548  0.00  0.00    +0.000 C 
BRANCH  23  24
ATOM     24  N   UNL     1      45.751   5.247   9.448  0.00  0.00    +0.000 N 
ATOM     25  C   UNL     1      44.957   4.232   8.970  0.00  0.00    +0.000 C 
ATOM     26  O   UNL     1      43.861   3.950   9.452  0.00  0.00    +0.000 OA
ATOM     27  H   UNL     1      46.483   5.576   8.826  0.00  0.00    +0.000 HD
BRANCH  25  28
ATOM     28  C   UNL     1      45.568   3.430   7.815  0.00  0.00    +0.000 C 
ATOM     29  C   UNL     1      46.105   2.072   8.232  0.00  0.00    +0.000 C 
ATOM     30  C   UNL     1      47.028   1.713   7.079  0.00  0.00    +0.000 C 
ATOM     31  C   UNL     1      47.502   3.055   6.531  0.00  0.00    +0.000 C 
ATOM     32  N   UNL     1      46.789   4.085   7.292  0.00  0.00    +0.000 NA
ATOM     33  H   UNL     1      46.527   4.863   6.685  0.00  0.00    +0.000 HD
ENDBRANCH  25  28
ENDBRANCH  23  24
ENDBRANCH   4  23
TORSDOF 6
ENDMDL
MODEL 6
REMARK VINA RESULT:    -7.456      4.432      9.511
REMARK INTER + INTRA:         -11.018
REMARK INTER:                 -10.250
REMARK INTRA:                  -0.769
REMARK UNBOUND:                -0.947
REMARK  Name = 
REMARK  6 active torsions:
REMARK  status: ('A' for Active; 'I' for Inactive)
REMARK    1  A    between atoms: C_2  and  C_20
REMARK    2  A    between atoms: N_3  and  C_4
REMARK    3  A    between atoms: C_4  and  C_5
REMARK    4  A    between atoms: C_8  and  C_9
REMARK    5  A    between atoms: C_9  and  N_10
REMARK    6  A    between atoms: C_11  and  C_13
REMARK                            x       y       z     vdW  Elec       q    Type
REMARK                         _______ _______ _______ _____ _____    ______ ____
ROOT
ATOM      1  C   UNL     1      48.610   3.274  17.085  0.00  0.00    +0.000 A 
ATOM      2  C   UNL     1      49.361   4.333  17.598  0.00  0.00    +0.000 A 
ATOM      3  C   UNL     1      50.721   4.163  17.849  0.00  0.00    +0.000 A 
ATOM      4  C   UNL     1      51.312   2.937  17.556  0.00  0.00    +0.000 A 
ATOM      5  N   UNL     1      50.608   1.900  17.034  0.00  0.00    +0.000 NA
ATOM      6  C   UNL     1      49.287   2.093  16.807  0.00  0.00    +0.000 A 
ENDROOT
BRANCH   1   7
ATOM      7  C   UNL     1      47.138   3.406  16.829  0.00  0.00    +0.000 C 
BRANCH   7  10
ATOM      8  O   UNL     1      47.209   3.021  14.087  0.00  0.00    +0.000 OA
ATOM      9  C   UNL     1      46.846   4.116  14.509  0.00  0.00    +0.000 C 
ATOM     10  N   UNL     1      46.855   4.420  15.848  0.00  0.00    +0.000 N 
ATOM     11  H   UNL     1      46.346   5.239  16.168  0.00  0.00    +0.000 HD
BRANCH   9  12
ATOM     12  C   UNL     1      46.418   5.184  13.599  0.00  0.00    +0.000 A 
ATOM     13  C   UNL     1      47.290   6.214  13.275  0.00  0.00    +0.000 A 
ATOM     14  S   UNL     1      46.618   7.371  12.217  0.00  0.00    +0.000 S 
ATOM     15  C   UNL     1      45.154   6.508  12.113  0.00  0.00    +0.000 A 
ATOM     16  N   UNL     1      44.138   6.942  11.320  0.00  0.00    +0.000 NA
ATOM     17  C   UNL     1      43.101   6.172  11.310  0.00  0.00    +0.000 A 
ATOM     18  N   UNL     1      42.989   5.007  12.025  0.00  0.00    +0.000 N 
ATOM     19  C   UNL     1      43.972   4.550  12.867  0.00  0.00    +0.000 A 
ATOM     20  O   UNL     1      43.814   3.540  13.544  0.00  0.00    +0.000 OA
ATOM     21  C   UNL     1      45.168   5.369  12.899  0.00  0.00    +0.000 A 
ATOM     22  H   UNL     1      42.146   4.456  11.984  0.00  0.00    +0.000 HD
ENDBRANCH   9  12
ENDBRANCH   7  10
ENDBRANCH   1   7
BRANCH   4  23
ATOM     23  C   UNL     1      52.781   2.711  17.829  0.00  0.00    +0.000 C 
BRANCH  23  24
ATOM     24  N   UNL     1      53.045   1.419  18.428  0.00  0.00    +0.000 N 
ATOM     25  C   UNL     1      53.934   0.523  17.884  0.00  0.00    +0.000 C 
ATOM     26  O   UNL     1      54.550   0.734  16.841  0.00  0.00    +0.000 OA
ATOM     27  H   UNL     1      52.810   1.282  19.406  0.00  0.00    +0.000 HD
BRANCH  25  28
ATOM     28  C   UNL     1      54.064  -0.798  18.652  0.00  0.00    +0.000 C 
ATOM     29  C   UNL     1      54.681  -1.920  17.835  0.00  0.00    +0.000 C 
ATOM     30  C   UNL     1      54.274  -3.159  18.615  0.00  0.00    +0.000 C 
ATOM     31  C   UNL     1      52.965  -2.775  19.297  0.00  0.00    +0.000 C 
ATOM     32  N   UNL     1      52.733  -1.363  18.976  0.00  0.00    +0.000 NA
ATOM     33  H   UNL     1      52.340  -0.873  19.780  0.00  0.00    +0.000 HD
ENDBRANCH  25  28
ENDBRANCH  23  24
ENDBRANCH   4  23
TORSDOF 6
ENDMDL
MODEL 7
REMARK VINA RESULT:    -7.054      4.496      9.482
REMARK INTER + INTRA:         -10.475
REMARK INTER:                  -9.421
REMARK INTRA:                  -1.054
REMARK UNBOUND:                -0.947
REMARK  Name = 
REMARK  6 active torsions:
REMARK  status: ('A' for Active; 'I' for Inactive)
REMARK    1  A    between atoms: C_2  and  C_20
REMARK    2  A    between atoms: N_3  and  C_4
REMARK    3  A    between atoms: C_4  and  C_5
REMARK    4  A    between atoms: C_8  and  C_9
REMARK    5  A    between atoms: C_9  and  N_10
REMARK    6  A    between atoms: C_11  and  C_13
REMARK                            x       y       z     vdW  Elec       q    Type
REMARK                         _______ _______ _______ _____ _____    ______ ____
ROOT
ATOM      1  C   UNL     1      48.754   3.305  17.170  0.00  0.00    +0.000 A 
ATOM      2  C   UNL     1      49.341   2.067  16.902  0.00  0.00    +0.000 A 
ATOM      3  C   UNL     1      50.692   1.865  17.178  0.00  0.00    +0.000 A 
ATOM      4  C   UNL     1      51.427   2.903  17.745  0.00  0.00    +0.000 A 
ATOM      5  N   UNL     1      50.872   4.108  18.037  0.00  0.00    +0.000 NA
ATOM      6  C   UNL     1      49.559   4.277  17.752  0.00  0.00    +0.000 A 
ENDROOT
BRANCH   1   7
ATOM      7  C   UNL     1      47.312   3.574  16.860  0.00  0.00    +0.000 C 
BRANCH   7  10
ATOM      8  O   UNL     1      47.264   3.176  14.118  0.00  0.00    +0.000 OA
ATOM      9  C   UNL     1      47.078   4.313  14.542  0.00  0.00    +0.000 C 
ATOM     10  N   UNL     1      47.161   4.617  15.878  0.00  0.00    +0.000 N 
ATOM     11  H   UNL     1      46.787   5.503  16.204  0.00  0.00    +0.000 HD
BRANCH   9  12
ATOM     12  C   UNL     1      46.793   5.431  13.635  0.00  0.00    +0.000 A 
ATOM     13  C   UNL     1      45.649   5.415  12.849  0.00  0.00    +0.000 A 
ATOM     14  S   UNL     1      45.488   6.788  11.849  0.00  0.00    +0.000 S 
ATOM     15  C   UNL     1      46.916   7.477  12.470  0.00  0.00    +0.000 A 
ATOM     16  N   UNL     1      47.343   8.700  12.056  0.00  0.00    +0.000 NA
ATOM     17  C   UNL     1      48.420   9.115  12.636  0.00  0.00    +0.000 A 
ATOM     18  N   UNL     1      49.111   8.413  13.591  0.00  0.00    +0.000 N 
ATOM     19  C   UNL     1      48.740   7.160  14.011  0.00  0.00    +0.000 A 
ATOM     20  O   UNL     1      49.416   6.531  14.817  0.00  0.00    +0.000 OA
ATOM     21  C   UNL     1      47.522   6.657  13.405  0.00  0.00    +0.000 A 
ATOM     22  H   UNL     1      49.955   8.787  13.996  0.00  0.00    +0.000 HD
ENDBRANCH   9  12
ENDBRANCH   7  10
ENDBRANCH   1   7
BRANCH   4  23
ATOM     23  C   UNL     1      52.897   2.726  18.044  0.00  0.00    +0.000 C 
BRANCH  23  24
ATOM     24  N   UNL     1      53.206   1.413  18.570  0.00  0.00    +0.000 N 
ATOM     25  C   UNL     1      54.087   0.559  17.949  0.00  0.00    +0.000 C 
ATOM     26  O   UNL     1      54.657   0.830  16.893  0.00  0.00    +0.000 OA
ATOM     27  H   UNL     1      53.013   1.226  19.549  0.00  0.00    +0.000 HD
BRANCH  25  28
ATOM     28  C   UNL     1      54.269  -0.794  18.647  0.00  0.00    +0.000 C 
ATOM     29  C   UNL     1      54.808  -1.883  17.737  0.00  0.00    +0.000 C 
ATOM     30  C   UNL     1      54.457  -3.152  18.495  0.00  0.00    +0.000 C 
ATOM     31  C   UNL     1      53.212  -2.792  19.298  0.00  0.00    +0.000 C 
ATOM     32  N   UNL     1      52.965  -1.366  19.057  0.00  0.00    +0.000 NA
ATOM     33  H   UNL     1      52.643  -0.909  19.910  0.00  0.00    +0.000 HD
ENDBRANCH  25  28
ENDBRANCH  23  24
ENDBRANCH   4  23
TORSDOF 6
ENDMDL
MODEL 8
REMARK VINA RESULT:    -7.012      2.152      3.139
REMARK INTER + INTRA:         -10.419
REMARK INTER:                  -9.716
REMARK INTRA:                  -0.703
REMARK UNBOUND:                -0.947
REMARK  Name = 
REMARK  6 active torsions:
REMARK  status: ('A' for Active; 'I' for Inactive)
REMARK    1  A    between atoms: C_2  and  C_20
REMARK    2  A    between atoms: N_3  and  C_4
REMARK    3  A    between atoms: C_4  and  C_5
REMARK    4  A    between atoms: C_8  and  C_9
REMARK    5  A    between atoms: C_9  and  N_10
REMARK    6  A    between atoms: C_11  and  C_13
REMARK                            x       y       z     vdW  Elec       q    Type
REMARK                         _______ _______ _______ _____ _____    ______ ____
ROOT
ATOM      1  C   UNL     1      46.739   4.605  14.121  0.00  0.00    +0.000 A 
ATOM      2  C   UNL     1      47.342   5.760  13.620  0.00  0.00    +0.000 A 
ATOM      3  C   UNL     1      46.951   6.267  12.383  0.00  0.00    +0.000 A 
ATOM      4  C   UNL     1      45.939   5.620  11.678  0.00  0.00    +0.000 A 
ATOM      5  N   UNL     1      45.321   4.509  12.155  0.00  0.00    +0.000 NA
ATOM      6  C   UNL     1      45.727   4.035  13.357  0.00  0.00    +0.000 A 
ENDROOT
BRANCH   1   7
ATOM      7  C   UNL     1      47.152   4.009  15.433  0.00  0.00    +0.000 C 
BRANCH   7  10
ATOM      8  O   UNL     1      47.507   3.579  18.147  0.00  0.00    +0.000 OA
ATOM      9  C   UNL     1      47.753   4.697  17.700  0.00  0.00    +0.000 C 
ATOM     10  N   UNL     1      47.532   5.021  16.385  0.00  0.00    +0.000 N 
ATOM     11  H   UNL     1      47.949   5.868  16.011  0.00  0.00    +0.000 HD
BRANCH   9  12
ATOM     12  C   UNL     1      48.262   5.770  18.560  0.00  0.00    +0.000 A 
ATOM     13  C   UNL     1      47.395   6.730  19.064  0.00  0.00    +0.000 A 
ATOM     14  S   UNL     1      48.164   7.905  20.032  0.00  0.00    +0.000 S 
ATOM     15  C   UNL     1      49.676   7.143  19.855  0.00  0.00    +0.000 A 
ATOM     16  N   UNL     1      50.784   7.627  20.478  0.00  0.00    +0.000 NA
ATOM     17  C   UNL     1      51.853   6.930  20.285  0.00  0.00    +0.000 A 
ATOM     18  N   UNL     1      51.915   5.793  19.521  0.00  0.00    +0.000 N 
ATOM     19  C   UNL     1      50.833   5.289  18.843  0.00  0.00    +0.000 A 
ATOM     20  O   UNL     1      50.936   4.308  18.115  0.00  0.00    +0.000 OA
ATOM     21  C   UNL     1      49.599   6.025  19.045  0.00  0.00    +0.000 A 
ATOM     22  H   UNL     1      52.786   5.300  19.399  0.00  0.00    +0.000 HD
ENDBRANCH   9  12
ENDBRANCH   7  10
ENDBRANCH   1   7
BRANCH   4  23
ATOM     23  C   UNL     1      45.499   6.132  10.326  0.00  0.00    +0.000 C 
BRANCH  23  24
ATOM     24  N   UNL     1      45.898   5.260   9.242  0.00  0.00    +0.000 N 
ATOM     25  C   UNL     1      45.069   4.287   8.736  0.00  0.00    +0.000 C 
ATOM     26  O   UNL     1      43.943   4.064   9.178  0.00  0.00    +0.000 OA
ATOM     27  H   UNL     1      46.668   5.549   8.646  0.00  0.00    +0.000 HD
BRANCH  25  28
ATOM     28  C   UNL     1      45.677   3.452   7.602  0.00  0.00    +0.000 C 
ATOM     29  C   UNL     1      46.175   2.089   8.049  0.00  0.00    +0.000 C 
ATOM     30  C   UNL     1      47.106   1.690   6.916  0.00  0.00    +0.000 C 
ATOM     31  C   UNL     1      47.620   3.011   6.353  0.00  0.00    +0.000 C 
ATOM     32  N   UNL     1      46.920   4.070   7.087  0.00  0.00    +0.000 NA
ATOM     33  H   UNL     1      46.686   4.844   6.464  0.00  0.00    +0.000 HD
ENDBRANCH  25  28
ENDBRANCH  23  24
ENDBRANCH   4  23
TORSDOF 6
ENDMDL
MODEL 9
REMARK VINA RESULT:    -6.988      1.664      1.987
REMARK INTER + INTRA:         -10.386
REMARK INTER:                  -9.432
REMARK INTRA:                  -0.954
REMARK UNBOUND:                -0.947
REMARK  Name = 
REMARK  6 active torsions:
REMARK  status: ('A' for Active; 'I' for Inactive)
REMARK    1  A    between atoms: C_2  and  C_20
REMARK    2  A    between atoms: N_3  and  C_4
REMARK    3  A    between atoms: C_4  and  C_5
REMARK    4  A    between atoms: C_8  and  C_9
REMARK    5  A    between atoms: C_9  and  N_10
REMARK    6  A    between atoms: C_11  and  C_13
REMARK                            x       y       z     vdW  Elec       q    Type
REMARK                         _______ _______ _______ _____ _____    ______ ____
ROOT
ATOM      1  C   UNL     1      46.408   6.585  12.926  0.00  0.00    +0.000 A 
ATOM      2  C   UNL     1      46.367   5.291  13.449  0.00  0.00    +0.000 A 
ATOM      3  C   UNL     1      45.654   4.295  12.783  0.00  0.00    +0.000 A 
ATOM      4  C   UNL     1      45.016   4.609  11.586  0.00  0.00    +0.000 A 
ATOM      5  N   UNL     1      45.062   5.854  11.046  0.00  0.00    +0.000 NA
ATOM      6  C   UNL     1      45.756   6.802  11.719  0.00  0.00    +0.000 A 
ENDROOT
BRANCH   1   7
ATOM      7  C   UNL     1      47.137   7.692  13.627  0.00  0.00    +0.000 C 
BRANCH   7  10
ATOM      8  O   UNL     1      48.361   8.841  15.831  0.00  0.00    +0.000 OA
ATOM      9  C   UNL     1      48.860   7.824  15.355  0.00  0.00    +0.000 C 
ATOM     10  N   UNL     1      48.366   7.233  14.219  0.00  0.00    +0.000 N 
ATOM     11  H   UNL     1      48.660   6.288  13.990  0.00  0.00    +0.000 HD
BRANCH   9  12
ATOM     12  C   UNL     1      50.045   7.200  15.954  0.00  0.00    +0.000 A 
ATOM     13  C   UNL     1      51.263   7.865  15.941  0.00  0.00    +0.000 A 
ATOM     14  S   UNL     1      52.530   6.985  16.669  0.00  0.00    +0.000 S 
ATOM     15  C   UNL     1      51.482   5.706  17.076  0.00  0.00    +0.000 A 
ATOM     16  N   UNL     1      51.931   4.622  17.765  0.00  0.00    +0.000 NA
ATOM     17  C   UNL     1      51.022   3.747  18.036  0.00  0.00    +0.000 A 
ATOM     18  N   UNL     1      49.703   3.856  17.676  0.00  0.00    +0.000 N 
ATOM     19  C   UNL     1      49.212   4.911  16.947  0.00  0.00    +0.000 A 
ATOM     20  O   UNL     1      48.042   4.947  16.583  0.00  0.00    +0.000 OA
ATOM     21  C   UNL     1      50.191   5.935  16.635  0.00  0.00    +0.000 A 
ATOM     22  H   UNL     1      49.044   3.129  17.906  0.00  0.00    +0.000 HD
ENDBRANCH   9  12
ENDBRANCH   7  10
ENDBRANCH   1   7
BRANCH   4  23
ATOM     23  C   UNL     1      44.222   3.559  10.844  0.00  0.00    +0.000 C 
BRANCH  23  24
ATOM     24  N   UNL     1      44.975   2.942   9.773  0.00  0.00    +0.000 N 
ATOM     25  C   UNL     1      45.001   3.456   8.499  0.00  0.00    +0.000 C 
ATOM     26  O   UNL     1      44.371   4.458   8.164  0.00  0.00    +0.000 OA
ATOM     27  H   UNL     1      45.726   2.302  10.015  0.00  0.00    +0.000 HD
BRANCH  25  28
ATOM     28  C   UNL     1      45.839   2.651   7.499  0.00  0.00    +0.000 C 
ATOM     29  C   UNL     1      46.422   1.374   8.080  0.00  0.00    +0.000 C 
ATOM     30  C   UNL     1      47.529   1.038   7.095  0.00  0.00    +0.000 C 
ATOM     31  C   UNL     1      47.964   2.385   6.527  0.00  0.00    +0.000 C 
ATOM     32  N   UNL     1      47.063   3.386   7.107  0.00  0.00    +0.000 NA
ATOM     33  H   UNL     1      46.828   4.100   6.417  0.00  0.00    +0.000 HD
ENDBRANCH  25  28
ENDBRANCH  23  24
ENDBRANCH   4  23
TORSDOF 6
ENDMDL
