MODEL 1
REMARK VINA RESULT:    -7.712      0.000      0.000
REMARK INTER + INTRA:         -12.262
REMARK INTER:                 -11.318
REMARK INTRA:                  -0.944
REMARK UNBOUND:                -0.944
REMARK  Name = 
REMARK  9 active torsions:
REMARK  status: ('A' for Active; 'I' for Inactive)
REMARK    1  A    between atoms: C_2  and  C_21
REMARK    2  A    between atoms: N_3  and  CA_4
REMARK    3  A    between atoms: CA_4  and  C_5
REMARK    4  A    between atoms: CA_4  and  C_7
REMARK    5  A    between atoms: C_5  and  O_6
REMARK    6  A    between atoms: C_10  and  C_11
REMARK    7  A    between atoms: C_11  and  O_12
REMARK    8  A    between atoms: C_11  and  C_13
REMARK    9  A    between atoms: C_13  and  C_14
REMARK                            x       y       z     vdW  Elec       q    Type
REMARK                         _______ _______ _______ _____ _____    ______ ____
ROOT
ATOM      1  CA  UNL     1      46.454   7.467  12.646  0.00  0.00    +0.000 C 
ENDROOT
BRANCH   1   2
ATOM      2  C   UNL     1      46.013   6.292  11.807  0.00  0.00    +0.000 A 
ATOM      3  C   UNL     1      45.412   5.188  12.423  0.00  0.00    +0.000 A 
ATOM      4  C   UNL     1      44.973   4.114  11.658  0.00  0.00    +0.000 A 
ATOM      5  C   UNL     1      45.133   4.168  10.279  0.00  0.00    +0.000 A 
ATOM      6  N   UNL     1      45.689   5.233   9.650  0.00  0.00    +0.000 NA
ATOM      7  C   UNL     1      46.115   6.258  10.419  0.00  0.00    +0.000 A 
BRANCH   5   8
ATOM      8  C   UNL     1      44.615   3.054   9.394  0.00  0.00    +0.000 C 
BRANCH   8   9
ATOM      9  O   UNL     1      43.896   3.647   8.302  0.00  0.00    +0.000 OA
ATOM     10  H   UNL     1      44.307   3.276   7.496  0.00  0.00    +0.000 HD
ENDBRANCH   8   9
BRANCH   8  11
ATOM     11  C   UNL     1      45.743   2.204   8.792  0.00  0.00    +0.000 C 
BRANCH  11  12
ATOM     12  C   UNL     1      45.981   2.407   7.284  0.00  0.00    +0.000 C 
ATOM     13  C   UNL     1      46.790   1.246   6.709  0.00  0.00    +0.000 C 
ATOM     14  C   UNL     1      48.220   1.709   6.886  0.00  0.00    +0.000 C 
ATOM     15  N   UNL     1      48.170   3.130   6.535  0.00  0.00    +0.000 NA
ATOM     16  C   UNL     1      46.855   3.626   6.970  0.00  0.00    +0.000 C 
ATOM     17  H   UNL     1      48.223   3.211   5.519  0.00  0.00    +0.000 HD
ENDBRANCH  11  12
ENDBRANCH   8  11
ENDBRANCH   5   8
ENDBRANCH   1   2
BRANCH   1  20
ATOM     18  O   UNL     1      49.064   6.655  13.224  0.00  0.00    +0.000 OA
ATOM     19  C   UNL     1      48.245   6.647  14.139  0.00  0.00    +0.000 C 
ATOM     20  N   UNL     1      46.932   6.984  13.931  0.00  0.00    +0.000 N 
ATOM     21  H   UNL     1      46.325   7.139  14.732  0.00  0.00    +0.000 HD
BRANCH  19  22
ATOM     22  C   UNL     1      48.609   6.244  15.501  0.00  0.00    +0.000 A 
ATOM     23  C   UNL     1      49.407   7.061  16.287  0.00  0.00    +0.000 A 
ATOM     24  S   UNL     1      49.672   6.443  17.857  0.00  0.00    +0.000 S 
ATOM     25  C   UNL     1      48.704   5.079  17.542  0.00  0.00    +0.000 A 
ATOM     26  N   UNL     1      48.463   4.146  18.505  0.00  0.00    +0.000 NA
ATOM     27  C   UNL     1      47.679   3.192  18.136  0.00  0.00    +0.000 A 
ATOM     28  N   UNL     1      47.129   3.065  16.885  0.00  0.00    +0.000 N 
ATOM     29  C   UNL     1      47.404   3.941  15.863  0.00  0.00    +0.000 A 
ATOM     30  O   UNL     1      47.010   3.726  14.721  0.00  0.00    +0.000 OA
ATOM     31  C   UNL     1      48.225   5.073  16.246  0.00  0.00    +0.000 A 
ATOM     32  H   UNL     1      46.559   2.271  16.645  0.00  0.00    +0.000 HD
ENDBRANCH  19  22
ENDBRANCH   1  20
BRANCH   1  33
ATOM     33  C   UNL     1      45.385   8.578  12.797  0.00  0.00    +0.000 C 
BRANCH  33  34
ATOM     34  O   UNL     1      45.931   9.889  12.904  0.00  0.00    +0.000 OA
ATOM     35  H   UNL     1      45.455  10.363  13.613  0.00  0.00    +0.000 HD
ENDBRANCH  33  34
ENDBRANCH   1  33
TORSDOF 9
ENDMDL
MODEL 2
REMARK VINA RESULT:    -7.504      2.387      3.101
REMARK INTER + INTRA:         -11.958
REMARK INTER:                 -10.451
REMARK INTRA:                  -1.507
REMARK UNBOUND:                -0.944
REMARK  Name = 
REMARK  9 active torsions:
REMARK  status: ('A' for Active; 'I' for Inactive)
REMARK    1  A    between atoms: C_2  and  C_21
REMARK    2  A    between atoms: N_3  and  CA_4
REMARK    3  A    between atoms: CA_4  and  C_5
REMARK    4  A    between atoms: CA_4  and  C_7
REMARK    5  A    between atoms: C_5  and  O_6
REMARK    6  A    between atoms: C_10  and  C_11
REMARK    7  A    between atoms: C_11  and  O_12
REMARK    8  A    between atoms: C_11  and  C_13
REMARK    9  A    between atoms: C_13  and  C_14
REMARK                            x       y       z     vdW  Elec       q    Type
REMARK                         _______ _______ _______ _____ _____    ______ ____
ROOT
ATOM      1  CA  UNL     1      48.090   6.915  14.085  0.00  0.00    +0.000 C 
ENDROOT
BRANCH   1   2
ATOM      2  C   UNL     1      47.044   6.208  13.257  0.00  0.00    +0.000 A 
ATOM      3  C   UNL     1      46.470   6.862  12.160  0.00  0.00    +0.000 A 
ATOM      4  C   UNL     1      45.529   6.209  11.371  0.00  0.00    +0.000 A 
ATOM      5  C   UNL     1      45.185   4.901  11.689  0.00  0.00    +0.000 A 
ATOM      6  N   UNL     1      45.740   4.232  12.729  0.00  0.00    +0.000 NA
ATOM      7  C   UNL     1      46.644   4.894  13.484  0.00  0.00    +0.000 A 
BRANCH   5   8
ATOM      8  C   UNL     1      44.215   4.124  10.825  0.00  0.00    +0.000 C 
BRANCH   8   9
ATOM      9  O   UNL     1      43.345   5.063  10.173  0.00  0.00    +0.000 OA
ATOM     10  H   UNL     1      43.772   5.934  10.298  0.00  0.00    +0.000 HD
ENDBRANCH   8   9
BRANCH   8  11
ATOM     11  C   UNL     1      44.917   3.311   9.729  0.00  0.00    +0.000 C 
BRANCH  11  12
ATOM     12  C   UNL     1      44.959   3.983   8.342  0.00  0.00    +0.000 C 
ATOM     13  C   UNL     1      45.102   2.933   7.243  0.00  0.00    +0.000 C 
ATOM     14  C   UNL     1      46.603   2.793   7.101  0.00  0.00    +0.000 C 
ATOM     15  N   UNL     1      47.089   4.172   7.202  0.00  0.00    +0.000 NA
ATOM     16  C   UNL     1      46.194   4.868   8.139  0.00  0.00    +0.000 C 
ATOM     17  H   UNL     1      46.998   4.611   6.285  0.00  0.00    +0.000 HD
ENDBRANCH  11  12
ENDBRANCH   8  11
ENDBRANCH   5   8
ENDBRANCH   1   2
BRANCH   1  20
ATOM     18  O   UNL     1      50.204   6.294  15.802  0.00  0.00    +0.000 OA
ATOM     19  C   UNL     1      49.064   6.252  16.257  0.00  0.00    +0.000 C 
ATOM     20  N   UNL     1      47.967   6.494  15.471  0.00  0.00    +0.000 N 
ATOM     21  H   UNL     1      47.060   6.626  15.909  0.00  0.00    +0.000 HD
BRANCH  19  22
ATOM     22  C   UNL     1      48.802   5.905  17.657  0.00  0.00    +0.000 A 
ATOM     23  C   UNL     1      49.099   4.638  18.136  0.00  0.00    +0.000 A 
ATOM     24  S   UNL     1      48.774   4.449  19.802  0.00  0.00    +0.000 S 
ATOM     25  C   UNL     1      48.252   6.063  19.939  0.00  0.00    +0.000 A 
ATOM     26  N   UNL     1      47.872   6.583  21.139  0.00  0.00    +0.000 NA
ATOM     27  C   UNL     1      47.542   7.828  21.098  0.00  0.00    +0.000 A 
ATOM     28  N   UNL     1      47.532   8.602  19.965  0.00  0.00    +0.000 N 
ATOM     29  C   UNL     1      47.836   8.100  18.723  0.00  0.00    +0.000 A 
ATOM     30  O   UNL     1      47.685   8.778  17.711  0.00  0.00    +0.000 OA
ATOM     31  C   UNL     1      48.282   6.721  18.724  0.00  0.00    +0.000 A 
ATOM     32  H   UNL     1      47.220   9.559  19.991  0.00  0.00    +0.000 HD
ENDBRANCH  19  22
ENDBRANCH   1  20
BRANCH   1  33
ATOM     33  C   UNL     1      48.083   8.457  13.937  0.00  0.00    +0.000 C 
BRANCH  33  34
ATOM     34  O   UNL     1      47.205   9.117  14.842  0.00  0.00    +0.000 OA
ATOM     35  H   UNL     1      46.559   8.463  15.175  0.00  0.00    +0.000 HD
ENDBRANCH  33  34
ENDBRANCH   1  33
TORSDOF 9
ENDMDL
MODEL 3
REMARK VINA RESULT:    -7.188      3.387      5.383
REMARK INTER + INTRA:         -11.493
REMARK INTER:                 -10.111
REMARK INTRA:                  -1.382
REMARK UNBOUND:                -0.944
REMARK  Name = 
REMARK  9 active torsions:
REMARK  status: ('A' for Active; 'I' for Inactive)
REMARK    1  A    between atoms: C_2  and  C_21
REMARK    2  A    between atoms: N_3  and  CA_4
REMARK    3  A    between atoms: CA_4  and  C_5
REMARK    4  A    between atoms: CA_4  and  C_7
REMARK    5  A    between atoms: C_5  and  O_6
REMARK    6  A    between atoms: C_10  and  C_11
REMARK    7  A    between atoms: C_11  and  O_12
REMARK    8  A    between atoms: C_11  and  C_13
REMARK    9  A    between atoms: C_13  and  C_14
REMARK                            x       y       z     vdW  Elec       q    Type
REMARK                         _______ _______ _______ _____ _____    ______ ____
ROOT
ATOM      1  CA  UNL     1      48.982   6.008  17.695  0.00  0.00    +0.000 C 
ENDROOT
BRANCH   1   2
ATOM      2  C   UNL     1      48.205   5.569  16.476  0.00  0.00    +0.000 A 
ATOM      3  C   UNL     1      48.291   6.315  15.295  0.00  0.00    +0.000 A 
ATOM      4  C   UNL     1      47.606   5.904  14.157  0.00  0.00    +0.000 A 
ATOM      5  C   UNL     1      46.851   4.739  14.219  0.00  0.00    +0.000 A 
ATOM      6  N   UNL     1      46.767   3.981  15.340  0.00  0.00    +0.000 NA
ATOM      7  C   UNL     1      47.436   4.410  16.432  0.00  0.00    +0.000 A 
BRANCH   5   8
ATOM      8  C   UNL     1      46.137   4.213  12.992  0.00  0.00    +0.000 C 
BRANCH   8   9
ATOM      9  O   UNL     1      46.089   2.781  13.081  0.00  0.00    +0.000 OA
ATOM     10  H   UNL     1      45.143   2.565  13.204  0.00  0.00    +0.000 HD
ENDBRANCH   8   9
BRANCH   8  11
ATOM     11  C   UNL     1      44.690   4.715  12.888  0.00  0.00    +0.000 C 
BRANCH  11  12
ATOM     12  C   UNL     1      44.411   5.666  11.708  0.00  0.00    +0.000 C 
ATOM     13  C   UNL     1      43.326   5.089  10.801  0.00  0.00    +0.000 C 
ATOM     14  C   UNL     1      44.118   4.265   9.808  0.00  0.00    +0.000 C 
ATOM     15  N   UNL     1      45.287   5.100   9.521  0.00  0.00    +0.000 NA
ATOM     16  C   UNL     1      45.607   5.821  10.763  0.00  0.00    +0.000 C 
ATOM     17  H   UNL     1      45.024   5.785   8.811  0.00  0.00    +0.000 HD
ENDBRANCH  11  12
ENDBRANCH   8  11
ENDBRANCH   5   8
ENDBRANCH   1   2
BRANCH   1  20
ATOM     18  O   UNL     1      51.554   6.169  16.616  0.00  0.00    +0.000 OA
ATOM     19  C   UNL     1      51.316   5.251  17.396  0.00  0.00    +0.000 C 
ATOM     20  N   UNL     1      50.067   5.070  17.933  0.00  0.00    +0.000 N 
ATOM     21  H   UNL     1      49.946   4.418  18.702  0.00  0.00    +0.000 HD
BRANCH  19  22
ATOM     22  C   UNL     1      52.338   4.271  17.774  0.00  0.00    +0.000 A 
ATOM     23  C   UNL     1      53.575   4.688  18.242  0.00  0.00    +0.000 A 
ATOM     24  S   UNL     1      54.605   3.399  18.682  0.00  0.00    +0.000 S 
ATOM     25  C   UNL     1      53.419   2.244  18.286  0.00  0.00    +0.000 A 
ATOM     26  N   UNL     1      53.636   0.914  18.478  0.00  0.00    +0.000 NA
ATOM     27  C   UNL     1      52.635   0.163  18.174  0.00  0.00    +0.000 A 
ATOM     28  N   UNL     1      51.439   0.611  17.672  0.00  0.00    +0.000 N 
ATOM     29  C   UNL     1      51.202   1.935  17.394  0.00  0.00    +0.000 A 
ATOM     30  O   UNL     1      50.178   2.289  16.818  0.00  0.00    +0.000 OA
ATOM     31  C   UNL     1      52.273   2.832  17.784  0.00  0.00    +0.000 A 
ATOM     32  H   UNL     1      50.709  -0.033  17.412  0.00  0.00    +0.000 HD
ENDBRANCH  19  22
ENDBRANCH   1  20
BRANCH   1  33
ATOM     33  C   UNL     1      48.113   6.233  18.957  0.00  0.00    +0.000 C 
BRANCH  33  34
ATOM     34  O   UNL     1      48.785   6.933  19.998  0.00  0.00    +0.000 OA
ATOM     35  H   UNL     1      48.714   7.891  19.820  0.00  0.00    +0.000 HD
ENDBRANCH  33  34
ENDBRANCH   1  33
TORSDOF 9
ENDMDL
MODEL 4
REMARK VINA RESULT:    -6.966      2.751      4.035
REMARK INTER + INTRA:         -11.168
REMARK INTER:                  -9.642
REMARK INTRA:                  -1.526
REMARK UNBOUND:                -0.944
REMARK  Name = 
REMARK  9 active torsions:
REMARK  status: ('A' for Active; 'I' for Inactive)
REMARK    1  A    between atoms: C_2  and  C_21
REMARK    2  A    between atoms: N_3  and  CA_4
REMARK    3  A    between atoms: CA_4  and  C_5
REMARK    4  A    between atoms: CA_4  and  C_7
REMARK    5  A    between atoms: C_5  and  O_6
REMARK    6  A    between atoms: C_10  and  C_11
REMARK    7  A    between atoms: C_11  and  O_12
REMARK    8  A    between atoms: C_11  and  C_13
REMARK    9  A    between atoms: C_13  and  C_14
REMARK                            x       y       z     vdW  Elec       q    Type
REMARK                         _______ _______ _______ _____ _____    ______ ____
ROOT
ATOM      1  CA  UNL     1      46.736   5.714  13.855  0.00  0.00    +0.000 C 
ENDROOT
BRANCH   1   2
ATOM      2  C   UNL     1      46.087   5.093  12.642  0.00  0.00    +0.000 A 
ATOM      3  C   UNL     1      46.011   5.821  11.448  0.00  0.00    +0.000 A 
ATOM      4  C   UNL     1      45.444   5.248  10.315  0.00  0.00    +0.000 A 
ATOM      5  C   UNL     1      44.972   3.943  10.393  0.00  0.00    +0.000 A 
ATOM      6  N   UNL     1      45.054   3.203  11.527  0.00  0.00    +0.000 NA
ATOM      7  C   UNL     1      45.600   3.789  12.614  0.00  0.00    +0.000 A 
BRANCH   5   8
ATOM      8  C   UNL     1      44.405   3.250   9.173  0.00  0.00    +0.000 C 
BRANCH   8   9
ATOM      9  O   UNL     1      43.926   4.257   8.268  0.00  0.00    +0.000 OA
ATOM     10  H   UNL     1      44.541   5.010   8.377  0.00  0.00    +0.000 HD
ENDBRANCH   8   9
BRANCH   8  11
ATOM     11  C   UNL     1      45.456   2.421   8.421  0.00  0.00    +0.000 C 
BRANCH  11  12
ATOM     12  C   UNL     1      45.938   3.029   7.089  0.00  0.00    +0.000 C 
ATOM     13  C   UNL     1      46.385   1.928   6.130  0.00  0.00    +0.000 C 
ATOM     14  C   UNL     1      47.853   1.765   6.461  0.00  0.00    +0.000 C 
ATOM     15  N   UNL     1      48.319   3.142   6.652  0.00  0.00    +0.000 NA
ATOM     16  C   UNL     1      47.197   3.890   7.240  0.00  0.00    +0.000 C 
ATOM     17  H   UNL     1      48.524   3.539   5.734  0.00  0.00    +0.000 HD
ENDBRANCH  11  12
ENDBRANCH   8  11
ENDBRANCH   5   8
ENDBRANCH   1   2
BRANCH   1  20
ATOM     18  O   UNL     1      47.069   8.488  13.904  0.00  0.00    +0.000 OA
ATOM     19  C   UNL     1      48.021   7.802  13.542  0.00  0.00    +0.000 C 
ATOM     20  N   UNL     1      47.927   6.438  13.443  0.00  0.00    +0.000 N 
ATOM     21  H   UNL     1      48.773   5.889  13.314  0.00  0.00    +0.000 HD
BRANCH  19  22
ATOM     22  C   UNL     1      49.304   8.399  13.159  0.00  0.00    +0.000 A 
ATOM     23  C   UNL     1      49.388   9.248  12.066  0.00  0.00    +0.000 A 
ATOM     24  S   UNL     1      50.953   9.884  11.819  0.00  0.00    +0.000 S 
ATOM     25  C   UNL     1      51.561   9.065  13.182  0.00  0.00    +0.000 A 
ATOM     26  N   UNL     1      52.854   9.217  13.579  0.00  0.00    +0.000 NA
ATOM     27  C   UNL     1      53.160   8.571  14.651  0.00  0.00    +0.000 A 
ATOM     28  N   UNL     1      52.302   7.765  15.356  0.00  0.00    +0.000 N 
ATOM     29  C   UNL     1      51.011   7.525  14.951  0.00  0.00    +0.000 A 
ATOM     30  O   UNL     1      50.312   6.694  15.522  0.00  0.00    +0.000 OA
ATOM     31  C   UNL     1      50.595   8.284  13.788  0.00  0.00    +0.000 A 
ATOM     32  H   UNL     1      52.615   7.250  16.163  0.00  0.00    +0.000 HD
ENDBRANCH  19  22
ENDBRANCH   1  20
BRANCH   1  33
ATOM     33  C   UNL     1      47.023   4.717  15.005  0.00  0.00    +0.000 C 
BRANCH  33  34
ATOM     34  O   UNL     1      47.638   5.314  16.142  0.00  0.00    +0.000 OA
ATOM     35  H   UNL     1      48.454   4.817  16.346  0.00  0.00    +0.000 HD
ENDBRANCH  33  34
ENDBRANCH   1  33
TORSDOF 9
ENDMDL
MODEL 5
REMARK VINA RESULT:    -6.850      2.650      4.116
REMARK INTER + INTRA:         -10.997
REMARK INTER:                  -9.702
REMARK INTRA:                  -1.295
REMARK UNBOUND:                -0.944
REMARK  Name = 
REMARK  9 active torsions:
REMARK  status: ('A' for Active; 'I' for Inactive)
REMARK    1  A    between atoms: C_2  and  C_21
REMARK    2  A    between atoms: N_3  and  CA_4
REMARK    3  A    between atoms: CA_4  and  C_5
REMARK    4  A    between atoms: CA_4  and  C_7
REMARK    5  A    between atoms: C_5  and  O_6
REMARK    6  A    between atoms: C_10  and  C_11
REMARK    7  A    between atoms: C_11  and  O_12
REMARK    8  A    between atoms: C_11  and  C_13
REMARK    9  A    between atoms: C_13  and  C_14
REMARK                            x       y       z     vdW  Elec       q    Type
REMARK                         _______ _______ _______ _____ _____    ______ ____
ROOT
ATOM      1  CA  UNL     1      48.458   6.376  14.283  0.00  0.00    +0.000 C 
ENDROOT
BRANCH   1   2
ATOM      2  C   UNL     1      47.100   6.255  13.634  0.00  0.00    +0.000 A 
ATOM      3  C   UNL     1      46.652   7.263  12.772  0.00  0.00    +0.000 A 
ATOM      4  C   UNL     1      45.417   7.147  12.143  0.00  0.00    +0.000 A 
ATOM      5  C   UNL     1      44.653   6.011  12.380  0.00  0.00    +0.000 A 
ATOM      6  N   UNL     1      45.069   5.006  13.190  0.00  0.00    +0.000 NA
ATOM      7  C   UNL     1      46.268   5.151  13.794  0.00  0.00    +0.000 A 
BRANCH   5   8
ATOM      8  C   UNL     1      43.331   5.806  11.672  0.00  0.00    +0.000 C 
BRANCH   8   9
ATOM      9  O   UNL     1      42.960   7.044  11.047  0.00  0.00    +0.000 OA
ATOM     10  H   UNL     1      43.578   7.708  11.412  0.00  0.00    +0.000 HD
ENDBRANCH   8   9
BRANCH   8  11
ATOM     11  C   UNL     1      43.408   4.741  10.570  0.00  0.00    +0.000 C 
BRANCH  11  12
ATOM     12  C   UNL     1      44.811   4.150  10.329  0.00  0.00    +0.000 C 
ATOM     13  C   UNL     1      45.394   4.672   9.018  0.00  0.00    +0.000 C 
ATOM     14  C   UNL     1      44.912   3.657   8.004  0.00  0.00    +0.000 C 
ATOM     15  N   UNL     1      45.066   2.376   8.699  0.00  0.00    +0.000 NA
ATOM     16  C   UNL     1      44.798   2.631  10.122  0.00  0.00    +0.000 C 
ATOM     17  H   UNL     1      46.037   2.075   8.603  0.00  0.00    +0.000 HD
ENDBRANCH  11  12
ENDBRANCH   8  11
ENDBRANCH   5   8
ENDBRANCH   1   2
BRANCH   1  20
ATOM     18  O   UNL     1      48.853   4.574  16.380  0.00  0.00    +0.000 OA
ATOM     19  C   UNL     1      48.547   5.729  16.666  0.00  0.00    +0.000 C 
ATOM     20  N   UNL     1      48.288   6.664  15.697  0.00  0.00    +0.000 N 
ATOM     21  H   UNL     1      48.212   7.643  15.958  0.00  0.00    +0.000 HD
BRANCH  19  22
ATOM     22  C   UNL     1      48.405   6.170  18.056  0.00  0.00    +0.000 A 
ATOM     23  C   UNL     1      47.489   5.560  18.899  0.00  0.00    +0.000 A 
ATOM     24  S   UNL     1      47.514   6.177  20.491  0.00  0.00    +0.000 S 
ATOM     25  C   UNL     1      48.769   7.261  20.109  0.00  0.00    +0.000 A 
ATOM     26  N   UNL     1      49.314   8.073  21.057  0.00  0.00    +0.000 NA
ATOM     27  C   UNL     1      50.284   8.808  20.633  0.00  0.00    +0.000 A 
ATOM     28  N   UNL     1      50.749   8.829  19.342  0.00  0.00    +0.000 N 
ATOM     29  C   UNL     1      50.181   8.082  18.338  0.00  0.00    +0.000 A 
ATOM     30  O   UNL     1      50.527   8.223  17.170  0.00  0.00    +0.000 OA
ATOM     31  C   UNL     1      49.131   7.184  18.778  0.00  0.00    +0.000 A 
ATOM     32  H   UNL     1      51.482   9.460  19.062  0.00  0.00    +0.000 HD
ENDBRANCH  19  22
ENDBRANCH   1  20
BRANCH   1  33
ATOM     33  C   UNL     1      49.407   7.385  13.589  0.00  0.00    +0.000 C 
BRANCH  33  34
ATOM     34  O   UNL     1      50.701   7.453  14.178  0.00  0.00    +0.000 OA
ATOM     35  H   UNL     1      50.654   7.055  15.069  0.00  0.00    +0.000 HD
ENDBRANCH  33  34
ENDBRANCH   1  33
TORSDOF 9
ENDMDL
MODEL 6
REMARK VINA RESULT:    -6.828      2.550      3.480
REMARK INTER + INTRA:         -10.965
REMARK INTER:                 -10.025
REMARK INTRA:                  -0.940
REMARK UNBOUND:                -0.944
REMARK  Name = 
REMARK  9 active torsions:
REMARK  status: ('A' for Active; 'I' for Inactive)
REMARK    1  A    between atoms: C_2  and  C_21
REMARK    2  A    between atoms: N_3  and  CA_4
REMARK    3  A    between atoms: CA_4  and  C_5
REMARK    4  A    between atoms: CA_4  and  C_7
REMARK    5  A    between atoms: C_5  and  O_6
REMARK    6  A    between atoms: C_10  and  C_11
REMARK    7  A    between atoms: C_11  and  O_12
REMARK    8  A    between atoms: C_11  and  C_13
REMARK    9  A    between atoms: C_13  and  C_14
REMARK                            x       y       z     vdW  Elec       q    Type
REMARK                         _______ _______ _______ _____ _____    ______ ____
ROOT
ATOM      1  CA  UNL     1      48.465   6.974  13.771  0.00  0.00    +0.000 C 
ENDROOT
BRANCH   1   2
ATOM      2  C   UNL     1      47.096   6.682  13.202  0.00  0.00    +0.000 A 
ATOM      3  C   UNL     1      46.588   7.487  12.176  0.00  0.00    +0.000 A 
ATOM      4  C   UNL     1      45.343   7.210  11.623  0.00  0.00    +0.000 A 
ATOM      5  C   UNL     1      44.629   6.118  12.101  0.00  0.00    +0.000 A 
ATOM      6  N   UNL     1      45.105   5.305  13.077  0.00  0.00    +0.000 NA
ATOM      7  C   UNL     1      46.312   5.604  13.602  0.00  0.00    +0.000 A 
BRANCH   5   8
ATOM      8  C   UNL     1      43.298   5.734  11.490  0.00  0.00    +0.000 C 
BRANCH   8   9
ATOM      9  O   UNL     1      42.636   6.936  11.068  0.00  0.00    +0.000 OA
ATOM     10  H   UNL     1      42.494   6.824  10.107  0.00  0.00    +0.000 HD
ENDBRANCH   8   9
BRANCH   8  11
ATOM     11  C   UNL     1      43.451   4.837  10.254  0.00  0.00    +0.000 C 
BRANCH  11  12
ATOM     12  C   UNL     1      44.823   4.151  10.109  0.00  0.00    +0.000 C 
ATOM     13  C   UNL     1      45.434   4.460   8.744  0.00  0.00    +0.000 C 
ATOM     14  C   UNL     1      44.905   3.341   7.874  0.00  0.00    +0.000 C 
ATOM     15  N   UNL     1      44.994   2.160   8.738  0.00  0.00    +0.000 NA
ATOM     16  C   UNL     1      44.736   2.621  10.111  0.00  0.00    +0.000 C 
ATOM     17  H   UNL     1      45.950   1.803   8.694  0.00  0.00    +0.000 HD
ENDBRANCH  11  12
ENDBRANCH   8  11
ENDBRANCH   5   8
ENDBRANCH   1   2
BRANCH   1  20
ATOM     18  O   UNL     1      49.741   5.897  16.011  0.00  0.00    +0.000 OA
ATOM     19  C   UNL     1      49.025   6.881  16.176  0.00  0.00    +0.000 C 
ATOM     20  N   UNL     1      48.324   7.442  15.139  0.00  0.00    +0.000 N 
ATOM     21  H   UNL     1      47.886   8.350  15.269  0.00  0.00    +0.000 HD
BRANCH  19  22
ATOM     22  C   UNL     1      48.845   7.495  17.495  0.00  0.00    +0.000 A 
ATOM     23  C   UNL     1      49.202   8.818  17.710  0.00  0.00    +0.000 A 
ATOM     24  S   UNL     1      48.865   9.363  19.293  0.00  0.00    +0.000 S 
ATOM     25  C   UNL     1      48.205   7.856  19.730  0.00  0.00    +0.000 A 
ATOM     26  N   UNL     1      47.669   7.651  20.965  0.00  0.00    +0.000 NA
ATOM     27  C   UNL     1      47.169   6.476  21.139  0.00  0.00    +0.000 A 
ATOM     28  N   UNL     1      47.173   5.473  20.202  0.00  0.00    +0.000 N 
ATOM     29  C   UNL     1      47.767   5.612  18.971  0.00  0.00    +0.000 A 
ATOM     30  O   UNL     1      47.877   4.657  18.209  0.00  0.00    +0.000 OA
ATOM     31  C   UNL     1      48.283   6.939  18.699  0.00  0.00    +0.000 A 
ATOM     32  H   UNL     1      46.806   4.560  20.415  0.00  0.00    +0.000 HD
ENDBRANCH  19  22
ENDBRANCH   1  20
BRANCH   1  33
ATOM     33  C   UNL     1      49.322   7.932  12.907  0.00  0.00    +0.000 C 
BRANCH  33  34
ATOM     34  O   UNL     1      50.228   7.264  12.036  0.00  0.00    +0.000 OA
ATOM     35  H   UNL     1      49.736   6.982  11.240  0.00  0.00    +0.000 HD
ENDBRANCH  33  34
ENDBRANCH   1  33
TORSDOF 9
ENDMDL
MODEL 7
REMARK VINA RESULT:    -6.823      3.290      7.874
REMARK INTER + INTRA:         -10.958
REMARK INTER:                  -9.566
REMARK INTRA:                  -1.392
REMARK UNBOUND:                -0.944
REMARK  Name = 
REMARK  9 active torsions:
REMARK  status: ('A' for Active; 'I' for Inactive)
REMARK    1  A    between atoms: C_2  and  C_21
REMARK    2  A    between atoms: N_3  and  CA_4
REMARK    3  A    between atoms: CA_4  and  C_5
REMARK    4  A    between atoms: CA_4  and  C_7
REMARK    5  A    between atoms: C_5  and  O_6
REMARK    6  A    between atoms: C_10  and  C_11
REMARK    7  A    between atoms: C_11  and  O_12
REMARK    8  A    between atoms: C_11  and  C_13
REMARK    9  A    between atoms: C_13  and  C_14
REMARK                            x       y       z     vdW  Elec       q    Type
REMARK                         _______ _______ _______ _____ _____    ______ ____
ROOT
ATOM      1  CA  UNL     1      48.105   6.984  13.277  0.00  0.00    +0.000 C 
ENDROOT
BRANCH   1   2
ATOM      2  C   UNL     1      48.331   6.411  14.656  0.00  0.00    +0.000 A 
ATOM      3  C   UNL     1      49.149   7.094  15.563  0.00  0.00    +0.000 A 
ATOM      4  C   UNL     1      49.339   6.593  16.846  0.00  0.00    +0.000 A 
ATOM      5  C   UNL     1      48.693   5.416  17.205  0.00  0.00    +0.000 A 
ATOM      6  N   UNL     1      47.874   4.745  16.358  0.00  0.00    +0.000 NA
ATOM      7  C   UNL     1      47.716   5.250  15.115  0.00  0.00    +0.000 A 
BRANCH   5   8
ATOM      8  C   UNL     1      48.815   4.862  18.608  0.00  0.00    +0.000 C 
BRANCH   8   9
ATOM      9  O   UNL     1      47.491   4.675  19.133  0.00  0.00    +0.000 OA
ATOM     10  H   UNL     1      46.904   5.165  18.523  0.00  0.00    +0.000 HD
ENDBRANCH   8   9
BRANCH   8  11
ATOM     11  C   UNL     1      49.521   3.500  18.648  0.00  0.00    +0.000 C 
BRANCH  11  12
ATOM     12  C   UNL     1      50.697   3.344  17.664  0.00  0.00    +0.000 C 
ATOM     13  C   UNL     1      50.597   2.016  16.917  0.00  0.00    +0.000 C 
ATOM     14  C   UNL     1      51.362   1.065  17.812  0.00  0.00    +0.000 C 
ATOM     15  N   UNL     1      52.517   1.855  18.248  0.00  0.00    +0.000 NA
ATOM     16  C   UNL     1      52.058   3.248  18.362  0.00  0.00    +0.000 C 
ATOM     17  H   UNL     1      53.229   1.810  17.517  0.00  0.00    +0.000 HD
ENDBRANCH  11  12
ENDBRANCH   8  11
ENDBRANCH   5   8
ENDBRANCH   1   2
BRANCH   1  20
ATOM     18  O   UNL     1      45.978   7.675  11.603  0.00  0.00    +0.000 OA
ATOM     19  C   UNL     1      46.295   6.490  11.668  0.00  0.00    +0.000 C 
ATOM     20  N   UNL     1      47.295   6.059  12.502  0.00  0.00    +0.000 N 
ATOM     21  H   UNL     1      47.651   5.112  12.404  0.00  0.00    +0.000 HD
BRANCH  19  22
ATOM     22  C   UNL     1      45.604   5.459  10.889  0.00  0.00    +0.000 A 
ATOM     23  C   UNL     1      45.694   5.443   9.506  0.00  0.00    +0.000 A 
ATOM     24  S   UNL     1      44.866   4.134   8.786  0.00  0.00    +0.000 S 
ATOM     25  C   UNL     1      44.385   3.533  10.304  0.00  0.00    +0.000 A 
ATOM     26  N   UNL     1      43.675   2.377  10.413  0.00  0.00    +0.000 NA
ATOM     27  C   UNL     1      43.418   2.023  11.625  0.00  0.00    +0.000 A 
ATOM     28  N   UNL     1      43.784   2.728  12.745  0.00  0.00    +0.000 N 
ATOM     29  C   UNL     1      44.437   3.935  12.679  0.00  0.00    +0.000 A 
ATOM     30  O   UNL     1      44.628   4.608  13.687  0.00  0.00    +0.000 OA
ATOM     31  C   UNL     1      44.811   4.344  11.339  0.00  0.00    +0.000 A 
ATOM     32  H   UNL     1      43.514   2.421  13.665  0.00  0.00    +0.000 HD
ENDBRANCH  19  22
ENDBRANCH   1  20
BRANCH   1  33
ATOM     33  C   UNL     1      49.403   7.391  12.536  0.00  0.00    +0.000 C 
BRANCH  33  34
ATOM     34  O   UNL     1      49.187   8.278  11.444  0.00  0.00    +0.000 OA
ATOM     35  H   UNL     1      48.262   8.591  11.482  0.00  0.00    +0.000 HD
ENDBRANCH  33  34
ENDBRANCH   1  33
TORSDOF 9
ENDMDL
MODEL 8
REMARK VINA RESULT:    -6.787      2.598      4.404
REMARK INTER + INTRA:         -10.905
REMARK INTER:                  -9.660
REMARK INTRA:                  -1.245
REMARK UNBOUND:                -0.944
REMARK  Name = 
REMARK  9 active torsions:
REMARK  status: ('A' for Active; 'I' for Inactive)
REMARK    1  A    between atoms: C_2  and  C_21
REMARK    2  A    between atoms: N_3  and  CA_4
REMARK    3  A    between atoms: CA_4  and  C_5
REMARK    4  A    between atoms: CA_4  and  C_7
REMARK    5  A    between atoms: C_5  and  O_6
REMARK    6  A    between atoms: C_10  and  C_11
REMARK    7  A    between atoms: C_11  and  O_12
REMARK    8  A    between atoms: C_11  and  C_13
REMARK    9  A    between atoms: C_13  and  C_14
REMARK                            x       y       z     vdW  Elec       q    Type
REMARK                         _______ _______ _______ _____ _____    ______ ____
ROOT
ATOM      1  CA  UNL     1      47.285   5.049  15.258  0.00  0.00    +0.000 C 
ENDROOT
BRANCH   1   2
ATOM      2  C   UNL     1      46.505   4.925  13.971  0.00  0.00    +0.000 A 
ATOM      3  C   UNL     1      46.256   6.067  13.201  0.00  0.00    +0.000 A 
ATOM      4  C   UNL     1      45.567   5.962  11.997  0.00  0.00    +0.000 A 
ATOM      5  C   UNL     1      45.148   4.706  11.577  0.00  0.00    +0.000 A 
ATOM      6  N   UNL     1      45.395   3.578  12.288  0.00  0.00    +0.000 NA
ATOM      7  C   UNL     1      46.058   3.712  13.457  0.00  0.00    +0.000 A 
BRANCH   5   8
ATOM      8  C   UNL     1      44.451   4.527  10.246  0.00  0.00    +0.000 C 
BRANCH   8   9
ATOM      9  O   UNL     1      43.391   5.492  10.162  0.00  0.00    +0.000 OA
ATOM     10  H   UNL     1      43.836   6.362  10.197  0.00  0.00    +0.000 HD
ENDBRANCH   8   9
BRANCH   8  11
ATOM     11  C   UNL     1      45.385   4.768   9.051  0.00  0.00    +0.000 C 
BRANCH  11  12
ATOM     12  C   UNL     1      45.172   3.821   7.854  0.00  0.00    +0.000 C 
ATOM     13  C   UNL     1      44.637   2.471   8.328  0.00  0.00    +0.000 C 
ATOM     14  C   UNL     1      45.900   1.679   8.590  0.00  0.00    +0.000 C 
ATOM     15  N   UNL     1      46.775   2.044   7.473  0.00  0.00    +0.000 NA
ATOM     16  C   UNL     1      46.477   3.446   7.143  0.00  0.00    +0.000 C 
ATOM     17  H   UNL     1      46.525   1.465   6.670  0.00  0.00    +0.000 HD
ENDBRANCH  11  12
ENDBRANCH   8  11
ENDBRANCH   5   8
ENDBRANCH   1   2
BRANCH   1  20
ATOM     18  O   UNL     1      48.625   6.719  17.052  0.00  0.00    +0.000 OA
ATOM     19  C   UNL     1      49.142   6.523  15.955  0.00  0.00    +0.000 C 
ATOM     20  N   UNL     1      48.527   5.756  14.999  0.00  0.00    +0.000 N 
ATOM     21  H   UNL     1      49.053   5.469  14.178  0.00  0.00    +0.000 HD
BRANCH  19  22
ATOM     22  C   UNL     1      50.427   7.123  15.586  0.00  0.00    +0.000 A 
ATOM     23  C   UNL     1      51.586   6.779  16.265  0.00  0.00    +0.000 A 
ATOM     24  S   UNL     1      52.985   7.542  15.651  0.00  0.00    +0.000 S 
ATOM     25  C   UNL     1      52.088   8.334  14.440  0.00  0.00    +0.000 A 
ATOM     26  N   UNL     1      52.696   9.126  13.515  0.00  0.00    +0.000 NA
ATOM     27  C   UNL     1      51.897   9.625  12.635  0.00  0.00    +0.000 A 
ATOM     28  N   UNL     1      50.539   9.428  12.604  0.00  0.00    +0.000 N 
ATOM     29  C   UNL     1      49.876   8.698  13.560  0.00  0.00    +0.000 A 
ATOM     30  O   UNL     1      48.649   8.654  13.586  0.00  0.00    +0.000 OA
ATOM     31  C   UNL     1      50.738   8.056  14.533  0.00  0.00    +0.000 A 
ATOM     32  H   UNL     1      49.963   9.883  11.916  0.00  0.00    +0.000 HD
ENDBRANCH  19  22
ENDBRANCH   1  20
BRANCH   1  33
ATOM     33  C   UNL     1      47.517   3.705  15.993  0.00  0.00    +0.000 C 
BRANCH  33  34
ATOM     34  O   UNL     1      46.562   3.438  17.015  0.00  0.00    +0.000 OA
ATOM     35  H   UNL     1      46.635   4.137  17.694  0.00  0.00    +0.000 HD
ENDBRANCH  33  34
ENDBRANCH   1  33
TORSDOF 9
ENDMDL
MODEL 9
REMARK VINA RESULT:    -6.623      3.364      8.111
REMARK INTER + INTRA:         -10.665
REMARK INTER:                  -9.411
REMARK INTRA:                  -1.253
REMARK UNBOUND:                -0.944
REMARK  Name = 
REMARK  9 active torsions:
REMARK  status: ('A' for Active; 'I' for Inactive)
REMARK    1  A    between atoms: C_2  and  C_21
REMARK    2  A    between atoms: N_3  and  CA_4
REMARK    3  A    between atoms: CA_4  and  C_5
REMARK    4  A    between atoms: CA_4  and  C_7
REMARK    5  A    between atoms: C_5  and  O_6
REMARK    6  A    between atoms: C_10  and  C_11
REMARK    7  A    between atoms: C_11  and  O_12
REMARK    8  A    between atoms: C_11  and  C_13
REMARK    9  A    between atoms: C_13  and  C_14
REMARK                            x       y       z     vdW  Elec       q    Type
REMARK                         _______ _______ _______ _____ _____    ______ ____
ROOT
ATOM      1  CA  UNL     1      48.253   8.090  12.178  0.00  0.00    +0.000 C 
ENDROOT
BRANCH   1   2
ATOM      2  C   UNL     1      48.432   7.916  13.667  0.00  0.00    +0.000 A 
ATOM      3  C   UNL     1      48.450   6.628  14.216  0.00  0.00    +0.000 A 
ATOM      4  C   UNL     1      48.645   6.453  15.581  0.00  0.00    +0.000 A 
ATOM      5  C   UNL     1      48.832   7.577  16.377  0.00  0.00    +0.000 A 
ATOM      6  N   UNL     1      48.845   8.835  15.872  0.00  0.00    +0.000 NA
ATOM      7  C   UNL     1      48.643   8.975  14.544  0.00  0.00    +0.000 A 
BRANCH   5   8
ATOM      8  C   UNL     1      49.112   7.439  17.858  0.00  0.00    +0.000 C 
BRANCH   8   9
ATOM      9  O   UNL     1      48.633   8.622  18.517  0.00  0.00    +0.000 OA
ATOM     10  H   UNL     1      47.689   8.685  18.271  0.00  0.00    +0.000 HD
ENDBRANCH   8   9
BRANCH   8  11
ATOM     11  C   UNL     1      48.390   6.239  18.488  0.00  0.00    +0.000 C 
BRANCH  11  12
ATOM     12  C   UNL     1      49.314   5.150  19.067  0.00  0.00    +0.000 C 
ATOM     13  C   UNL     1      49.577   4.063  18.026  0.00  0.00    +0.000 C 
ATOM     14  C   UNL     1      48.450   3.083  18.269  0.00  0.00    +0.000 C 
ATOM     15  N   UNL     1      48.346   3.030  19.729  0.00  0.00    +0.000 NA
ATOM     16  C   UNL     1      48.679   4.374  20.226  0.00  0.00    +0.000 C 
ATOM     17  H   UNL     1      49.050   2.376  20.077  0.00  0.00    +0.000 HD
ENDBRANCH  11  12
ENDBRANCH   8  11
ENDBRANCH   5   8
ENDBRANCH   1   2
BRANCH   1  20
ATOM     18  O   UNL     1      45.506   8.002  11.680  0.00  0.00    +0.000 OA
ATOM     19  C   UNL     1      46.173   7.012  11.392  0.00  0.00    +0.000 C 
ATOM     20  N   UNL     1      47.518   6.953  11.648  0.00  0.00    +0.000 N 
ATOM     21  H   UNL     1      48.070   6.202  11.242  0.00  0.00    +0.000 HD
BRANCH  19  22
ATOM     22  C   UNL     1      45.568   5.820  10.791  0.00  0.00    +0.000 A 
ATOM     23  C   UNL     1      45.787   5.515   9.457  0.00  0.00    +0.000 A 
ATOM     24  S   UNL     1      45.045   4.059   8.961  0.00  0.00    +0.000 S 
ATOM     25  C   UNL     1      44.431   3.777  10.523  0.00  0.00    +0.000 A 
ATOM     26  N   UNL     1      43.726   2.648  10.812  0.00  0.00    +0.000 NA
ATOM     27  C   UNL     1      43.362   2.550  12.044  0.00  0.00    +0.000 A 
ATOM     28  N   UNL     1      43.614   3.486  13.016  0.00  0.00    +0.000 N 
ATOM     29  C   UNL     1      44.257   4.671  12.753  0.00  0.00    +0.000 A 
ATOM     30  O   UNL     1      44.346   5.547  13.608  0.00  0.00    +0.000 OA
ATOM     31  C   UNL     1      44.749   4.800  11.396  0.00  0.00    +0.000 A 
ATOM     32  H   UNL     1      43.263   3.371  13.953  0.00  0.00    +0.000 HD
ENDBRANCH  19  22
ENDBRANCH   1  20
BRANCH   1  33
ATOM     33  C   UNL     1      49.570   8.349  11.405  0.00  0.00    +0.000 C 
BRANCH  33  34
ATOM     34  O   UNL     1      50.545   7.325  11.572  0.00  0.00    +0.000 OA
ATOM     35  H   UNL     1      50.654   7.158  12.528  0.00  0.00    +0.000 HD
ENDBRANCH  33  34
ENDBRANCH   1  33
TORSDOF 9
ENDMDL
