MODEL 1
REMARK VINA RESULT:    -8.035      0.000      0.000
REMARK INTER + INTRA:         -12.716
REMARK INTER:                 -11.559
REMARK INTRA:                  -1.157
REMARK UNBOUND:                -1.157
REMARK  Name = 
REMARK  8 active torsions:
REMARK  status: ('A' for Active; 'I' for Inactive)
REMARK    1  A    between atoms: N_1  and  C_2
REMARK    2  A    between atoms: C_2  and  C_3
REMARK    3  A    between atoms: C_2  and  C_19
REMARK    4  A    between atoms: C_3  and  C_4
REMARK    5  A    between atoms: C_7  and  C_8
REMARK    6  A    between atoms: C_8  and  N_9
REMARK    7  A    between atoms: N_9  and  C_10
REMARK    8  A    between atoms: C_10  and  C_11
REMARK                            x       y       z     vdW  Elec       q    Type
REMARK                         _______ _______ _______ _____ _____    ______ ____
ROOT
ATOM      1  C   UNL     1      46.396   6.203  12.694  0.00  0.00    +0.000 A 
ATOM      2  C   UNL     1      45.511   5.258  13.227  0.00  0.00    +0.000 A 
ATOM      3  C   UNL     1      44.737   4.447  12.410  0.00  0.00    +0.000 A 
ATOM      4  C   UNL     1      44.786   4.581  11.021  0.00  0.00    +0.000 A 
ATOM      5  C   UNL     1      45.654   5.530  10.468  0.00  0.00    +0.000 A 
ATOM      6  C   UNL     1      46.455   6.329  11.297  0.00  0.00    +0.000 A 
ENDROOT
BRANCH   1   7
ATOM      7  C   UNL     1      47.286   7.075  13.564  0.00  0.00    +0.000 C 
BRANCH   7   8
ATOM      8  C   UNL     1      48.613   6.446  14.071  0.00  0.00    +0.000 C 
BRANCH   8   9
ATOM      9  C   UNL     1      48.637   6.261  15.574  0.00  0.00    +0.000 A 
ATOM     10  C   UNL     1      49.027   7.277  16.432  0.00  0.00    +0.000 A 
ATOM     11  S   UNL     1      48.883   6.864  18.082  0.00  0.00    +0.000 S 
ATOM     12  C   UNL     1      48.296   5.313  17.703  0.00  0.00    +0.000 A 
ATOM     13  N   UNL     1      47.925   4.444  18.683  0.00  0.00    +0.000 NA
ATOM     14  C   UNL     1      47.458   3.320  18.247  0.00  0.00    +0.000 A 
ATOM     15  N   UNL     1      47.357   2.974  16.925  0.00  0.00    +0.000 N 
ATOM     16  C   UNL     1      47.802   3.782  15.906  0.00  0.00    +0.000 A 
ATOM     17  O   UNL     1      47.807   3.388  14.743  0.00  0.00    +0.000 OA
ATOM     18  C   UNL     1      48.255   5.094  16.339  0.00  0.00    +0.000 A 
ATOM     19  H   UNL     1      47.011   2.065  16.653  0.00  0.00    +0.000 HD
ENDBRANCH   8   9
BRANCH   8  20
ATOM     20  N   UNL     1      49.814   7.177  13.665  0.00  0.00    +0.000 NA
ATOM     21  H   UNL     1      50.419   6.585  13.101  0.00  0.00    +0.000 HD
ATOM     22  H   UNL     1      50.344   7.441  14.503  0.00  0.00    +0.000 HD
ENDBRANCH   8  20
ENDBRANCH   7   8
ENDBRANCH   1   7
BRANCH   4  23
ATOM     23  C   UNL     1      43.885   3.717  10.174  0.00  0.00    +0.000 C 
BRANCH  23  24
ATOM     24  N   UNL     1      44.443   2.365  10.094  0.00  0.00    +0.000 NA
ATOM     25  H   UNL     1      43.796   1.732  10.565  0.00  0.00    +0.000 HD
BRANCH  24  26
ATOM     26  C   UNL     1      44.677   1.943   8.718  0.00  0.00    +0.000 C 
BRANCH  26  27
ATOM     27  C   UNL     1      46.168   2.012   8.384  0.00  0.00    +0.000 C 
ATOM     28  C   UNL     1      46.723   0.774   7.679  0.00  0.00    +0.000 C 
ATOM     29  N   UNL     1      47.719   1.223   6.688  0.00  0.00    +0.000 NA
ATOM     30  C   UNL     1      47.822   2.688   6.832  0.00  0.00    +0.000 C 
ATOM     31  C   UNL     1      46.498   3.137   7.423  0.00  0.00    +0.000 C 
ATOM     32  F   UNL     1      45.568   3.189   6.430  0.00  0.00    +0.000 F 
ATOM     33  H   UNL     1      47.338   1.027   5.760  0.00  0.00    +0.000 HD
ENDBRANCH  26  27
ENDBRANCH  24  26
ENDBRANCH  23  24
ENDBRANCH   4  23
TORSDOF 8
ENDMDL
MODEL 2
REMARK VINA RESULT:    -7.874      0.704      1.183
REMARK INTER + INTRA:         -12.484
REMARK INTER:                 -11.442
REMARK INTRA:                  -1.042
REMARK UNBOUND:                -1.157
REMARK  Name = 
REMARK  8 active torsions:
REMARK  status: ('A' for Active; 'I' for Inactive)
REMARK    1  A    between atoms: N_1  and  C_2
REMARK    2  A    between atoms: C_2  and  C_3
REMARK    3  A    between atoms: C_2  and  C_19
REMARK    4  A    between atoms: C_3  and  C_4
REMARK    5  A    between atoms: C_7  and  C_8
REMARK    6  A    between atoms: C_8  and  N_9
REMARK    7  A    between atoms: N_9  and  C_10
REMARK    8  A    between atoms: C_10  and  C_11
REMARK                            x       y       z     vdW  Elec       q    Type
REMARK                         _______ _______ _______ _____ _____    ______ ____
ROOT
ATOM      1  C   UNL     1      46.415   6.163  12.696  0.00  0.00    +0.000 A 
ATOM      2  C   UNL     1      46.355   6.336  11.308  0.00  0.00    +0.000 A 
ATOM      3  C   UNL     1      45.550   5.535  10.512  0.00  0.00    +0.000 A 
ATOM      4  C   UNL     1      44.803   4.496  11.070  0.00  0.00    +0.000 A 
ATOM      5  C   UNL     1      44.860   4.297  12.455  0.00  0.00    +0.000 A 
ATOM      6  C   UNL     1      45.655   5.127  13.260  0.00  0.00    +0.000 A 
ENDROOT
BRANCH   1   7
ATOM      7  C   UNL     1      47.257   7.053  13.597  0.00  0.00    +0.000 C 
BRANCH   7   8
ATOM      8  C   UNL     1      48.645   6.509  14.030  0.00  0.00    +0.000 C 
BRANCH   8   9
ATOM      9  C   UNL     1      48.929   6.730  15.501  0.00  0.00    +0.000 A 
ATOM     10  C   UNL     1      49.505   7.901  15.969  0.00  0.00    +0.000 A 
ATOM     11  S   UNL     1      49.641   7.957  17.669  0.00  0.00    +0.000 S 
ATOM     12  C   UNL     1      48.935   6.417  17.835  0.00  0.00    +0.000 A 
ATOM     13  N   UNL     1      48.711   5.877  19.064  0.00  0.00    +0.000 NA
ATOM     14  C   UNL     1      48.130   4.722  19.038  0.00  0.00    +0.000 A 
ATOM     15  N   UNL     1      47.783   4.046  17.898  0.00  0.00    +0.000 N 
ATOM     16  C   UNL     1      48.070   4.511  16.637  0.00  0.00    +0.000 A 
ATOM     17  O   UNL     1      47.853   3.822  15.644  0.00  0.00    +0.000 OA
ATOM     18  C   UNL     1      48.644   5.847  16.611  0.00  0.00    +0.000 A 
ATOM     19  H   UNL     1      47.359   3.131  17.949  0.00  0.00    +0.000 HD
ENDBRANCH   8   9
BRANCH   8  20
ATOM     20  N   UNL     1      49.764   7.037  13.248  0.00  0.00    +0.000 NA
ATOM     21  H   UNL     1      50.638   6.932  13.757  0.00  0.00    +0.000 HD
ATOM     22  H   UNL     1      49.621   8.042  13.095  0.00  0.00    +0.000 HD
ENDBRANCH   8  20
ENDBRANCH   7   8
ENDBRANCH   1   7
BRANCH   4  23
ATOM     23  C   UNL     1      43.986   3.615  10.159  0.00  0.00    +0.000 C 
BRANCH  23  24
ATOM     24  N   UNL     1      44.589   2.281  10.105  0.00  0.00    +0.000 NA
ATOM     25  H   UNL     1      43.983   1.644  10.621  0.00  0.00    +0.000 HD
BRANCH  24  26
ATOM     26  C   UNL     1      44.786   1.818   8.736  0.00  0.00    +0.000 C 
BRANCH  26  27
ATOM     27  C   UNL     1      46.265   1.896   8.353  0.00  0.00    +0.000 C 
ATOM     28  C   UNL     1      46.787   0.692   7.569  0.00  0.00    +0.000 C 
ATOM     29  N   UNL     1      47.750   1.185   6.567  0.00  0.00    +0.000 NA
ATOM     30  C   UNL     1      47.869   2.640   6.779  0.00  0.00    +0.000 C 
ATOM     31  C   UNL     1      46.569   3.066   7.438  0.00  0.00    +0.000 C 
ATOM     32  F   UNL     1      45.605   3.171   6.482  0.00  0.00    +0.000 F 
ATOM     33  H   UNL     1      47.335   1.037   5.644  0.00  0.00    +0.000 HD
ENDBRANCH  26  27
ENDBRANCH  24  26
ENDBRANCH  23  24
ENDBRANCH   4  23
TORSDOF 8
ENDMDL
MODEL 3
REMARK VINA RESULT:    -7.588      2.136      2.991
REMARK INTER + INTRA:         -12.073
REMARK INTER:                 -11.181
REMARK INTRA:                  -0.892
REMARK UNBOUND:                -1.157
REMARK  Name = 
REMARK  8 active torsions:
REMARK  status: ('A' for Active; 'I' for Inactive)
REMARK    1  A    between atoms: N_1  and  C_2
REMARK    2  A    between atoms: C_2  and  C_3
REMARK    3  A    between atoms: C_2  and  C_19
REMARK    4  A    between atoms: C_3  and  C_4
REMARK    5  A    between atoms: C_7  and  C_8
REMARK    6  A    between atoms: C_8  and  N_9
REMARK    7  A    between atoms: N_9  and  C_10
REMARK    8  A    between atoms: C_10  and  C_11
REMARK                            x       y       z     vdW  Elec       q    Type
REMARK                         _______ _______ _______ _____ _____    ______ ____
ROOT
ATOM      1  C   UNL     1      46.872   4.009  13.844  0.00  0.00    +0.000 A 
ATOM      2  C   UNL     1      47.213   5.300  13.421  0.00  0.00    +0.000 A 
ATOM      3  C   UNL     1      46.584   5.898  12.339  0.00  0.00    +0.000 A 
ATOM      4  C   UNL     1      45.615   5.208  11.606  0.00  0.00    +0.000 A 
ATOM      5  C   UNL     1      45.271   3.911  12.005  0.00  0.00    +0.000 A 
ATOM      6  C   UNL     1      45.889   3.320  13.116  0.00  0.00    +0.000 A 
ENDROOT
BRANCH   1   7
ATOM      7  C   UNL     1      47.515   3.346  15.052  0.00  0.00    +0.000 C 
BRANCH   7   8
ATOM      8  C   UNL     1      47.293   4.024  16.431  0.00  0.00    +0.000 C 
BRANCH   8   9
ATOM      9  C   UNL     1      48.546   4.679  16.971  0.00  0.00    +0.000 A 
ATOM     10  C   UNL     1      48.625   6.046  17.188  0.00  0.00    +0.000 A 
ATOM     11  S   UNL     1      50.102   6.538  17.887  0.00  0.00    +0.000 S 
ATOM     12  C   UNL     1      50.686   4.940  17.921  0.00  0.00    +0.000 A 
ATOM     13  N   UNL     1      51.903   4.649  18.455  0.00  0.00    +0.000 NA
ATOM     14  C   UNL     1      52.197   3.390  18.452  0.00  0.00    +0.000 A 
ATOM     15  N   UNL     1      51.400   2.402  17.938  0.00  0.00    +0.000 N 
ATOM     16  C   UNL     1      50.205   2.657  17.309  0.00  0.00    +0.000 A 
ATOM     17  O   UNL     1      49.577   1.760  16.753  0.00  0.00    +0.000 OA
ATOM     18  C   UNL     1      49.788   4.049  17.364  0.00  0.00    +0.000 A 
ATOM     19  H   UNL     1      51.704   1.439  17.940  0.00  0.00    +0.000 HD
ENDBRANCH   8   9
BRANCH   8  20
ATOM     20  N   UNL     1      46.747   3.131  17.454  0.00  0.00    +0.000 NA
ATOM     21  H   UNL     1      47.492   2.604  17.904  0.00  0.00    +0.000 HD
ATOM     22  H   UNL     1      46.122   2.451  17.007  0.00  0.00    +0.000 HD
ENDBRANCH   8  20
ENDBRANCH   7   8
ENDBRANCH   1   7
BRANCH   4  23
ATOM     23  C   UNL     1      44.999   5.876  10.403  0.00  0.00    +0.000 C 
BRANCH  23  24
ATOM     24  N   UNL     1      45.525   5.259   9.182  0.00  0.00    +0.000 NA
ATOM     25  H   UNL     1      46.431   4.848   9.406  0.00  0.00    +0.000 HD
BRANCH  24  26
ATOM     26  C   UNL     1      44.618   4.258   8.634  0.00  0.00    +0.000 C 
BRANCH  26  27
ATOM     27  C   UNL     1      45.363   3.333   7.669  0.00  0.00    +0.000 C 
ATOM     28  C   UNL     1      46.766   3.804   7.288  0.00  0.00    +0.000 C 
ATOM     29  N   UNL     1      47.632   2.614   7.181  0.00  0.00    +0.000 NA
ATOM     30  C   UNL     1      46.767   1.444   7.421  0.00  0.00    +0.000 C 
ATOM     31  C   UNL     1      45.604   1.955   8.253  0.00  0.00    +0.000 C 
ATOM     32  F   UNL     1      46.006   2.063   9.550  0.00  0.00    +0.000 F 
ATOM     33  H   UNL     1      48.312   2.661   7.944  0.00  0.00    +0.000 HD
ENDBRANCH  26  27
ENDBRANCH  24  26
ENDBRANCH  23  24
ENDBRANCH   4  23
TORSDOF 8
ENDMDL
MODEL 4
REMARK VINA RESULT:    -7.182      2.836      4.047
REMARK INTER + INTRA:         -11.489
REMARK INTER:                 -10.448
REMARK INTRA:                  -1.041
REMARK UNBOUND:                -1.157
REMARK  Name = 
REMARK  8 active torsions:
REMARK  status: ('A' for Active; 'I' for Inactive)
REMARK    1  A    between atoms: N_1  and  C_2
REMARK    2  A    between atoms: C_2  and  C_3
REMARK    3  A    between atoms: C_2  and  C_19
REMARK    4  A    between atoms: C_3  and  C_4
REMARK    5  A    between atoms: C_7  and  C_8
REMARK    6  A    between atoms: C_8  and  N_9
REMARK    7  A    between atoms: N_9  and  C_10
REMARK    8  A    between atoms: C_10  and  C_11
REMARK                            x       y       z     vdW  Elec       q    Type
REMARK                         _______ _______ _______ _____ _____    ______ ____
ROOT
ATOM      1  C   UNL     1      46.767   5.833  12.969  0.00  0.00    +0.000 A 
ATOM      2  C   UNL     1      46.562   6.387  11.700  0.00  0.00    +0.000 A 
ATOM      3  C   UNL     1      45.690   5.809  10.789  0.00  0.00    +0.000 A 
ATOM      4  C   UNL     1      45.019   4.624  11.097  0.00  0.00    +0.000 A 
ATOM      5  C   UNL     1      45.221   4.046  12.356  0.00  0.00    +0.000 A 
ATOM      6  C   UNL     1      46.083   4.649  13.285  0.00  0.00    +0.000 A 
ENDROOT
BRANCH   1   7
ATOM      7  C   UNL     1      47.684   6.468  14.002  0.00  0.00    +0.000 C 
BRANCH   7   8
ATOM      8  C   UNL     1      47.978   7.985  13.848  0.00  0.00    +0.000 C 
BRANCH   8   9
ATOM      9  C   UNL     1      49.417   8.339  14.163  0.00  0.00    +0.000 A 
ATOM     10  C   UNL     1      49.815   8.729  15.431  0.00  0.00    +0.000 A 
ATOM     11  S   UNL     1      51.497   8.985  15.565  0.00  0.00    +0.000 S 
ATOM     12  C   UNL     1      51.748   8.584  13.931  0.00  0.00    +0.000 A 
ATOM     13  N   UNL     1      53.000   8.557  13.399  0.00  0.00    +0.000 NA
ATOM     14  C   UNL     1      53.042   8.194  12.158  0.00  0.00    +0.000 A 
ATOM     15  N   UNL     1      51.947   7.886  11.395  0.00  0.00    +0.000 N 
ATOM     16  C   UNL     1      50.658   7.985  11.864  0.00  0.00    +0.000 A 
ATOM     17  O   UNL     1      49.699   7.818  11.116  0.00  0.00    +0.000 OA
ATOM     18  C   UNL     1      50.561   8.305  13.279  0.00  0.00    +0.000 A 
ATOM     19  H   UNL     1      52.048   7.638  10.422  0.00  0.00    +0.000 HD
ENDBRANCH   8   9
BRANCH   8  20
ATOM     20  N   UNL     1      47.096   8.848  14.635  0.00  0.00    +0.000 NA
ATOM     21  H   UNL     1      47.545   9.740  14.825  0.00  0.00    +0.000 HD
ATOM     22  H   UNL     1      46.912   8.401  15.541  0.00  0.00    +0.000 HD
ENDBRANCH   8  20
ENDBRANCH   7   8
ENDBRANCH   1   7
BRANCH   4  23
ATOM     23  C   UNL     1      44.124   4.001  10.055  0.00  0.00    +0.000 C 
BRANCH  23  24
ATOM     24  N   UNL     1      44.551   4.440   8.724  0.00  0.00    +0.000 NA
ATOM     25  H   UNL     1      45.399   4.994   8.835  0.00  0.00    +0.000 HD
BRANCH  24  26
ATOM     26  C   UNL     1      44.774   3.320   7.817  0.00  0.00    +0.000 C 
BRANCH  26  27
ATOM     27  C   UNL     1      46.240   2.883   7.856  0.00  0.00    +0.000 C 
ATOM     28  C   UNL     1      46.454   1.375   7.976  0.00  0.00    +0.000 C 
ATOM     29  N   UNL     1      47.629   1.016   7.161  0.00  0.00    +0.000 NA
ATOM     30  C   UNL     1      48.162   2.279   6.616  0.00  0.00    +0.000 C 
ATOM     31  C   UNL     1      46.989   3.242   6.589  0.00  0.00    +0.000 C 
ATOM     32  F   UNL     1      46.219   2.967   5.500  0.00  0.00    +0.000 F 
ATOM     33  H   UNL     1      47.297   0.452   6.375  0.00  0.00    +0.000 HD
ENDBRANCH  26  27
ENDBRANCH  24  26
ENDBRANCH  23  24
ENDBRANCH   4  23
TORSDOF 8
ENDMDL
MODEL 5
REMARK VINA RESULT:    -7.122      2.099      2.960
REMARK INTER + INTRA:         -11.401
REMARK INTER:                 -10.433
REMARK INTRA:                  -0.968
REMARK UNBOUND:                -1.157
REMARK  Name = 
REMARK  8 active torsions:
REMARK  status: ('A' for Active; 'I' for Inactive)
REMARK    1  A    between atoms: N_1  and  C_2
REMARK    2  A    between atoms: C_2  and  C_3
REMARK    3  A    between atoms: C_2  and  C_19
REMARK    4  A    between atoms: C_3  and  C_4
REMARK    5  A    between atoms: C_7  and  C_8
REMARK    6  A    between atoms: C_8  and  N_9
REMARK    7  A    between atoms: N_9  and  C_10
REMARK    8  A    between atoms: C_10  and  C_11
REMARK                            x       y       z     vdW  Elec       q    Type
REMARK                         _______ _______ _______ _____ _____    ______ ____
ROOT
ATOM      1  C   UNL     1      46.468   6.077  12.558  0.00  0.00    +0.000 A 
ATOM      2  C   UNL     1      45.815   6.341  11.348  0.00  0.00    +0.000 A 
ATOM      3  C   UNL     1      44.991   5.401  10.748  0.00  0.00    +0.000 A 
ATOM      4  C   UNL     1      44.821   4.136  11.315  0.00  0.00    +0.000 A 
ATOM      5  C   UNL     1      45.476   3.847  12.518  0.00  0.00    +0.000 A 
ATOM      6  C   UNL     1      46.287   4.811  13.136  0.00  0.00    +0.000 A 
ENDROOT
BRANCH   1   7
ATOM      7  C   UNL     1      47.343   7.104  13.259  0.00  0.00    +0.000 C 
BRANCH   7   8
ATOM      8  C   UNL     1      48.634   6.581  13.945  0.00  0.00    +0.000 C 
BRANCH   8   9
ATOM      9  C   UNL     1      48.636   6.811  15.442  0.00  0.00    +0.000 A 
ATOM     10  C   UNL     1      48.513   5.767  16.345  0.00  0.00    +0.000 A 
ATOM     11  S   UNL     1      48.637   6.261  17.974  0.00  0.00    +0.000 S 
ATOM     12  C   UNL     1      48.857   7.887  17.525  0.00  0.00    +0.000 A 
ATOM     13  N   UNL     1      49.074   8.850  18.462  0.00  0.00    +0.000 NA
ATOM     14  C   UNL     1      49.267  10.032  17.974  0.00  0.00    +0.000 A 
ATOM     15  N   UNL     1      49.232  10.343  16.640  0.00  0.00    +0.000 N 
ATOM     16  C   UNL     1      48.929   9.422  15.666  0.00  0.00    +0.000 A 
ATOM     17  O   UNL     1      48.787   9.763  14.494  0.00  0.00    +0.000 OA
ATOM     18  C   UNL     1      48.790   8.060  16.156  0.00  0.00    +0.000 A 
ATOM     19  H   UNL     1      49.361  11.295  16.327  0.00  0.00    +0.000 HD
ENDBRANCH   8   9
BRANCH   8  20
ATOM     20  N   UNL     1      49.871   7.122  13.381  0.00  0.00    +0.000 NA
ATOM     21  H   UNL     1      49.992   8.095  13.651  0.00  0.00    +0.000 HD
ATOM     22  H   UNL     1      49.812   7.096  12.357  0.00  0.00    +0.000 HD
ENDBRANCH   8  20
ENDBRANCH   7   8
ENDBRANCH   1   7
BRANCH   4  23
ATOM     23  C   UNL     1      43.961   3.126  10.598  0.00  0.00    +0.000 C 
BRANCH  23  24
ATOM     24  N   UNL     1      44.285   3.139   9.169  0.00  0.00    +0.000 NA
ATOM     25  H   UNL     1      44.982   3.866   9.014  0.00  0.00    +0.000 HD
BRANCH  24  26
ATOM     26  C   UNL     1      44.766   1.845   8.699  0.00  0.00    +0.000 C 
BRANCH  26  27
ATOM     27  C   UNL     1      46.254   1.921   8.353  0.00  0.00    +0.000 C 
ATOM     28  C   UNL     1      46.805   0.694   7.626  0.00  0.00    +0.000 C 
ATOM     29  N   UNL     1      47.791   1.159   6.633  0.00  0.00    +0.000 NA
ATOM     30  C   UNL     1      47.893   2.621   6.796  0.00  0.00    +0.000 C 
ATOM     31  C   UNL     1      46.574   3.060   7.406  0.00  0.00    +0.000 C 
ATOM     32  F   UNL     1      45.635   3.124   6.421  0.00  0.00    +0.000 F 
ATOM     33  H   UNL     1      47.401   0.975   5.705  0.00  0.00    +0.000 HD
ENDBRANCH  26  27
ENDBRANCH  24  26
ENDBRANCH  23  24
ENDBRANCH   4  23
TORSDOF 8
ENDMDL
MODEL 6
REMARK VINA RESULT:    -6.855      1.972      2.776
REMARK INTER + INTRA:         -11.019
REMARK INTER:                  -9.991
REMARK INTRA:                  -1.028
REMARK UNBOUND:                -1.157
REMARK  Name = 
REMARK  8 active torsions:
REMARK  status: ('A' for Active; 'I' for Inactive)
REMARK    1  A    between atoms: N_1  and  C_2
REMARK    2  A    between atoms: C_2  and  C_3
REMARK    3  A    between atoms: C_2  and  C_19
REMARK    4  A    between atoms: C_3  and  C_4
REMARK    5  A    between atoms: C_7  and  C_8
REMARK    6  A    between atoms: C_8  and  N_9
REMARK    7  A    between atoms: N_9  and  C_10
REMARK    8  A    between atoms: C_10  and  C_11
REMARK                            x       y       z     vdW  Elec       q    Type
REMARK                         _______ _______ _______ _____ _____    ______ ____
ROOT
ATOM      1  C   UNL     1      46.643   4.401  13.533  0.00  0.00    +0.000 A 
ATOM      2  C   UNL     1      46.269   5.632  12.982  0.00  0.00    +0.000 A 
ATOM      3  C   UNL     1      45.294   5.721  11.999  0.00  0.00    +0.000 A 
ATOM      4  C   UNL     1      44.683   4.571  11.496  0.00  0.00    +0.000 A 
ATOM      5  C   UNL     1      45.052   3.329  12.024  0.00  0.00    +0.000 A 
ATOM      6  C   UNL     1      46.019   3.246  13.037  0.00  0.00    +0.000 A 
ENDROOT
BRANCH   1   7
ATOM      7  C   UNL     1      47.677   4.279  14.640  0.00  0.00    +0.000 C 
BRANCH   7   8
ATOM      8  C   UNL     1      47.240   4.709  16.067  0.00  0.00    +0.000 C 
BRANCH   8   9
ATOM      9  C   UNL     1      48.321   5.468  16.808  0.00  0.00    +0.000 A 
ATOM     10  C   UNL     1      49.570   5.695  16.252  0.00  0.00    +0.000 A 
ATOM     11  S   UNL     1      50.586   6.651  17.235  0.00  0.00    +0.000 S 
ATOM     12  C   UNL     1      49.390   6.791  18.437  0.00  0.00    +0.000 A 
ATOM     13  N   UNL     1      49.602   7.537  19.555  0.00  0.00    +0.000 NA
ATOM     14  C   UNL     1      48.591   7.588  20.359  0.00  0.00    +0.000 A 
ATOM     15  N   UNL     1      47.401   6.938  20.164  0.00  0.00    +0.000 N 
ATOM     16  C   UNL     1      47.174   6.102  19.096  0.00  0.00    +0.000 A 
ATOM     17  O   UNL     1      46.142   5.442  19.018  0.00  0.00    +0.000 OA
ATOM     18  C   UNL     1      48.249   6.080  18.116  0.00  0.00    +0.000 A 
ATOM     19  H   UNL     1      46.662   6.995  20.848  0.00  0.00    +0.000 HD
ENDBRANCH   8   9
BRANCH   8  20
ATOM     20  N   UNL     1      46.776   3.605  16.908  0.00  0.00    +0.000 NA
ATOM     21  H   UNL     1      47.562   3.142  17.357  0.00  0.00    +0.000 HD
ATOM     22  H   UNL     1      46.310   2.907  16.317  0.00  0.00    +0.000 HD
ENDBRANCH   8  20
ENDBRANCH   7   8
ENDBRANCH   1   7
BRANCH   4  23
ATOM     23  C   UNL     1      43.669   4.711  10.388  0.00  0.00    +0.000 C 
BRANCH  23  24
ATOM     24  N   UNL     1      43.835   3.610   9.436  0.00  0.00    +0.000 NA
ATOM     25  H   UNL     1      42.920   3.399   9.040  0.00  0.00    +0.000 HD
BRANCH  24  26
ATOM     26  C   UNL     1      44.797   3.927   8.386  0.00  0.00    +0.000 C 
BRANCH  26  27
ATOM     27  C   UNL     1      45.978   2.955   8.432  0.00  0.00    +0.000 C 
ATOM     28  C   UNL     1      45.596   1.496   8.680  0.00  0.00    +0.000 C 
ATOM     29  N   UNL     1      46.493   0.648   7.874  0.00  0.00    +0.000 NA
ATOM     30  C   UNL     1      47.443   1.557   7.207  0.00  0.00    +0.000 C 
ATOM     31  C   UNL     1      46.737   2.899   7.121  0.00  0.00    +0.000 C 
ATOM     32  F   UNL     1      45.861   2.868   6.078  0.00  0.00    +0.000 F 
ATOM     33  H   UNL     1      45.925   0.203   7.148  0.00  0.00    +0.000 HD
ENDBRANCH  26  27
ENDBRANCH  24  26
ENDBRANCH  23  24
ENDBRANCH   4  23
TORSDOF 8
ENDMDL
MODEL 7
REMARK VINA RESULT:    -6.838      1.746      3.138
REMARK INTER + INTRA:         -10.993
REMARK INTER:                  -9.974
REMARK INTRA:                  -1.019
REMARK UNBOUND:                -1.157
REMARK  Name = 
REMARK  8 active torsions:
REMARK  status: ('A' for Active; 'I' for Inactive)
REMARK    1  A    between atoms: N_1  and  C_2
REMARK    2  A    between atoms: C_2  and  C_3
REMARK    3  A    between atoms: C_2  and  C_19
REMARK    4  A    between atoms: C_3  and  C_4
REMARK    5  A    between atoms: C_7  and  C_8
REMARK    6  A    between atoms: C_8  and  N_9
REMARK    7  A    between atoms: N_9  and  C_10
REMARK    8  A    between atoms: C_10  and  C_11
REMARK                            x       y       z     vdW  Elec       q    Type
REMARK                         _______ _______ _______ _____ _____    ______ ____
ROOT
ATOM      1  C   UNL     1      46.507   4.088  13.508  0.00  0.00    +0.000 A 
ATOM      2  C   UNL     1      46.254   5.370  13.006  0.00  0.00    +0.000 A 
ATOM      3  C   UNL     1      45.347   5.580  11.977  0.00  0.00    +0.000 A 
ATOM      4  C   UNL     1      44.688   4.505  11.377  0.00  0.00    +0.000 A 
ATOM      5  C   UNL     1      44.939   3.213  11.856  0.00  0.00    +0.000 A 
ATOM      6  C   UNL     1      45.835   3.009  12.915  0.00  0.00    +0.000 A 
ENDROOT
BRANCH   1   7
ATOM      7  C   UNL     1      47.463   3.835  14.663  0.00  0.00    +0.000 C 
BRANCH   7   8
ATOM      8  C   UNL     1      47.347   4.772  15.895  0.00  0.00    +0.000 C 
BRANCH   8   9
ATOM      9  C   UNL     1      48.695   5.196  16.439  0.00  0.00    +0.000 A 
ATOM     10  C   UNL     1      49.338   4.485  17.440  0.00  0.00    +0.000 A 
ATOM     11  S   UNL     1      50.884   5.100  17.822  0.00  0.00    +0.000 S 
ATOM     12  C   UNL     1      50.743   6.337  16.662  0.00  0.00    +0.000 A 
ATOM     13  N   UNL     1      51.764   7.209  16.440  0.00  0.00    +0.000 NA
ATOM     14  C   UNL     1      51.533   8.068  15.501  0.00  0.00    +0.000 A 
ATOM     15  N   UNL     1      50.367   8.153  14.788  0.00  0.00    +0.000 N 
ATOM     16  C   UNL     1      49.277   7.353  15.039  0.00  0.00    +0.000 A 
ATOM     17  O   UNL     1      48.209   7.539  14.462  0.00  0.00    +0.000 OA
ATOM     18  C   UNL     1      49.517   6.312  16.026  0.00  0.00    +0.000 A 
ATOM     19  H   UNL     1      50.240   8.869  14.087  0.00  0.00    +0.000 HD
ENDBRANCH   8   9
BRANCH   8  20
ATOM     20  N   UNL     1      46.546   4.222  16.990  0.00  0.00    +0.000 NA
ATOM     21  H   UNL     1      47.114   3.620  17.581  0.00  0.00    +0.000 HD
ATOM     22  H   UNL     1      45.795   3.643  16.598  0.00  0.00    +0.000 HD
ENDBRANCH   8  20
ENDBRANCH   7   8
ENDBRANCH   1   7
BRANCH   4  23
ATOM     23  C   UNL     1      43.754   4.774  10.224  0.00  0.00    +0.000 C 
BRANCH  23  24
ATOM     24  N   UNL     1      43.987   3.784   9.169  0.00  0.00    +0.000 NA
ATOM     25  H   UNL     1      43.128   3.698   8.627  0.00  0.00    +0.000 HD
BRANCH  24  26
ATOM     26  C   UNL     1      45.111   4.143   8.312  0.00  0.00    +0.000 C 
BRANCH  26  27
ATOM     27  C   UNL     1      46.192   3.062   8.366  0.00  0.00    +0.000 C 
ATOM     28  C   UNL     1      45.676   1.659   8.687  0.00  0.00    +0.000 C 
ATOM     29  N   UNL     1      46.459   0.694   7.893  0.00  0.00    +0.000 NA
ATOM     30  C   UNL     1      47.471   1.477   7.160  0.00  0.00    +0.000 C 
ATOM     31  C   UNL     1      46.897   2.877   7.037  0.00  0.00    +0.000 C 
ATOM     32  F   UNL     1      45.990   2.893   6.022  0.00  0.00    +0.000 F 
ATOM     33  H   UNL     1      45.826   0.280   7.203  0.00  0.00    +0.000 HD
ENDBRANCH  26  27
ENDBRANCH  24  26
ENDBRANCH  23  24
ENDBRANCH   4  23
TORSDOF 8
ENDMDL
MODEL 8
REMARK VINA RESULT:    -6.647      2.504      3.297
REMARK INTER + INTRA:         -10.718
REMARK INTER:                  -9.727
REMARK INTRA:                  -0.992
REMARK UNBOUND:                -1.157
REMARK  Name = 
REMARK  8 active torsions:
REMARK  status: ('A' for Active; 'I' for Inactive)
REMARK    1  A    between atoms: N_1  and  C_2
REMARK    2  A    between atoms: C_2  and  C_3
REMARK    3  A    between atoms: C_2  and  C_19
REMARK    4  A    between atoms: C_3  and  C_4
REMARK    5  A    between atoms: C_7  and  C_8
REMARK    6  A    between atoms: C_8  and  N_9
REMARK    7  A    between atoms: N_9  and  C_10
REMARK    8  A    between atoms: C_10  and  C_11
REMARK                            x       y       z     vdW  Elec       q    Type
REMARK                         _______ _______ _______ _____ _____    ______ ____
ROOT
ATOM      1  C   UNL     1      47.201   6.437  13.007  0.00  0.00    +0.000 A 
ATOM      2  C   UNL     1      46.649   7.053  11.878  0.00  0.00    +0.000 A 
ATOM      3  C   UNL     1      45.409   6.677  11.381  0.00  0.00    +0.000 A 
ATOM      4  C   UNL     1      44.691   5.635  11.971  0.00  0.00    +0.000 A 
ATOM      5  C   UNL     1      45.233   4.997  13.093  0.00  0.00    +0.000 A 
ATOM      6  C   UNL     1      46.474   5.399  13.609  0.00  0.00    +0.000 A 
ENDROOT
BRANCH   1   7
ATOM      7  C   UNL     1      48.537   6.858  13.598  0.00  0.00    +0.000 C 
BRANCH   7   8
ATOM      8  C   UNL     1      48.503   7.894  14.755  0.00  0.00    +0.000 C 
BRANCH   8   9
ATOM      9  C   UNL     1      48.660   7.254  16.119  0.00  0.00    +0.000 A 
ATOM     10  C   UNL     1      48.740   5.880  16.280  0.00  0.00    +0.000 A 
ATOM     11  S   UNL     1      49.007   5.401  17.896  0.00  0.00    +0.000 S 
ATOM     12  C   UNL     1      49.024   7.015  18.433  0.00  0.00    +0.000 A 
ATOM     13  N   UNL     1      49.260   7.318  19.739  0.00  0.00    +0.000 NA
ATOM     14  C   UNL     1      49.285   8.585  19.994  0.00  0.00    +0.000 A 
ATOM     15  N   UNL     1      49.066   9.574  19.072  0.00  0.00    +0.000 N 
ATOM     16  C   UNL     1      48.736   9.314  17.763  0.00  0.00    +0.000 A 
ATOM     17  O   UNL     1      48.428  10.222  16.996  0.00  0.00    +0.000 OA
ATOM     18  C   UNL     1      48.781   7.905  17.405  0.00  0.00    +0.000 A 
ATOM     19  H   UNL     1      49.070  10.546  19.345  0.00  0.00    +0.000 HD
ENDBRANCH   8   9
BRANCH   8  20
ATOM     20  N   UNL     1      47.310   8.741  14.764  0.00  0.00    +0.000 NA
ATOM     21  H   UNL     1      47.089   9.057  13.823  0.00  0.00    +0.000 HD
ATOM     22  H   UNL     1      47.496   9.576  15.330  0.00  0.00    +0.000 HD
ENDBRANCH   8  20
ENDBRANCH   7   8
ENDBRANCH   1   7
BRANCH   4  23
ATOM     23  C   UNL     1      43.374   5.222  11.362  0.00  0.00    +0.000 C 
BRANCH  23  24
ATOM     24  N   UNL     1      43.545   5.029   9.919  0.00  0.00    +0.000 NA
ATOM     25  H   UNL     1      44.067   5.826   9.558  0.00  0.00    +0.000 HD
BRANCH  24  26
ATOM     26  C   UNL     1      44.222   3.775   9.606  0.00  0.00    +0.000 C 
BRANCH  26  27
ATOM     27  C   UNL     1      44.885   3.855   8.230  0.00  0.00    +0.000 C 
ATOM     28  C   UNL     1      46.076   4.809   8.149  0.00  0.00    +0.000 C 
ATOM     29  N   UNL     1      47.083   4.205   7.257  0.00  0.00    +0.000 NA
ATOM     30  C   UNL     1      46.496   2.951   6.750  0.00  0.00    +0.000 C 
ATOM     31  C   UNL     1      45.471   2.529   7.788  0.00  0.00    +0.000 C 
ATOM     32  F   UNL     1      46.117   1.936   8.829  0.00  0.00    +0.000 F 
ATOM     33  H   UNL     1      47.894   3.960   7.831  0.00  0.00    +0.000 HD
ENDBRANCH  26  27
ENDBRANCH  24  26
ENDBRANCH  23  24
ENDBRANCH   4  23
TORSDOF 8
ENDMDL
MODEL 9
REMARK VINA RESULT:    -6.621      2.100      2.739
REMARK INTER + INTRA:         -10.682
REMARK INTER:                  -9.602
REMARK INTRA:                  -1.080
REMARK UNBOUND:                -1.157
REMARK  Name = 
REMARK  8 active torsions:
REMARK  status: ('A' for Active; 'I' for Inactive)
REMARK    1  A    between atoms: N_1  and  C_2
REMARK    2  A    between atoms: C_2  and  C_3
REMARK    3  A    between atoms: C_2  and  C_19
REMARK    4  A    between atoms: C_3  and  C_4
REMARK    5  A    between atoms: C_7  and  C_8
REMARK    6  A    between atoms: C_8  and  N_9
REMARK    7  A    between atoms: N_9  and  C_10
REMARK    8  A    between atoms: C_10  and  C_11
REMARK                            x       y       z     vdW  Elec       q    Type
REMARK                         _______ _______ _______ _____ _____    ______ ____
ROOT
ATOM      1  C   UNL     1      46.433   6.282  12.828  0.00  0.00    +0.000 A 
ATOM      2  C   UNL     1      45.449   6.606  11.888  0.00  0.00    +0.000 A 
ATOM      3  C   UNL     1      44.510   5.674  11.469  0.00  0.00    +0.000 A 
ATOM      4  C   UNL     1      44.547   4.362  11.946  0.00  0.00    +0.000 A 
ATOM      5  C   UNL     1      45.533   4.014  12.877  0.00  0.00    +0.000 A 
ATOM      6  C   UNL     1      46.463   4.967  13.318  0.00  0.00    +0.000 A 
ENDROOT
BRANCH   1   7
ATOM      7  C   UNL     1      47.447   7.295  13.336  0.00  0.00    +0.000 C 
BRANCH   7   8
ATOM      8  C   UNL     1      48.948   6.955  13.130  0.00  0.00    +0.000 C 
BRANCH   8   9
ATOM      9  C   UNL     1      49.843   7.603  14.166  0.00  0.00    +0.000 A 
ATOM     10  C   UNL     1      50.650   8.688  13.863  0.00  0.00    +0.000 A 
ATOM     11  S   UNL     1      51.495   9.302  15.213  0.00  0.00    +0.000 S 
ATOM     12  C   UNL     1      50.811   8.136  16.246  0.00  0.00    +0.000 A 
ATOM     13  N   UNL     1      51.086   8.132  17.579  0.00  0.00    +0.000 NA
ATOM     14  C   UNL     1      50.463   7.217  18.247  0.00  0.00    +0.000 A 
ATOM     15  N   UNL     1      49.616   6.289  17.700  0.00  0.00    +0.000 N 
ATOM     16  C   UNL     1      49.378   6.199  16.349  0.00  0.00    +0.000 A 
ATOM     17  O   UNL     1      48.709   5.280  15.884  0.00  0.00    +0.000 OA
ATOM     18  C   UNL     1      49.987   7.261  15.565  0.00  0.00    +0.000 A 
ATOM     19  H   UNL     1      49.184   5.580  18.276  0.00  0.00    +0.000 HD
ENDBRANCH   8   9
BRANCH   8  20
ATOM     20  N   UNL     1      49.457   7.280  11.797  0.00  0.00    +0.000 NA
ATOM     21  H   UNL     1      49.876   8.207  11.789  0.00  0.00    +0.000 HD
ATOM     22  H   UNL     1      48.673   7.296  11.134  0.00  0.00    +0.000 HD
ENDBRANCH   8  20
ENDBRANCH   7   8
ENDBRANCH   1   7
BRANCH   4  23
ATOM     23  C   UNL     1      43.542   3.367  11.420  0.00  0.00    +0.000 C 
BRANCH  23  24
ATOM     24  N   UNL     1      43.551   3.397   9.955  0.00  0.00    +0.000 NA
ATOM     25  H   UNL     1      43.645   4.369   9.663  0.00  0.00    +0.000 HD
BRANCH  24  26
ATOM     26  C   UNL     1      44.617   2.576   9.391  0.00  0.00    +0.000 C 
BRANCH  26  27
ATOM     27  C   UNL     1      45.115   3.176   8.076  0.00  0.00    +0.000 C 
ATOM     28  C   UNL     1      45.975   4.430   8.230  0.00  0.00    +0.000 C 
ATOM     29  N   UNL     1      47.036   4.383   7.207  0.00  0.00    +0.000 NA
ATOM     30  C   UNL     1      46.790   3.171   6.403  0.00  0.00    +0.000 C 
ATOM     31  C   UNL     1      46.015   2.229   7.308  0.00  0.00    +0.000 C 
ATOM     32  F   UNL     1      46.887   1.622   8.160  0.00  0.00    +0.000 F 
ATOM     33  H   UNL     1      47.927   4.259   7.694  0.00  0.00    +0.000 HD
ENDBRANCH  26  27
ENDBRANCH  24  26
ENDBRANCH  23  24
ENDBRANCH   4  23
TORSDOF 8
ENDMDL
