MODEL 1
REMARK VINA RESULT:    -8.527      0.000      0.000
REMARK INTER + INTRA:         -13.951
REMARK INTER:                 -12.515
REMARK INTRA:                  -1.436
REMARK UNBOUND:                -1.436
REMARK  Name = 
REMARK  9 active torsions:
REMARK  status: ('A' for Active; 'I' for Inactive)
REMARK    1  A    between atoms: C_1  and  O_2
REMARK    2  A    between atoms: O_2  and  C_3
REMARK    3  A    between atoms: C_10  and  C_11
REMARK    4  A    between atoms: N_13  and  C_14
REMARK    5  A    between atoms: C_14  and  C_15
REMARK    6  A    between atoms: C_18  and  N_19
REMARK    7  A    between atoms: N_19  and  C_20
REMARK    8  A    between atoms: C_20  and  C_21
REMARK    9  A    between atoms: C_21  and  C_22
REMARK                            x       y       z     vdW  Elec       q    Type
REMARK                         _______ _______ _______ _____ _____    ______ ____
ROOT
ATOM      1  C   UNL     1      47.190   8.109  13.291  0.00  0.00    +0.000 C 
ENDROOT
BRANCH   1   2
ATOM      2  C   UNL     1      46.324   7.317  12.344  0.00  0.00    +0.000 A 
ATOM      3  C   UNL     1      46.840   6.625  11.244  0.00  0.00    +0.000 A 
ATOM      4  C   UNL     1      45.998   5.825  10.452  0.00  0.00    +0.000 A 
ATOM      5  C   UNL     1      44.648   5.644  10.774  0.00  0.00    +0.000 A 
ATOM      6  C   UNL     1      44.124   6.403  11.816  0.00  0.00    +0.000 A 
ATOM      7  C   UNL     1      44.943   7.250  12.573  0.00  0.00    +0.000 A 
BRANCH   5   8
ATOM      8  N   UNL     1      43.776   4.773  10.101  0.00  0.00    +0.000 N 
ATOM      9  H   UNL     1      43.195   5.280   9.438  0.00  0.00    +0.000 HD
BRANCH   8  10
ATOM     10  C   UNL     1      44.347   3.550   9.534  0.00  0.00    +0.000 C 
BRANCH  10  11
ATOM     11  C   UNL     1      44.623   3.708   8.029  0.00  0.00    +0.000 C 
BRANCH  11  12
ATOM     12  C   UNL     1      45.801   2.882   7.587  0.00  0.00    +0.000 A 
ATOM     13  C   UNL     1      45.982   1.591   8.093  0.00  0.00    +0.000 A 
ATOM     14  C   UNL     1      47.094   0.872   7.687  0.00  0.00    +0.000 A 
ATOM     15  N   UNL     1      48.026   1.345   6.833  0.00  0.00    +0.000 NA
ATOM     16  C   UNL     1      47.829   2.593   6.355  0.00  0.00    +0.000 A 
ATOM     17  C   UNL     1      46.748   3.389   6.696  0.00  0.00    +0.000 A 
ENDBRANCH  11  12
ENDBRANCH  10  11
ENDBRANCH   8  10
ENDBRANCH   5   8
ENDBRANCH   1   2
BRANCH   1  20
ATOM     18  C   UNL     1      48.819   6.982  14.758  0.00  0.00    +0.000 C 
ATOM     19  O   UNL     1      49.744   7.259  13.997  0.00  0.00    +0.000 OA
ATOM     20  N   UNL     1      47.534   7.363  14.478  0.00  0.00    +0.000 N 
ATOM     21  H   UNL     1      46.778   7.082  15.097  0.00  0.00    +0.000 HD
BRANCH  18  29
ATOM     22  C   UNL     1      47.286   4.221  16.228  0.00  0.00    +0.000 A 
ATOM     23  N   UNL     1      46.913   3.185  17.005  0.00  0.00    +0.000 NA
ATOM     24  C   UNL     1      47.608   2.933  18.116  0.00  0.00    +0.000 A 
ATOM     25  N   UNL     1      48.655   3.618  18.560  0.00  0.00    +0.000 NA
ATOM     26  C   UNL     1      48.981   4.655  17.769  0.00  0.00    +0.000 A 
ATOM     27  S   UNL     1      50.285   5.643  18.216  0.00  0.00    +0.000 S 
ATOM     28  C   UNL     1      50.091   6.608  16.831  0.00  0.00    +0.000 A 
ATOM     29  C   UNL     1      49.051   6.210  15.999  0.00  0.00    +0.000 A 
ATOM     30  C   UNL     1      48.376   5.045  16.579  0.00  0.00    +0.000 A 
BRANCH  22  32
ATOM     31  C   UNL     1      47.080   3.753  13.973  0.00  0.00    +0.000 C 
ATOM     32  O   UNL     1      46.531   4.456  15.088  0.00  0.00    +0.000 OA
ENDBRANCH  22  32
ENDBRANCH  18  29
ENDBRANCH   1  20
TORSDOF 8
ENDMDL
MODEL 2
REMARK VINA RESULT:    -7.883      1.584      2.049
REMARK INTER + INTRA:         -13.006
REMARK INTER:                 -11.741
REMARK INTRA:                  -1.265
REMARK UNBOUND:                -1.436
REMARK  Name = 
REMARK  9 active torsions:
REMARK  status: ('A' for Active; 'I' for Inactive)
REMARK    1  A    between atoms: C_1  and  O_2
REMARK    2  A    between atoms: O_2  and  C_3
REMARK    3  A    between atoms: C_10  and  C_11
REMARK    4  A    between atoms: N_13  and  C_14
REMARK    5  A    between atoms: C_14  and  C_15
REMARK    6  A    between atoms: C_18  and  N_19
REMARK    7  A    between atoms: N_19  and  C_20
REMARK    8  A    between atoms: C_20  and  C_21
REMARK    9  A    between atoms: C_21  and  C_22
REMARK                            x       y       z     vdW  Elec       q    Type
REMARK                         _______ _______ _______ _____ _____    ______ ____
ROOT
ATOM      1  C   UNL     1      48.237   6.794  13.502  0.00  0.00    +0.000 C 
ENDROOT
BRANCH   1   2
ATOM      2  C   UNL     1      47.011   6.249  12.816  0.00  0.00    +0.000 A 
ATOM      3  C   UNL     1      46.366   6.918  11.772  0.00  0.00    +0.000 A 
ATOM      4  C   UNL     1      45.283   6.317  11.106  0.00  0.00    +0.000 A 
ATOM      5  C   UNL     1      44.865   5.017  11.418  0.00  0.00    +0.000 A 
ATOM      6  C   UNL     1      45.454   4.394  12.514  0.00  0.00    +0.000 A 
ATOM      7  C   UNL     1      46.492   5.011  13.222  0.00  0.00    +0.000 A 
BRANCH   5   8
ATOM      8  N   UNL     1      43.872   4.310  10.722  0.00  0.00    +0.000 N 
ATOM      9  H   UNL     1      43.253   4.944  10.224  0.00  0.00    +0.000 HD
BRANCH   8  10
ATOM     10  C   UNL     1      44.300   3.175   9.901  0.00  0.00    +0.000 C 
BRANCH  10  11
ATOM     11  C   UNL     1      44.693   3.628   8.485  0.00  0.00    +0.000 C 
BRANCH  11  12
ATOM     12  C   UNL     1      45.831   2.813   7.932  0.00  0.00    +0.000 A 
ATOM     13  C   UNL     1      46.785   3.412   7.104  0.00  0.00    +0.000 A 
ATOM     14  C   UNL     1      47.802   2.624   6.589  0.00  0.00    +0.000 A 
ATOM     15  N   UNL     1      47.925   1.302   6.832  0.00  0.00    +0.000 NA
ATOM     16  C   UNL     1      46.994   0.745   7.635  0.00  0.00    +0.000 A 
ATOM     17  C   UNL     1      45.943   1.448   8.203  0.00  0.00    +0.000 A 
ENDBRANCH  11  12
ENDBRANCH  10  11
ENDBRANCH   8  10
ENDBRANCH   5   8
ENDBRANCH   1   2
BRANCH   1  20
ATOM     18  C   UNL     1      48.893   7.513  15.768  0.00  0.00    +0.000 C 
ATOM     19  O   UNL     1      49.691   8.330  15.312  0.00  0.00    +0.000 OA
ATOM     20  N   UNL     1      48.143   6.719  14.941  0.00  0.00    +0.000 N 
ATOM     21  H   UNL     1      47.525   6.017  15.339  0.00  0.00    +0.000 HD
BRANCH  18  29
ATOM     22  C   UNL     1      48.836   4.760  17.900  0.00  0.00    +0.000 A 
ATOM     23  N   UNL     1      48.784   3.907  18.943  0.00  0.00    +0.000 NA
ATOM     24  C   UNL     1      48.626   4.403  20.171  0.00  0.00    +0.000 A 
ATOM     25  N   UNL     1      48.501   5.686  20.490  0.00  0.00    +0.000 NA
ATOM     26  C   UNL     1      48.536   6.501  19.422  0.00  0.00    +0.000 A 
ATOM     27  S   UNL     1      48.363   8.170  19.664  0.00  0.00    +0.000 S 
ATOM     28  C   UNL     1      48.527   8.478  18.001  0.00  0.00    +0.000 A 
ATOM     29  C   UNL     1      48.721   7.340  17.227  0.00  0.00    +0.000 A 
ATOM     30  C   UNL     1      48.707   6.152  18.086  0.00  0.00    +0.000 A 
BRANCH  22  32
ATOM     31  C   UNL     1      47.888   3.348  16.333  0.00  0.00    +0.000 C 
ATOM     32  O   UNL     1      48.990   4.203  16.639  0.00  0.00    +0.000 OA
ENDBRANCH  22  32
ENDBRANCH  18  29
ENDBRANCH   1  20
TORSDOF 8
ENDMDL
MODEL 3
REMARK VINA RESULT:    -7.858      2.064      3.346
REMARK INTER + INTRA:         -12.970
REMARK INTER:                 -11.806
REMARK INTRA:                  -1.164
REMARK UNBOUND:                -1.436
REMARK  Name = 
REMARK  9 active torsions:
REMARK  status: ('A' for Active; 'I' for Inactive)
REMARK    1  A    between atoms: C_1  and  O_2
REMARK    2  A    between atoms: O_2  and  C_3
REMARK    3  A    between atoms: C_10  and  C_11
REMARK    4  A    between atoms: N_13  and  C_14
REMARK    5  A    between atoms: C_14  and  C_15
REMARK    6  A    between atoms: C_18  and  N_19
REMARK    7  A    between atoms: N_19  and  C_20
REMARK    8  A    between atoms: C_20  and  C_21
REMARK    9  A    between atoms: C_21  and  C_22
REMARK                            x       y       z     vdW  Elec       q    Type
REMARK                         _______ _______ _______ _____ _____    ______ ____
ROOT
ATOM      1  C   UNL     1      47.279   3.335  14.814  0.00  0.00    +0.000 C 
ENDROOT
BRANCH   1   2
ATOM      2  C   UNL     1      46.597   4.021  13.658  0.00  0.00    +0.000 A 
ATOM      3  C   UNL     1      46.870   5.343  13.294  0.00  0.00    +0.000 A 
ATOM      4  C   UNL     1      46.275   5.900  12.148  0.00  0.00    +0.000 A 
ATOM      5  C   UNL     1      45.454   5.139  11.308  0.00  0.00    +0.000 A 
ATOM      6  C   UNL     1      45.118   3.854  11.724  0.00  0.00    +0.000 A 
ATOM      7  C   UNL     1      45.658   3.311  12.896  0.00  0.00    +0.000 A 
BRANCH   5   8
ATOM      8  N   UNL     1      44.919   5.589  10.091  0.00  0.00    +0.000 N 
ATOM      9  H   UNL     1      44.755   6.592  10.114  0.00  0.00    +0.000 HD
BRANCH   8  10
ATOM     10  C   UNL     1      45.580   5.151   8.859  0.00  0.00    +0.000 C 
BRANCH  10  11
ATOM     11  C   UNL     1      44.904   3.898   8.277  0.00  0.00    +0.000 C 
BRANCH  11  12
ATOM     12  C   UNL     1      45.909   2.938   7.700  0.00  0.00    +0.000 A 
ATOM     13  C   UNL     1      46.007   1.638   8.205  0.00  0.00    +0.000 A 
ATOM     14  C   UNL     1      46.964   0.791   7.669  0.00  0.00    +0.000 A 
ATOM     15  N   UNL     1      47.821   1.148   6.689  0.00  0.00    +0.000 NA
ATOM     16  C   UNL     1      47.706   2.407   6.215  0.00  0.00    +0.000 A 
ATOM     17  C   UNL     1      46.779   3.326   6.680  0.00  0.00    +0.000 A 
ENDBRANCH  11  12
ENDBRANCH  10  11
ENDBRANCH   8  10
ENDBRANCH   5   8
ENDBRANCH   1   2
BRANCH   1  20
ATOM     18  C   UNL     1      47.345   4.137  17.145  0.00  0.00    +0.000 C 
ATOM     19  O   UNL     1      46.621   3.215  17.516  0.00  0.00    +0.000 OA
ATOM     20  N   UNL     1      47.710   4.265  15.831  0.00  0.00    +0.000 N 
ATOM     21  H   UNL     1      48.270   5.061  15.537  0.00  0.00    +0.000 HD
BRANCH  18  29
ATOM     22  C   UNL     1      50.488   5.426  17.915  0.00  0.00    +0.000 A 
ATOM     23  N   UNL     1      51.545   6.105  18.403  0.00  0.00    +0.000 NA
ATOM     24  C   UNL     1      51.336   7.037  19.334  0.00  0.00    +0.000 A 
ATOM     25  N   UNL     1      50.164   7.375  19.857  0.00  0.00    +0.000 NA
ATOM     26  C   UNL     1      49.138   6.662  19.361  0.00  0.00    +0.000 A 
ATOM     27  S   UNL     1      47.576   6.960  19.949  0.00  0.00    +0.000 S 
ATOM     28  C   UNL     1      46.909   5.792  18.912  0.00  0.00    +0.000 A 
ATOM     29  C   UNL     1      47.838   5.157  18.096  0.00  0.00    +0.000 A 
ATOM     30  C   UNL     1      49.180   5.671  18.385  0.00  0.00    +0.000 A 
BRANCH  22  32
ATOM     31  C   UNL     1      50.980   3.193  17.576  0.00  0.00    +0.000 C 
ATOM     32  O   UNL     1      50.749   4.458  16.957  0.00  0.00    +0.000 OA
ENDBRANCH  22  32
ENDBRANCH  18  29
ENDBRANCH   1  20
TORSDOF 8
ENDMDL
MODEL 4
REMARK VINA RESULT:    -7.575      1.933      3.345
REMARK INTER + INTRA:         -12.554
REMARK INTER:                 -11.101
REMARK INTRA:                  -1.453
REMARK UNBOUND:                -1.436
REMARK  Name = 
REMARK  9 active torsions:
REMARK  status: ('A' for Active; 'I' for Inactive)
REMARK    1  A    between atoms: C_1  and  O_2
REMARK    2  A    between atoms: O_2  and  C_3
REMARK    3  A    between atoms: C_10  and  C_11
REMARK    4  A    between atoms: N_13  and  C_14
REMARK    5  A    between atoms: C_14  and  C_15
REMARK    6  A    between atoms: C_18  and  N_19
REMARK    7  A    between atoms: N_19  and  C_20
REMARK    8  A    between atoms: C_20  and  C_21
REMARK    9  A    between atoms: C_21  and  C_22
REMARK                            x       y       z     vdW  Elec       q    Type
REMARK                         _______ _______ _______ _____ _____    ______ ____
ROOT
ATOM      1  C   UNL     1      47.158   4.015  14.587  0.00  0.00    +0.000 C 
ENDROOT
BRANCH   1   2
ATOM      2  C   UNL     1      46.224   4.377  13.461  0.00  0.00    +0.000 A 
ATOM      3  C   UNL     1      46.134   5.670  12.936  0.00  0.00    +0.000 A 
ATOM      4  C   UNL     1      45.316   5.927  11.823  0.00  0.00    +0.000 A 
ATOM      5  C   UNL     1      44.625   4.899  11.169  0.00  0.00    +0.000 A 
ATOM      6  C   UNL     1      44.651   3.634  11.749  0.00  0.00    +0.000 A 
ATOM      7  C   UNL     1      45.415   3.381  12.894  0.00  0.00    +0.000 A 
BRANCH   5   8
ATOM      8  N   UNL     1      43.885   5.059   9.988  0.00  0.00    +0.000 N 
ATOM      9  H   UNL     1      43.820   6.040   9.728  0.00  0.00    +0.000 HD
BRANCH   8  10
ATOM     10  C   UNL     1      44.223   4.194   8.856  0.00  0.00    +0.000 C 
BRANCH  10  11
ATOM     11  C   UNL     1      45.670   4.427   8.388  0.00  0.00    +0.000 C 
BRANCH  11  12
ATOM     12  C   UNL     1      46.254   3.200   7.743  0.00  0.00    +0.000 A 
ATOM     13  C   UNL     1      46.097   1.948   8.347  0.00  0.00    +0.000 A 
ATOM     14  C   UNL     1      46.675   0.844   7.739  0.00  0.00    +0.000 A 
ATOM     15  N   UNL     1      47.392   0.903   6.597  0.00  0.00    +0.000 NA
ATOM     16  C   UNL     1      47.528   2.121   6.031  0.00  0.00    +0.000 A 
ATOM     17  C   UNL     1      46.985   3.283   6.557  0.00  0.00    +0.000 A 
ENDBRANCH  11  12
ENDBRANCH  10  11
ENDBRANCH   8  10
ENDBRANCH   5   8
ENDBRANCH   1   2
BRANCH   1  20
ATOM     18  C   UNL     1      48.373   5.074  16.453  0.00  0.00    +0.000 C 
ATOM     19  O   UNL     1      49.007   4.043  16.667  0.00  0.00    +0.000 OA
ATOM     20  N   UNL     1      47.443   5.137  15.449  0.00  0.00    +0.000 N 
ATOM     21  H   UNL     1      46.895   5.984  15.321  0.00  0.00    +0.000 HD
BRANCH  18  29
ATOM     22  C   UNL     1      48.629   8.478  15.762  0.00  0.00    +0.000 A 
ATOM     23  N   UNL     1      48.746   9.820  15.799  0.00  0.00    +0.000 NA
ATOM     24  C   UNL     1      48.887  10.421  16.982  0.00  0.00    +0.000 A 
ATOM     25  N   UNL     1      48.935   9.822  18.166  0.00  0.00    +0.000 NA
ATOM     26  C   UNL     1      48.835   8.484  18.085  0.00  0.00    +0.000 A 
ATOM     27  S   UNL     1      48.905   7.573  19.513  0.00  0.00    +0.000 S 
ATOM     28  C   UNL     1      48.703   6.121  18.655  0.00  0.00    +0.000 A 
ATOM     29  C   UNL     1      48.572   6.284  17.281  0.00  0.00    +0.000 A 
ATOM     30  C   UNL     1      48.671   7.707  16.942  0.00  0.00    +0.000 A 
BRANCH  22  32
ATOM     31  C   UNL     1      49.779   7.606  13.956  0.00  0.00    +0.000 C 
ATOM     32  O   UNL     1      48.495   7.892  14.512  0.00  0.00    +0.000 OA
ENDBRANCH  22  32
ENDBRANCH  18  29
ENDBRANCH   1  20
TORSDOF 8
ENDMDL
MODEL 5
REMARK VINA RESULT:    -7.369      2.384      3.185
REMARK INTER + INTRA:         -12.252
REMARK INTER:                 -10.866
REMARK INTRA:                  -1.386
REMARK UNBOUND:                -1.436
REMARK  Name = 
REMARK  9 active torsions:
REMARK  status: ('A' for Active; 'I' for Inactive)
REMARK    1  A    between atoms: C_1  and  O_2
REMARK    2  A    between atoms: O_2  and  C_3
REMARK    3  A    between atoms: C_10  and  C_11
REMARK    4  A    between atoms: N_13  and  C_14
REMARK    5  A    between atoms: C_14  and  C_15
REMARK    6  A    between atoms: C_18  and  N_19
REMARK    7  A    between atoms: N_19  and  C_20
REMARK    8  A    between atoms: C_20  and  C_21
REMARK    9  A    between atoms: C_21  and  C_22
REMARK                            x       y       z     vdW  Elec       q    Type
REMARK                         _______ _______ _______ _____ _____    ______ ____
ROOT
ATOM      1  C   UNL     1      47.634   4.804  14.411  0.00  0.00    +0.000 C 
ENDROOT
BRANCH   1   2
ATOM      2  C   UNL     1      46.569   4.923  13.351  0.00  0.00    +0.000 A 
ATOM      3  C   UNL     1      46.282   6.125  12.697  0.00  0.00    +0.000 A 
ATOM      4  C   UNL     1      45.344   6.155  11.649  0.00  0.00    +0.000 A 
ATOM      5  C   UNL     1      44.726   4.987  11.188  0.00  0.00    +0.000 A 
ATOM      6  C   UNL     1      44.951   3.812  11.901  0.00  0.00    +0.000 A 
ATOM      7  C   UNL     1      45.837   3.785  12.984  0.00  0.00    +0.000 A 
BRANCH   5   8
ATOM      8  N   UNL     1      43.871   4.920  10.077  0.00  0.00    +0.000 N 
ATOM      9  H   UNL     1      43.653   5.850   9.729  0.00  0.00    +0.000 HD
BRANCH   8  10
ATOM     10  C   UNL     1      44.224   3.983   9.008  0.00  0.00    +0.000 C 
BRANCH  10  11
ATOM     11  C   UNL     1      45.559   4.368   8.347  0.00  0.00    +0.000 C 
BRANCH  11  12
ATOM     12  C   UNL     1      46.259   3.172   7.761  0.00  0.00    +0.000 A 
ATOM     13  C   UNL     1      47.055   3.313   6.621  0.00  0.00    +0.000 A 
ATOM     14  C   UNL     1      47.659   2.184   6.092  0.00  0.00    +0.000 A 
ATOM     15  N   UNL     1      47.520   0.944   6.608  0.00  0.00    +0.000 NA
ATOM     16  C   UNL     1      46.749   0.832   7.711  0.00  0.00    +0.000 A 
ATOM     17  C   UNL     1      46.107   1.900   8.317  0.00  0.00    +0.000 A 
ENDBRANCH  11  12
ENDBRANCH  10  11
ENDBRANCH   8  10
ENDBRANCH   5   8
ENDBRANCH   1   2
BRANCH   1  20
ATOM     18  C   UNL     1      48.697   6.789  15.417  0.00  0.00    +0.000 C 
ATOM     19  O   UNL     1      49.705   6.636  14.731  0.00  0.00    +0.000 OA
ATOM     20  N   UNL     1      47.637   5.928  15.319  0.00  0.00    +0.000 N 
ATOM     21  H   UNL     1      46.833   6.044  15.930  0.00  0.00    +0.000 HD
BRANCH  18  29
ATOM     22  C   UNL     1      47.896   6.987  18.801  0.00  0.00    +0.000 A 
ATOM     23  N   UNL     1      47.646   7.360  20.072  0.00  0.00    +0.000 NA
ATOM     24  C   UNL     1      47.758   8.650  20.396  0.00  0.00    +0.000 A 
ATOM     25  N   UNL     1      48.091   9.639  19.576  0.00  0.00    +0.000 NA
ATOM     26  C   UNL     1      48.311   9.229  18.315  0.00  0.00    +0.000 A 
ATOM     27  S   UNL     1      48.721  10.383  17.142  0.00  0.00    +0.000 S 
ATOM     28  C   UNL     1      48.847   9.188  15.941  0.00  0.00    +0.000 A 
ATOM     29  C   UNL     1      48.592   7.898  16.391  0.00  0.00    +0.000 A 
ATOM     30  C   UNL     1      48.251   7.932  17.816  0.00  0.00    +0.000 A 
BRANCH  22  32
ATOM     31  C   UNL     1      48.957   4.932  18.823  0.00  0.00    +0.000 C 
ATOM     32  O   UNL     1      47.758   5.639  18.503  0.00  0.00    +0.000 OA
ENDBRANCH  22  32
ENDBRANCH  18  29
ENDBRANCH   1  20
TORSDOF 8
ENDMDL
MODEL 6
REMARK VINA RESULT:    -6.962      1.980      2.770
REMARK INTER + INTRA:         -11.655
REMARK INTER:                 -10.512
REMARK INTRA:                  -1.142
REMARK UNBOUND:                -1.436
REMARK  Name = 
REMARK  9 active torsions:
REMARK  status: ('A' for Active; 'I' for Inactive)
REMARK    1  A    between atoms: C_1  and  O_2
REMARK    2  A    between atoms: O_2  and  C_3
REMARK    3  A    between atoms: C_10  and  C_11
REMARK    4  A    between atoms: N_13  and  C_14
REMARK    5  A    between atoms: C_14  and  C_15
REMARK    6  A    between atoms: C_18  and  N_19
REMARK    7  A    between atoms: N_19  and  C_20
REMARK    8  A    between atoms: C_20  and  C_21
REMARK    9  A    between atoms: C_21  and  C_22
REMARK                            x       y       z     vdW  Elec       q    Type
REMARK                         _______ _______ _______ _____ _____    ______ ____
ROOT
ATOM      1  C   UNL     1      47.919   8.389  14.321  0.00  0.00    +0.000 C 
ENDROOT
BRANCH   1   2
ATOM      2  C   UNL     1      46.997   7.734  13.324  0.00  0.00    +0.000 A 
ATOM      3  C   UNL     1      45.941   8.412  12.708  0.00  0.00    +0.000 A 
ATOM      4  C   UNL     1      45.175   7.777  11.716  0.00  0.00    +0.000 A 
ATOM      5  C   UNL     1      45.482   6.486  11.269  0.00  0.00    +0.000 A 
ATOM      6  C   UNL     1      46.477   5.788  11.946  0.00  0.00    +0.000 A 
ATOM      7  C   UNL     1      47.206   6.391  12.978  0.00  0.00    +0.000 A 
BRANCH   5   8
ATOM      8  N   UNL     1      44.838   5.834  10.206  0.00  0.00    +0.000 N 
ATOM      9  H   UNL     1      44.179   6.455   9.743  0.00  0.00    +0.000 HD
BRANCH   8  10
ATOM     10  C   UNL     1      45.675   5.091   9.262  0.00  0.00    +0.000 C 
BRANCH  10  11
ATOM     11  C   UNL     1      45.032   3.746   8.883  0.00  0.00    +0.000 C 
BRANCH  11  12
ATOM     12  C   UNL     1      45.994   2.853   8.149  0.00  0.00    +0.000 A 
ATOM     13  C   UNL     1      46.921   3.402   7.258  0.00  0.00    +0.000 A 
ATOM     14  C   UNL     1      47.770   2.546   6.576  0.00  0.00    +0.000 A 
ATOM     15  N   UNL     1      47.754   1.203   6.712  0.00  0.00    +0.000 NA
ATOM     16  C   UNL     1      46.852   0.695   7.579  0.00  0.00    +0.000 A 
ATOM     17  C   UNL     1      45.964   1.467   8.312  0.00  0.00    +0.000 A 
ENDBRANCH  11  12
ENDBRANCH  10  11
ENDBRANCH   8  10
ENDBRANCH   5   8
ENDBRANCH   1   2
BRANCH   1  20
ATOM     18  C   UNL     1      49.422   7.297  15.942  0.00  0.00    +0.000 C 
ATOM     19  O   UNL     1      50.414   7.760  15.383  0.00  0.00    +0.000 OA
ATOM     20  N   UNL     1      48.161   7.559  15.477  0.00  0.00    +0.000 N 
ATOM     21  H   UNL     1      47.357   7.127  15.926  0.00  0.00    +0.000 HD
BRANCH  18  29
ATOM     22  C   UNL     1      47.930   7.239  19.089  0.00  0.00    +0.000 A 
ATOM     23  N   UNL     1      47.520   6.963  20.343  0.00  0.00    +0.000 NA
ATOM     24  C   UNL     1      48.028   5.898  20.965  0.00  0.00    +0.000 A 
ATOM     25  N   UNL     1      48.928   5.056  20.472  0.00  0.00    +0.000 NA
ATOM     26  C   UNL     1      49.327   5.377  19.229  0.00  0.00    +0.000 A 
ATOM     27  S   UNL     1      50.496   4.410  18.472  0.00  0.00    +0.000 S 
ATOM     28  C   UNL     1      50.445   5.363  17.067  0.00  0.00    +0.000 A 
ATOM     29  C   UNL     1      49.548   6.423  17.129  0.00  0.00    +0.000 A 
ATOM     30  C   UNL     1      48.892   6.437  18.440  0.00  0.00    +0.000 A 
BRANCH  22  32
ATOM     31  C   UNL     1      48.158   9.521  18.797  0.00  0.00    +0.000 C 
ATOM     32  O   UNL     1      47.387   8.361  18.482  0.00  0.00    +0.000 OA
ENDBRANCH  22  32
ENDBRANCH  18  29
ENDBRANCH   1  20
TORSDOF 8
ENDMDL
MODEL 7
REMARK VINA RESULT:    -6.893      3.274      7.631
REMARK INTER + INTRA:         -11.554
REMARK INTER:                  -9.918
REMARK INTRA:                  -1.636
REMARK UNBOUND:                -1.436
REMARK  Name = 
REMARK  9 active torsions:
REMARK  status: ('A' for Active; 'I' for Inactive)
REMARK    1  A    between atoms: C_1  and  O_2
REMARK    2  A    between atoms: O_2  and  C_3
REMARK    3  A    between atoms: C_10  and  C_11
REMARK    4  A    between atoms: N_13  and  C_14
REMARK    5  A    between atoms: C_14  and  C_15
REMARK    6  A    between atoms: C_18  and  N_19
REMARK    7  A    between atoms: N_19  and  C_20
REMARK    8  A    between atoms: C_20  and  C_21
REMARK    9  A    between atoms: C_21  and  C_22
REMARK                            x       y       z     vdW  Elec       q    Type
REMARK                         _______ _______ _______ _____ _____    ______ ____
ROOT
ATOM      1  C   UNL     1      48.386   8.154  11.861  0.00  0.00    +0.000 C 
ENDROOT
BRANCH   1   2
ATOM      2  C   UNL     1      48.567   8.045  13.354  0.00  0.00    +0.000 A 
ATOM      3  C   UNL     1      48.203   9.065  14.238  0.00  0.00    +0.000 A 
ATOM      4  C   UNL     1      48.306   8.869  15.626  0.00  0.00    +0.000 A 
ATOM      5  C   UNL     1      48.708   7.640  16.163  0.00  0.00    +0.000 A 
ATOM      6  C   UNL     1      49.151   6.662  15.277  0.00  0.00    +0.000 A 
ATOM      7  C   UNL     1      49.109   6.870  13.894  0.00  0.00    +0.000 A 
BRANCH   5   8
ATOM      8  N   UNL     1      48.724   7.333  17.533  0.00  0.00    +0.000 N 
ATOM      9  H   UNL     1      47.810   7.018  17.847  0.00  0.00    +0.000 HD
BRANCH   8  10
ATOM     10  C   UNL     1      49.814   6.485  18.023  0.00  0.00    +0.000 C 
BRANCH  10  11
ATOM     11  C   UNL     1      49.271   5.250  18.760  0.00  0.00    +0.000 C 
BRANCH  11  12
ATOM     12  C   UNL     1      49.311   4.019  17.895  0.00  0.00    +0.000 A 
ATOM     13  C   UNL     1      50.484   3.264  17.802  0.00  0.00    +0.000 A 
ATOM     14  C   UNL     1      50.492   2.155  16.971  0.00  0.00    +0.000 A 
ATOM     15  N   UNL     1      49.434   1.759  16.233  0.00  0.00    +0.000 NA
ATOM     16  C   UNL     1      48.311   2.502  16.341  0.00  0.00    +0.000 A 
ATOM     17  C   UNL     1      48.201   3.624  17.147  0.00  0.00    +0.000 A 
ENDBRANCH  11  12
ENDBRANCH  10  11
ENDBRANCH   8  10
ENDBRANCH   5   8
ENDBRANCH   1   2
BRANCH   1  20
ATOM     18  C   UNL     1      46.300   6.937  11.366  0.00  0.00    +0.000 C 
ATOM     19  O   UNL     1      45.624   7.815  11.899  0.00  0.00    +0.000 OA
ATOM     20  N   UNL     1      47.665   7.031  11.310  0.00  0.00    +0.000 N 
ATOM     21  H   UNL     1      48.207   6.272  10.907  0.00  0.00    +0.000 HD
BRANCH  18  29
ATOM     22  C   UNL     1      44.462   4.276  12.657  0.00  0.00    +0.000 A 
ATOM     23  N   UNL     1      43.732   3.161  12.864  0.00  0.00    +0.000 NA
ATOM     24  C   UNL     1      43.408   2.402  11.816  0.00  0.00    +0.000 A 
ATOM     25  N   UNL     1      43.743   2.625  10.551  0.00  0.00    +0.000 NA
ATOM     26  C   UNL     1      44.487   3.733  10.390  0.00  0.00    +0.000 A 
ATOM     27  S   UNL     1      45.017   4.141   8.831  0.00  0.00    +0.000 S 
ATOM     28  C   UNL     1      45.794   5.537   9.407  0.00  0.00    +0.000 A 
ATOM     29  C   UNL     1      45.670   5.735  10.777  0.00  0.00    +0.000 A 
ATOM     30  C   UNL     1      44.898   4.636  11.365  0.00  0.00    +0.000 A 
BRANCH  22  32
ATOM     31  C   UNL     1      46.115   4.738  14.206  0.00  0.00    +0.000 C 
ATOM     32  O   UNL     1      44.786   5.031  13.774  0.00  0.00    +0.000 OA
ENDBRANCH  22  32
ENDBRANCH  18  29
ENDBRANCH   1  20
TORSDOF 8
ENDMDL
MODEL 8
REMARK VINA RESULT:    -6.676      3.697      8.459
REMARK INTER + INTRA:         -11.235
REMARK INTER:                  -9.599
REMARK INTRA:                  -1.636
REMARK UNBOUND:                -1.436
REMARK  Name = 
REMARK  9 active torsions:
REMARK  status: ('A' for Active; 'I' for Inactive)
REMARK    1  A    between atoms: C_1  and  O_2
REMARK    2  A    between atoms: O_2  and  C_3
REMARK    3  A    between atoms: C_10  and  C_11
REMARK    4  A    between atoms: N_13  and  C_14
REMARK    5  A    between atoms: C_14  and  C_15
REMARK    6  A    between atoms: C_18  and  N_19
REMARK    7  A    between atoms: N_19  and  C_20
REMARK    8  A    between atoms: C_20  and  C_21
REMARK    9  A    between atoms: C_21  and  C_22
REMARK                            x       y       z     vdW  Elec       q    Type
REMARK                         _______ _______ _______ _____ _____    ______ ____
ROOT
ATOM      1  C   UNL     1      47.216   3.307  17.043  0.00  0.00    +0.000 C 
ENDROOT
BRANCH   1   2
ATOM      2  C   UNL     1      48.606   3.462  17.604  0.00  0.00    +0.000 A 
ATOM      3  C   UNL     1      49.692   2.702  17.160  0.00  0.00    +0.000 A 
ATOM      4  C   UNL     1      50.984   2.957  17.652  0.00  0.00    +0.000 A 
ATOM      5  C   UNL     1      51.233   4.011  18.539  0.00  0.00    +0.000 A 
ATOM      6  C   UNL     1      50.137   4.705  19.042  0.00  0.00    +0.000 A 
ATOM      7  C   UNL     1      48.839   4.418  18.604  0.00  0.00    +0.000 A 
BRANCH   5   8
ATOM      8  N   UNL     1      52.507   4.398  18.982  0.00  0.00    +0.000 N 
ATOM      9  H   UNL     1      53.178   3.641  18.871  0.00  0.00    +0.000 HD
BRANCH   8  10
ATOM     10  C   UNL     1      53.024   5.686  18.512  0.00  0.00    +0.000 C 
BRANCH  10  11
ATOM     11  C   UNL     1      53.488   5.601  17.048  0.00  0.00    +0.000 C 
BRANCH  11  12
ATOM     12  C   UNL     1      52.763   6.588  16.174  0.00  0.00    +0.000 A 
ATOM     13  C   UNL     1      51.368   6.679  16.224  0.00  0.00    +0.000 A 
ATOM     14  C   UNL     1      50.734   7.578  15.383  0.00  0.00    +0.000 A 
ATOM     15  N   UNL     1      51.381   8.372  14.504  0.00  0.00    +0.000 NA
ATOM     16  C   UNL     1      52.727   8.270  14.475  0.00  0.00    +0.000 A 
ATOM     17  C   UNL     1      53.454   7.406  15.279  0.00  0.00    +0.000 A 
ENDBRANCH  11  12
ENDBRANCH  10  11
ENDBRANCH   8  10
ENDBRANCH   5   8
ENDBRANCH   1   2
BRANCH   1  20
ATOM     18  C   UNL     1      47.028   4.128  14.725  0.00  0.00    +0.000 C 
ATOM     19  O   UNL     1      47.435   3.057  14.280  0.00  0.00    +0.000 OA
ATOM     20  N   UNL     1      46.895   4.328  16.073  0.00  0.00    +0.000 N 
ATOM     21  H   UNL     1      46.602   5.237  16.423  0.00  0.00    +0.000 HD
BRANCH  18  29
ATOM     22  C   UNL     1      44.266   4.894  12.746  0.00  0.00    +0.000 A 
ATOM     23  N   UNL     1      43.354   5.447  11.922  0.00  0.00    +0.000 NA
ATOM     24  C   UNL     1      43.623   6.630  11.367  0.00  0.00    +0.000 A 
ATOM     25  N   UNL     1      44.730   7.342  11.535  0.00  0.00    +0.000 NA
ATOM     26  C   UNL     1      45.623   6.748  12.346  0.00  0.00    +0.000 A 
ATOM     27  S   UNL     1      47.101   7.524  12.639  0.00  0.00    +0.000 S 
ATOM     28  C   UNL     1      47.608   6.275  13.672  0.00  0.00    +0.000 A 
ATOM     29  C   UNL     1      46.680   5.251  13.827  0.00  0.00    +0.000 A 
ATOM     30  C   UNL     1      45.495   5.533  13.011  0.00  0.00    +0.000 A 
BRANCH  22  32
ATOM     31  C   UNL     1      43.555   2.746  12.271  0.00  0.00    +0.000 C 
ATOM     32  O   UNL     1      43.952   3.660  13.294  0.00  0.00    +0.000 OA
ENDBRANCH  22  32
ENDBRANCH  18  29
ENDBRANCH   1  20
TORSDOF 8
ENDMDL
MODEL 9
REMARK VINA RESULT:    -6.523      4.220      8.988
REMARK INTER + INTRA:         -11.010
REMARK INTER:                  -9.867
REMARK INTRA:                  -1.143
REMARK UNBOUND:                -1.436
REMARK  Name = 
REMARK  9 active torsions:
REMARK  status: ('A' for Active; 'I' for Inactive)
REMARK    1  A    between atoms: C_1  and  O_2
REMARK    2  A    between atoms: O_2  and  C_3
REMARK    3  A    between atoms: C_10  and  C_11
REMARK    4  A    between atoms: N_13  and  C_14
REMARK    5  A    between atoms: C_14  and  C_15
REMARK    6  A    between atoms: C_18  and  N_19
REMARK    7  A    between atoms: N_19  and  C_20
REMARK    8  A    between atoms: C_20  and  C_21
REMARK    9  A    between atoms: C_21  and  C_22
REMARK                            x       y       z     vdW  Elec       q    Type
REMARK                         _______ _______ _______ _____ _____    ______ ____
ROOT
ATOM      1  C   UNL     1      47.237   3.279  16.935  0.00  0.00    +0.000 C 
ENDROOT
BRANCH   1   2
ATOM      2  C   UNL     1      48.683   3.340  17.359  0.00  0.00    +0.000 A 
ATOM      3  C   UNL     1      49.609   2.342  17.040  0.00  0.00    +0.000 A 
ATOM      4  C   UNL     1      50.964   2.499  17.379  0.00  0.00    +0.000 A 
ATOM      5  C   UNL     1      51.436   3.672  17.980  0.00  0.00    +0.000 A 
ATOM      6  C   UNL     1      50.496   4.620  18.373  0.00  0.00    +0.000 A 
ATOM      7  C   UNL     1      49.136   4.445  18.093  0.00  0.00    +0.000 A 
BRANCH   5   8
ATOM      8  N   UNL     1      52.787   3.948  18.243  0.00  0.00    +0.000 N 
ATOM      9  H   UNL     1      52.935   4.944  18.383  0.00  0.00    +0.000 HD
BRANCH   8  10
ATOM     10  C   UNL     1      53.461   3.128  19.252  0.00  0.00    +0.000 C 
BRANCH  10  11
ATOM     11  C   UNL     1      54.904   2.801  18.833  0.00  0.00    +0.000 C 
BRANCH  11  12
ATOM     12  C   UNL     1      54.951   1.731  17.775  0.00  0.00    +0.000 A 
ATOM     13  C   UNL     1      54.214   0.554  17.935  0.00  0.00    +0.000 A 
ATOM     14  C   UNL     1      54.305  -0.422  16.955  0.00  0.00    +0.000 A 
ATOM     15  N   UNL     1      55.074  -0.310  15.851  0.00  0.00    +0.000 NA
ATOM     16  C   UNL     1      55.775   0.837  15.716  0.00  0.00    +0.000 A 
ATOM     17  C   UNL     1      55.747   1.872  16.637  0.00  0.00    +0.000 A 
ENDBRANCH  11  12
ENDBRANCH  10  11
ENDBRANCH   8  10
ENDBRANCH   5   8
ENDBRANCH   1   2
BRANCH   1  20
ATOM     18  C   UNL     1      47.000   4.132  14.634  0.00  0.00    +0.000 C 
ATOM     19  O   UNL     1      47.396   3.067  14.165  0.00  0.00    +0.000 OA
ATOM     20  N   UNL     1      46.897   4.314  15.987  0.00  0.00    +0.000 N 
ATOM     21  H   UNL     1      46.613   5.218  16.355  0.00  0.00    +0.000 HD
BRANCH  18  29
ATOM     22  C   UNL     1      44.207   4.917  12.707  0.00  0.00    +0.000 A 
ATOM     23  N   UNL     1      43.281   5.478  11.905  0.00  0.00    +0.000 NA
ATOM     24  C   UNL     1      43.536   6.671  11.365  0.00  0.00    +0.000 A 
ATOM     25  N   UNL     1      44.642   7.386  11.529  0.00  0.00    +0.000 NA
ATOM     26  C   UNL     1      45.549   6.783  12.317  0.00  0.00    +0.000 A 
ATOM     27  S   UNL     1      47.028   7.562  12.603  0.00  0.00    +0.000 S 
ATOM     28  C   UNL     1      47.555   6.298  13.608  0.00  0.00    +0.000 A 
ATOM     29  C   UNL     1      46.635   5.267  13.759  0.00  0.00    +0.000 A 
ATOM     30  C   UNL     1      45.437   5.557  12.965  0.00  0.00    +0.000 A 
BRANCH  22  32
ATOM     31  C   UNL     1      43.447   2.789  12.215  0.00  0.00    +0.000 C 
ATOM     32  O   UNL     1      43.907   3.672  13.239  0.00  0.00    +0.000 OA
ENDBRANCH  22  32
ENDBRANCH  18  29
ENDBRANCH   1  20
TORSDOF 8
ENDMDL
