MODEL 1
REMARK VINA RESULT:    -8.265      0.000      0.000
REMARK INTER + INTRA:         -13.037
REMARK INTER:                 -12.131
REMARK INTRA:                  -0.906
REMARK UNBOUND:                -0.906
REMARK  Name = 
REMARK  9 active torsions:
REMARK  status: ('A' for Active; 'I' for Inactive)
REMARK    1  A    between atoms: C_1  and  C_2
REMARK    2  A    between atoms: C_2  and  C_3
REMARK    3  A    between atoms: C_3  and  N_4
REMARK    4  A    between atoms: C_3  and  C_26
REMARK    5  A    between atoms: N_4  and  C_5
REMARK    6  A    between atoms: C_5  and  C_6
REMARK    7  A    between atoms: C_9  and  C_10
REMARK    8  A    between atoms: C_10  and  N_11
REMARK    9  A    between atoms: C_12  and  C_14
REMARK                            x       y       z     vdW  Elec       q    Type
REMARK                         _______ _______ _______ _____ _____    ______ ____
ROOT
ATOM      1  C   UNL     1      44.145   6.686  11.682  0.00  0.00    +0.000 A 
ATOM      2  C   UNL     1      44.494   7.965  11.248  0.00  0.00    +0.000 A 
ATOM      3  C   UNL     1      45.564   8.615  11.854  0.00  0.00    +0.000 A 
ATOM      4  C   UNL     1      46.260   7.975  12.881  0.00  0.00    +0.000 A 
ATOM      5  C   UNL     1      45.806   6.722  13.281  0.00  0.00    +0.000 A 
ATOM      6  N   UNL     1      44.778   6.064  12.704  0.00  0.00    +0.000 NA
ENDROOT
BRANCH   1   7
ATOM      7  C   UNL     1      43.023   5.933  10.997  0.00  0.00    +0.000 C 
BRANCH   7   8
ATOM      8  N   UNL     1      43.522   5.127   9.874  0.00  0.00    +0.000 NA
ATOM      9  H   UNL     1      44.085   5.746   9.284  0.00  0.00    +0.000 HD
BRANCH   8  10
ATOM     10  C   UNL     1      44.387   4.003  10.292  0.00  0.00    +0.000 C 
BRANCH  10  11
ATOM     11  C   UNL     1      45.179   3.464   9.093  0.00  0.00    +0.000 A 
ATOM     12  C   UNL     1      45.428   2.094   8.973  0.00  0.00    +0.000 A 
ATOM     13  C   UNL     1      46.315   1.648   8.001  0.00  0.00    +0.000 A 
ATOM     14  C   UNL     1      46.907   2.569   7.149  0.00  0.00    +0.000 A 
ATOM     15  C   UNL     1      46.564   3.903   7.291  0.00  0.00    +0.000 A 
ATOM     16  N   UNL     1      45.722   4.372   8.241  0.00  0.00    +0.000 NA
ENDBRANCH  10  11
BRANCH  10  18
ATOM     17  C   UNL     1      43.682   2.754  12.442  0.00  0.00    +0.000 C 
ATOM     18  C   UNL     1      43.565   2.854  10.926  0.00  0.00    +0.000 C 
ENDBRANCH  10  18
ENDBRANCH   8  10
ENDBRANCH   7   8
ENDBRANCH   1   7
BRANCH   4  19
ATOM     19  C   UNL     1      47.433   8.608  13.561  0.00  0.00    +0.000 C 
BRANCH  19  20
ATOM     20  N   UNL     1      47.741   7.941  14.798  0.00  0.00    +0.000 N 
ATOM     21  C   UNL     1      48.664   6.932  14.841  0.00  0.00    +0.000 C 
ATOM     22  O   UNL     1      49.291   6.580  13.845  0.00  0.00    +0.000 OA
ATOM     23  H   UNL     1      47.085   8.051  15.566  0.00  0.00    +0.000 HD
BRANCH  21  24
ATOM     24  C   UNL     1      48.910   6.328  16.157  0.00  0.00    +0.000 A 
ATOM     25  C   UNL     1      49.775   6.954  17.046  0.00  0.00    +0.000 A 
ATOM     26  S   UNL     1      49.924   6.142  18.537  0.00  0.00    +0.000 S 
ATOM     27  C   UNL     1      48.877   4.899  18.028  0.00  0.00    +0.000 A 
ATOM     28  N   UNL     1      48.599   3.845  18.838  0.00  0.00    +0.000 NA
ATOM     29  C   UNL     1      47.814   2.961  18.314  0.00  0.00    +0.000 A 
ATOM     30  N   UNL     1      47.273   3.046  17.058  0.00  0.00    +0.000 N 
ATOM     31  C   UNL     1      47.496   4.112  16.217  0.00  0.00    +0.000 A 
ATOM     32  O   UNL     1      46.951   4.188  15.125  0.00  0.00    +0.000 OA
ATOM     33  C   UNL     1      48.397   5.120  16.751  0.00  0.00    +0.000 A 
ATOM     34  H   UNL     1      46.651   2.330  16.714  0.00  0.00    +0.000 HD
ENDBRANCH  21  24
ENDBRANCH  19  20
ENDBRANCH   4  19
TORSDOF 8
ENDMDL
MODEL 2
REMARK VINA RESULT:    -7.415      2.878      8.121
REMARK INTER + INTRA:         -11.789
REMARK INTER:                 -10.324
REMARK INTRA:                  -1.465
REMARK UNBOUND:                -0.906
REMARK  Name = 
REMARK  9 active torsions:
REMARK  status: ('A' for Active; 'I' for Inactive)
REMARK    1  A    between atoms: C_1  and  C_2
REMARK    2  A    between atoms: C_2  and  C_3
REMARK    3  A    between atoms: C_3  and  N_4
REMARK    4  A    between atoms: C_3  and  C_26
REMARK    5  A    between atoms: N_4  and  C_5
REMARK    6  A    between atoms: C_5  and  C_6
REMARK    7  A    between atoms: C_9  and  C_10
REMARK    8  A    between atoms: C_10  and  N_11
REMARK    9  A    between atoms: C_12  and  C_14
REMARK                            x       y       z     vdW  Elec       q    Type
REMARK                         _______ _______ _______ _____ _____    ______ ____
ROOT
ATOM      1  C   UNL     1      48.978   7.639  15.922  0.00  0.00    +0.000 A 
ATOM      2  C   UNL     1      48.444   8.856  15.496  0.00  0.00    +0.000 A 
ATOM      3  C   UNL     1      47.865   8.934  14.234  0.00  0.00    +0.000 A 
ATOM      4  C   UNL     1      47.832   7.797  13.425  0.00  0.00    +0.000 A 
ATOM      5  C   UNL     1      48.436   6.643  13.914  0.00  0.00    +0.000 A 
ATOM      6  N   UNL     1      48.996   6.536  15.138  0.00  0.00    +0.000 NA
ENDROOT
BRANCH   1   7
ATOM      7  C   UNL     1      49.559   7.512  17.314  0.00  0.00    +0.000 C 
BRANCH   7   8
ATOM      8  N   UNL     1      48.504   7.374  18.328  0.00  0.00    +0.000 NA
ATOM      9  H   UNL     1      47.618   7.260  17.829  0.00  0.00    +0.000 HD
BRANCH   8  10
ATOM     10  C   UNL     1      48.676   6.196  19.204  0.00  0.00    +0.000 C 
BRANCH  10  11
ATOM     11  C   UNL     1      48.473   4.902  18.404  0.00  0.00    +0.000 A 
ATOM     12  C   UNL     1      49.533   4.006  18.235  0.00  0.00    +0.000 A 
ATOM     13  C   UNL     1      49.393   2.949  17.342  0.00  0.00    +0.000 A 
ATOM     14  C   UNL     1      48.192   2.789  16.666  0.00  0.00    +0.000 A 
ATOM     15  C   UNL     1      47.168   3.683  16.932  0.00  0.00    +0.000 A 
ATOM     16  N   UNL     1      47.281   4.734  17.777  0.00  0.00    +0.000 NA
ENDBRANCH  10  11
BRANCH  10  18
ATOM     17  C   UNL     1      47.527   7.591  21.051  0.00  0.00    +0.000 C 
ATOM     18  C   UNL     1      47.692   6.224  20.399  0.00  0.00    +0.000 C 
ENDBRANCH  10  18
ENDBRANCH   8  10
ENDBRANCH   7   8
ENDBRANCH   1   7
BRANCH   4  19
ATOM     19  C   UNL     1      47.205   7.806  12.066  0.00  0.00    +0.000 C 
BRANCH  19  20
ATOM     20  N   UNL     1      46.584   6.542  11.771  0.00  0.00    +0.000 N 
ATOM     21  C   UNL     1      45.223   6.433  11.679  0.00  0.00    +0.000 C 
ATOM     22  O   UNL     1      44.482   7.404  11.807  0.00  0.00    +0.000 OA
ATOM     23  H   UNL     1      47.146   5.704  11.889  0.00  0.00    +0.000 HD
BRANCH  21  24
ATOM     24  C   UNL     1      44.696   5.100  11.361  0.00  0.00    +0.000 A 
ATOM     25  C   UNL     1      43.918   4.431  12.299  0.00  0.00    +0.000 A 
ATOM     26  S   UNL     1      43.360   2.913  11.762  0.00  0.00    +0.000 S 
ATOM     27  C   UNL     1      44.180   3.074  10.278  0.00  0.00    +0.000 A 
ATOM     28  N   UNL     1      44.144   2.084   9.348  0.00  0.00    +0.000 NA
ATOM     29  C   UNL     1      44.834   2.326   8.282  0.00  0.00    +0.000 A 
ATOM     30  N   UNL     1      45.545   3.477   8.059  0.00  0.00    +0.000 N 
ATOM     31  C   UNL     1      45.581   4.521   8.954  0.00  0.00    +0.000 A 
ATOM     32  O   UNL     1      46.176   5.559   8.701  0.00  0.00    +0.000 OA
ATOM     33  C   UNL     1      44.842   4.284  10.184  0.00  0.00    +0.000 A 
ATOM     34  H   UNL     1      46.049   3.613   7.196  0.00  0.00    +0.000 HD
ENDBRANCH  21  24
ENDBRANCH  19  20
ENDBRANCH   4  19
TORSDOF 8
ENDMDL
MODEL 3
REMARK VINA RESULT:    -7.219      1.504      1.854
REMARK INTER + INTRA:         -11.501
REMARK INTER:                 -10.343
REMARK INTRA:                  -1.158
REMARK UNBOUND:                -0.906
REMARK  Name = 
REMARK  9 active torsions:
REMARK  status: ('A' for Active; 'I' for Inactive)
REMARK    1  A    between atoms: C_1  and  C_2
REMARK    2  A    between atoms: C_2  and  C_3
REMARK    3  A    between atoms: C_3  and  N_4
REMARK    4  A    between atoms: C_3  and  C_26
REMARK    5  A    between atoms: N_4  and  C_5
REMARK    6  A    between atoms: C_5  and  C_6
REMARK    7  A    between atoms: C_9  and  C_10
REMARK    8  A    between atoms: C_10  and  N_11
REMARK    9  A    between atoms: C_12  and  C_14
REMARK                            x       y       z     vdW  Elec       q    Type
REMARK                         _______ _______ _______ _____ _____    ______ ____
ROOT
ATOM      1  C   UNL     1      45.963   7.424  12.024  0.00  0.00    +0.000 A 
ATOM      2  C   UNL     1      47.190   6.800  11.797  0.00  0.00    +0.000 A 
ATOM      3  C   UNL     1      48.292   7.183  12.555  0.00  0.00    +0.000 A 
ATOM      4  C   UNL     1      48.144   8.178  13.522  0.00  0.00    +0.000 A 
ATOM      5  C   UNL     1      46.895   8.779  13.641  0.00  0.00    +0.000 A 
ATOM      6  N   UNL     1      45.807   8.422  12.925  0.00  0.00    +0.000 NA
ENDROOT
BRANCH   1   7
ATOM      7  C   UNL     1      44.735   6.985  11.253  0.00  0.00    +0.000 C 
BRANCH   7   8
ATOM      8  N   UNL     1      45.090   6.106  10.130  0.00  0.00    +0.000 NA
ATOM      9  H   UNL     1      46.080   6.264   9.922  0.00  0.00    +0.000 HD
BRANCH   8  10
ATOM     10  C   UNL     1      44.924   4.668  10.430  0.00  0.00    +0.000 C 
BRANCH  10  11
ATOM     11  C   UNL     1      45.369   3.817   9.233  0.00  0.00    +0.000 A 
ATOM     12  C   UNL     1      45.338   2.422   9.310  0.00  0.00    +0.000 A 
ATOM     13  C   UNL     1      45.934   1.672   8.303  0.00  0.00    +0.000 A 
ATOM     14  C   UNL     1      46.517   2.326   7.226  0.00  0.00    +0.000 A 
ATOM     15  C   UNL     1      46.455   3.709   7.191  0.00  0.00    +0.000 A 
ATOM     16  N   UNL     1      45.902   4.467   8.166  0.00  0.00    +0.000 NA
ENDBRANCH  10  11
BRANCH  10  18
ATOM     17  C   UNL     1      43.287   3.559  12.095  0.00  0.00    +0.000 C 
ATOM     18  C   UNL     1      43.457   4.325  10.789  0.00  0.00    +0.000 C 
ENDBRANCH  10  18
ENDBRANCH   8  10
ENDBRANCH   7   8
ENDBRANCH   1   7
BRANCH   4  19
ATOM     19  C   UNL     1      49.282   8.621  14.387  0.00  0.00    +0.000 C 
BRANCH  19  20
ATOM     20  N   UNL     1      49.381   7.810  15.572  0.00  0.00    +0.000 N 
ATOM     21  C   UNL     1      48.785   8.200  16.741  0.00  0.00    +0.000 C 
ATOM     22  O   UNL     1      48.115   9.226  16.820  0.00  0.00    +0.000 OA
ATOM     23  H   UNL     1      50.104   7.097  15.594  0.00  0.00    +0.000 HD
BRANCH  21  24
ATOM     24  C   UNL     1      48.939   7.293  17.885  0.00  0.00    +0.000 A 
ATOM     25  C   UNL     1      49.326   7.806  19.117  0.00  0.00    +0.000 A 
ATOM     26  S   UNL     1      49.427   6.627  20.345  0.00  0.00    +0.000 S 
ATOM     27  C   UNL     1      49.006   5.383  19.261  0.00  0.00    +0.000 A 
ATOM     28  N   UNL     1      48.944   4.090  19.672  0.00  0.00    +0.000 NA
ATOM     29  C   UNL     1      48.642   3.246  18.740  0.00  0.00    +0.000 A 
ATOM     30  N   UNL     1      48.383   3.585  17.437  0.00  0.00    +0.000 N 
ATOM     31  C   UNL     1      48.397   4.883  16.983  0.00  0.00    +0.000 A 
ATOM     32  O   UNL     1      48.103   5.160  15.829  0.00  0.00    +0.000 OA
ATOM     33  C   UNL     1      48.761   5.868  17.990  0.00  0.00    +0.000 A 
ATOM     34  H   UNL     1      48.133   2.879  16.760  0.00  0.00    +0.000 HD
ENDBRANCH  21  24
ENDBRANCH  19  20
ENDBRANCH   4  19
TORSDOF 8
ENDMDL
MODEL 4
REMARK VINA RESULT:    -6.912      4.290      9.510
REMARK INTER + INTRA:         -11.051
REMARK INTER:                  -9.897
REMARK INTRA:                  -1.154
REMARK UNBOUND:                -0.906
REMARK  Name = 
REMARK  9 active torsions:
REMARK  status: ('A' for Active; 'I' for Inactive)
REMARK    1  A    between atoms: C_1  and  C_2
REMARK    2  A    between atoms: C_2  and  C_3
REMARK    3  A    between atoms: C_3  and  N_4
REMARK    4  A    between atoms: C_3  and  C_26
REMARK    5  A    between atoms: N_4  and  C_5
REMARK    6  A    between atoms: C_5  and  C_6
REMARK    7  A    between atoms: C_9  and  C_10
REMARK    8  A    between atoms: C_10  and  N_11
REMARK    9  A    between atoms: C_12  and  C_14
REMARK                            x       y       z     vdW  Elec       q    Type
REMARK                         _______ _______ _______ _____ _____    ______ ____
ROOT
ATOM      1  C   UNL     1      51.132   4.581  17.942  0.00  0.00    +0.000 A 
ATOM      2  C   UNL     1      50.908   3.227  17.689  0.00  0.00    +0.000 A 
ATOM      3  C   UNL     1      49.645   2.820  17.271  0.00  0.00    +0.000 A 
ATOM      4  C   UNL     1      48.636   3.771  17.116  0.00  0.00    +0.000 A 
ATOM      5  C   UNL     1      48.939   5.089  17.442  0.00  0.00    +0.000 A 
ATOM      6  N   UNL     1      50.157   5.514  17.840  0.00  0.00    +0.000 NA
ENDROOT
BRANCH   1   7
ATOM      7  C   UNL     1      52.514   5.058  18.339  0.00  0.00    +0.000 C 
BRANCH   7   8
ATOM      8  N   UNL     1      53.566   4.295  17.654  0.00  0.00    +0.000 NA
ATOM      9  H   UNL     1      54.168   4.970  17.175  0.00  0.00    +0.000 HD
BRANCH   8  10
ATOM     10  C   UNL     1      54.420   3.511  18.571  0.00  0.00    +0.000 C 
BRANCH  10  11
ATOM     11  C   UNL     1      54.564   2.069  18.066  0.00  0.00    +0.000 A 
ATOM     12  C   UNL     1      55.373   1.788  16.961  0.00  0.00    +0.000 A 
ATOM     13  C   UNL     1      55.330   0.520  16.393  0.00  0.00    +0.000 A 
ATOM     14  C   UNL     1      54.511  -0.448  16.957  0.00  0.00    +0.000 A 
ATOM     15  C   UNL     1      53.785  -0.111  18.087  0.00  0.00    +0.000 A 
ATOM     16  N   UNL     1      53.787   1.120  18.650  0.00  0.00    +0.000 NA
ENDBRANCH  10  11
BRANCH  10  18
ATOM     17  C   UNL     1      54.907   3.521  21.109  0.00  0.00    +0.000 C 
ATOM     18  C   UNL     1      53.851   3.499  20.011  0.00  0.00    +0.000 C 
ENDBRANCH  10  18
ENDBRANCH   8  10
ENDBRANCH   7   8
ENDBRANCH   1   7
BRANCH   4  19
ATOM     19  C   UNL     1      47.262   3.403  16.649  0.00  0.00    +0.000 C 
BRANCH  19  20
ATOM     20  N   UNL     1      46.752   4.375  15.718  0.00  0.00    +0.000 N 
ATOM     21  C   UNL     1      46.755   4.126  14.372  0.00  0.00    +0.000 C 
ATOM     22  O   UNL     1      47.154   3.062  13.907  0.00  0.00    +0.000 OA
ATOM     23  H   UNL     1      46.636   5.328  16.050  0.00  0.00    +0.000 HD
BRANCH  21  24
ATOM     24  C   UNL     1      46.199   5.180  13.514  0.00  0.00    +0.000 A 
ATOM     25  C   UNL     1      46.937   6.334  13.284  0.00  0.00    +0.000 A 
ATOM     26  S   UNL     1      46.165   7.440  12.242  0.00  0.00    +0.000 S 
ATOM     27  C   UNL     1      44.796   6.438  12.103  0.00  0.00    +0.000 A 
ATOM     28  N   UNL     1      43.722   6.820  11.363  0.00  0.00    +0.000 NA
ATOM     29  C   UNL     1      42.742   5.978  11.368  0.00  0.00    +0.000 A 
ATOM     30  N   UNL     1      42.746   4.781  12.037  0.00  0.00    +0.000 N 
ATOM     31  C   UNL     1      43.824   4.335  12.768  0.00  0.00    +0.000 A 
ATOM     32  O   UNL     1      43.821   3.236  13.304  0.00  0.00    +0.000 OA
ATOM     33  C   UNL     1      44.942   5.263  12.816  0.00  0.00    +0.000 A 
ATOM     34  H   UNL     1      41.955   4.157  11.986  0.00  0.00    +0.000 HD
ENDBRANCH  21  24
ENDBRANCH  19  20
ENDBRANCH   4  19
TORSDOF 8
ENDMDL
MODEL 5
REMARK VINA RESULT:    -6.892      3.017      8.055
REMARK INTER + INTRA:         -11.021
REMARK INTER:                  -9.499
REMARK INTRA:                  -1.522
REMARK UNBOUND:                -0.906
REMARK  Name = 
REMARK  9 active torsions:
REMARK  status: ('A' for Active; 'I' for Inactive)
REMARK    1  A    between atoms: C_1  and  C_2
REMARK    2  A    between atoms: C_2  and  C_3
REMARK    3  A    between atoms: C_3  and  N_4
REMARK    4  A    between atoms: C_3  and  C_26
REMARK    5  A    between atoms: N_4  and  C_5
REMARK    6  A    between atoms: C_5  and  C_6
REMARK    7  A    between atoms: C_9  and  C_10
REMARK    8  A    between atoms: C_10  and  N_11
REMARK    9  A    between atoms: C_12  and  C_14
REMARK                            x       y       z     vdW  Elec       q    Type
REMARK                         _______ _______ _______ _____ _____    ______ ____
ROOT
ATOM      1  C   UNL     1      50.407   7.169  15.488  0.00  0.00    +0.000 A 
ATOM      2  C   UNL     1      49.080   6.744  15.417  0.00  0.00    +0.000 A 
ATOM      3  C   UNL     1      48.330   7.060  14.289  0.00  0.00    +0.000 A 
ATOM      4  C   UNL     1      48.921   7.792  13.258  0.00  0.00    +0.000 A 
ATOM      5  C   UNL     1      50.233   8.216  13.441  0.00  0.00    +0.000 A 
ATOM      6  N   UNL     1      50.987   7.917  14.521  0.00  0.00    +0.000 NA
ENDROOT
BRANCH   1   7
ATOM      7  C   UNL     1      51.263   6.786  16.678  0.00  0.00    +0.000 C 
BRANCH   7   8
ATOM      8  N   UNL     1      50.499   6.847  17.932  0.00  0.00    +0.000 NA
ATOM      9  H   UNL     1      49.525   7.041  17.685  0.00  0.00    +0.000 HD
BRANCH   8  10
ATOM     10  C   UNL     1      50.520   5.584  18.699  0.00  0.00    +0.000 C 
BRANCH  10  11
ATOM     11  C   UNL     1      49.399   4.651  18.223  0.00  0.00    +0.000 A 
ATOM     12  C   UNL     1      49.709   3.448  17.581  0.00  0.00    +0.000 A 
ATOM     13  C   UNL     1      48.692   2.719  16.976  0.00  0.00    +0.000 A 
ATOM     14  C   UNL     1      47.387   3.184  17.052  0.00  0.00    +0.000 A 
ATOM     15  C   UNL     1      47.151   4.353  17.756  0.00  0.00    +0.000 A 
ATOM     16  N   UNL     1      48.121   5.097  18.337  0.00  0.00    +0.000 NA
ENDBRANCH  10  11
BRANCH  10  18
ATOM     17  C   UNL     1      50.229   7.303  20.607  0.00  0.00    +0.000 C 
ATOM     18  C   UNL     1      50.370   5.836  20.220  0.00  0.00    +0.000 C 
ENDBRANCH  10  18
ENDBRANCH   8  10
ENDBRANCH   7   8
ENDBRANCH   1   7
BRANCH   4  19
ATOM     19  C   UNL     1      48.178   8.146  12.008  0.00  0.00    +0.000 C 
BRANCH  19  20
ATOM     20  N   UNL     1      47.516   6.996  11.452  0.00  0.00    +0.000 N 
ATOM     21  C   UNL     1      46.150   6.935  11.388  0.00  0.00    +0.000 C 
ATOM     22  O   UNL     1      45.438   7.863  11.764  0.00  0.00    +0.000 OA
ATOM     23  H   UNL     1      48.059   6.144  11.353  0.00  0.00    +0.000 HD
BRANCH  21  24
ATOM     24  C   UNL     1      45.579   5.721  10.791  0.00  0.00    +0.000 A 
ATOM     25  C   UNL     1      45.743   5.486   9.432  0.00  0.00    +0.000 A 
ATOM     26  S   UNL     1      45.049   4.020   8.905  0.00  0.00    +0.000 S 
ATOM     27  C   UNL     1      44.461   3.675  10.466  0.00  0.00    +0.000 A 
ATOM     28  N   UNL     1      43.730   2.554  10.705  0.00  0.00    +0.000 NA
ATOM     29  C   UNL     1      43.323   2.432  11.926  0.00  0.00    +0.000 A 
ATOM     30  N   UNL     1      43.595   3.324  12.930  0.00  0.00    +0.000 N 
ATOM     31  C   UNL     1      44.361   4.452  12.745  0.00  0.00    +0.000 A 
ATOM     32  O   UNL     1      44.636   5.197  13.675  0.00  0.00    +0.000 OA
ATOM     33  C   UNL     1      44.819   4.649  11.379  0.00  0.00    +0.000 A 
ATOM     34  H   UNL     1      43.263   3.161  13.870  0.00  0.00    +0.000 HD
ENDBRANCH  21  24
ENDBRANCH  19  20
ENDBRANCH   4  19
TORSDOF 8
ENDMDL
MODEL 6
REMARK VINA RESULT:    -6.629      3.235      8.852
REMARK INTER + INTRA:         -10.636
REMARK INTER:                  -8.851
REMARK INTRA:                  -1.785
REMARK UNBOUND:                -0.906
REMARK  Name = 
REMARK  9 active torsions:
REMARK  status: ('A' for Active; 'I' for Inactive)
REMARK    1  A    between atoms: C_1  and  C_2
REMARK    2  A    between atoms: C_2  and  C_3
REMARK    3  A    between atoms: C_3  and  N_4
REMARK    4  A    between atoms: C_3  and  C_26
REMARK    5  A    between atoms: N_4  and  C_5
REMARK    6  A    between atoms: C_5  and  C_6
REMARK    7  A    between atoms: C_9  and  C_10
REMARK    8  A    between atoms: C_10  and  N_11
REMARK    9  A    between atoms: C_12  and  C_14
REMARK                            x       y       z     vdW  Elec       q    Type
REMARK                         _______ _______ _______ _____ _____    ______ ____
ROOT
ATOM      1  C   UNL     1      49.797   5.712  19.365  0.00  0.00    +0.000 A 
ATOM      2  C   UNL     1      50.438   4.818  18.506  0.00  0.00    +0.000 A 
ATOM      3  C   UNL     1      49.680   4.113  17.578  0.00  0.00    +0.000 A 
ATOM      4  C   UNL     1      48.300   4.314  17.528  0.00  0.00    +0.000 A 
ATOM      5  C   UNL     1      47.743   5.185  18.459  0.00  0.00    +0.000 A 
ATOM      6  N   UNL     1      48.455   5.890  19.364  0.00  0.00    +0.000 NA
ENDROOT
BRANCH   1   7
ATOM      7  C   UNL     1      50.607   6.537  20.343  0.00  0.00    +0.000 C 
BRANCH   7   8
ATOM      8  N   UNL     1      50.398   7.977  20.137  0.00  0.00    +0.000 NA
ATOM      9  H   UNL     1      50.595   8.442  21.027  0.00  0.00    +0.000 HD
BRANCH   8  10
ATOM     10  C   UNL     1      51.295   8.564  19.119  0.00  0.00    +0.000 C 
BRANCH  10  11
ATOM     11  C   UNL     1      50.737   8.323  17.711  0.00  0.00    +0.000 A 
ATOM     12  C   UNL     1      49.403   8.627  17.421  0.00  0.00    +0.000 A 
ATOM     13  C   UNL     1      48.861   8.213  16.210  0.00  0.00    +0.000 A 
ATOM     14  C   UNL     1      49.665   7.539  15.302  0.00  0.00    +0.000 A 
ATOM     15  C   UNL     1      50.992   7.328  15.636  0.00  0.00    +0.000 A 
ATOM     16  N   UNL     1      51.544   7.697  16.815  0.00  0.00    +0.000 NA
ENDBRANCH  10  11
BRANCH  10  18
ATOM     17  C   UNL     1      53.727   8.870  19.940  0.00  0.00    +0.000 C 
ATOM     18  C   UNL     1      52.726   7.980  19.214  0.00  0.00    +0.000 C 
ENDBRANCH  10  18
ENDBRANCH   8  10
ENDBRANCH   7   8
ENDBRANCH   1   7
BRANCH   4  19
ATOM     19  C   UNL     1      47.428   3.604  16.540  0.00  0.00    +0.000 C 
BRANCH  19  20
ATOM     20  N   UNL     1      46.820   4.531  15.622  0.00  0.00    +0.000 N 
ATOM     21  C   UNL     1      46.775   4.263  14.281  0.00  0.00    +0.000 C 
ATOM     22  O   UNL     1      47.214   3.217  13.811  0.00  0.00    +0.000 OA
ATOM     23  H   UNL     1      46.665   5.480  15.948  0.00  0.00    +0.000 HD
BRANCH  21  24
ATOM     24  C   UNL     1      46.121   5.270  13.436  0.00  0.00    +0.000 A 
ATOM     25  C   UNL     1      46.771   6.470  13.176  0.00  0.00    +0.000 A 
ATOM     26  S   UNL     1      45.890   7.514  12.155  0.00  0.00    +0.000 S 
ATOM     27  C   UNL     1      44.588   6.420  12.068  0.00  0.00    +0.000 A 
ATOM     28  N   UNL     1      43.467   6.723  11.363  0.00  0.00    +0.000 NA
ATOM     29  C   UNL     1      42.547   5.815  11.406  0.00  0.00    +0.000 A 
ATOM     30  N   UNL     1      42.656   4.627  12.080  0.00  0.00    +0.000 N 
ATOM     31  C   UNL     1      43.785   4.260  12.776  0.00  0.00    +0.000 A 
ATOM     32  O   UNL     1      43.875   3.168  13.318  0.00  0.00    +0.000 OA
ATOM     33  C   UNL     1      44.839   5.263  12.781  0.00  0.00    +0.000 A 
ATOM     34  H   UNL     1      41.907   3.950  12.059  0.00  0.00    +0.000 HD
ENDBRANCH  21  24
ENDBRANCH  19  20
ENDBRANCH   4  19
TORSDOF 8
ENDMDL
MODEL 7
REMARK VINA RESULT:    -6.017      4.246      9.548
REMARK INTER + INTRA:          -9.737
REMARK INTER:                  -8.612
REMARK INTRA:                  -1.124
REMARK UNBOUND:                -0.906
REMARK  Name = 
REMARK  9 active torsions:
REMARK  status: ('A' for Active; 'I' for Inactive)
REMARK    1  A    between atoms: C_1  and  C_2
REMARK    2  A    between atoms: C_2  and  C_3
REMARK    3  A    between atoms: C_3  and  N_4
REMARK    4  A    between atoms: C_3  and  C_26
REMARK    5  A    between atoms: N_4  and  C_5
REMARK    6  A    between atoms: C_5  and  C_6
REMARK    7  A    between atoms: C_9  and  C_10
REMARK    8  A    between atoms: C_10  and  N_11
REMARK    9  A    between atoms: C_12  and  C_14
REMARK                            x       y       z     vdW  Elec       q    Type
REMARK                         _______ _______ _______ _____ _____    ______ ____
ROOT
ATOM      1  C   UNL     1      51.061   4.183  17.708  0.00  0.00    +0.000 A 
ATOM      2  C   UNL     1      50.674   2.876  17.410  0.00  0.00    +0.000 A 
ATOM      3  C   UNL     1      49.340   2.619  17.112  0.00  0.00    +0.000 A 
ATOM      4  C   UNL     1      48.422   3.670  17.120  0.00  0.00    +0.000 A 
ATOM      5  C   UNL     1      48.891   4.929  17.480  0.00  0.00    +0.000 A 
ATOM      6  N   UNL     1      50.181   5.209  17.765  0.00  0.00    +0.000 NA
ENDROOT
BRANCH   1   7
ATOM      7  C   UNL     1      52.518   4.499  17.977  0.00  0.00    +0.000 C 
BRANCH   7   8
ATOM      8  N   UNL     1      52.901   4.148  19.351  0.00  0.00    +0.000 NA
ATOM      9  H   UNL     1      52.205   3.483  19.699  0.00  0.00    +0.000 HD
BRANCH   8  10
ATOM     10  C   UNL     1      54.224   3.497  19.448  0.00  0.00    +0.000 C 
BRANCH  10  11
ATOM     11  C   UNL     1      54.276   2.254  18.550  0.00  0.00    +0.000 A 
ATOM     12  C   UNL     1      55.148   2.210  17.458  0.00  0.00    +0.000 A 
ATOM     13  C   UNL     1      55.036   1.172  16.540  0.00  0.00    +0.000 A 
ATOM     14  C   UNL     1      54.083   0.185  16.747  0.00  0.00    +0.000 A 
ATOM     15  C   UNL     1      53.296   0.265  17.884  0.00  0.00    +0.000 A 
ATOM     16  N   UNL     1      53.365   1.274  18.783  0.00  0.00    +0.000 NA
ENDBRANCH  10  11
BRANCH  10  18
ATOM     17  C   UNL     1      55.762   2.171  21.047  0.00  0.00    +0.000 C 
ATOM     18  C   UNL     1      54.558   3.094  20.906  0.00  0.00    +0.000 C 
ENDBRANCH  10  18
ENDBRANCH   8  10
ENDBRANCH   7   8
ENDBRANCH   1   7
BRANCH   4  19
ATOM     19  C   UNL     1      46.977   3.467  16.787  0.00  0.00    +0.000 C 
BRANCH  19  20
ATOM     20  N   UNL     1      46.522   4.439  15.829  0.00  0.00    +0.000 N 
ATOM     21  C   UNL     1      46.748   4.264  14.490  0.00  0.00    +0.000 C 
ATOM     22  O   UNL     1      47.310   3.265  14.050  0.00  0.00    +0.000 OA
ATOM     23  H   UNL     1      46.269   5.359  16.177  0.00  0.00    +0.000 HD
BRANCH  21  24
ATOM     24  C   UNL     1      46.230   5.310  13.600  0.00  0.00    +0.000 A 
ATOM     25  C   UNL     1      44.978   5.153  13.017  0.00  0.00    +0.000 A 
ATOM     26  S   UNL     1      44.513   6.470  12.038  0.00  0.00    +0.000 S 
ATOM     27  C   UNL     1      45.989   7.271  12.319  0.00  0.00    +0.000 A 
ATOM     28  N   UNL     1      46.258   8.467  11.733  0.00  0.00    +0.000 NA
ATOM     29  C   UNL     1      47.425   8.948  12.009  0.00  0.00    +0.000 A 
ATOM     30  N   UNL     1      48.342   8.344  12.831  0.00  0.00    +0.000 N 
ATOM     31  C   UNL     1      48.101   7.153  13.476  0.00  0.00    +0.000 A 
ATOM     32  O   UNL     1      48.914   6.670  14.250  0.00  0.00    +0.000 OA
ATOM     33  C   UNL     1      46.809   6.558  13.173  0.00  0.00    +0.000 A 
ATOM     34  H   UNL     1      49.231   8.782  13.023  0.00  0.00    +0.000 HD
ENDBRANCH  21  24
ENDBRANCH  19  20
ENDBRANCH   4  19
TORSDOF 8
ENDMDL
MODEL 8
REMARK VINA RESULT:    -5.988      3.554      9.547
REMARK INTER + INTRA:          -9.694
REMARK INTER:                  -8.553
REMARK INTRA:                  -1.141
REMARK UNBOUND:                -0.906
REMARK  Name = 
REMARK  9 active torsions:
REMARK  status: ('A' for Active; 'I' for Inactive)
REMARK    1  A    between atoms: C_1  and  C_2
REMARK    2  A    between atoms: C_2  and  C_3
REMARK    3  A    between atoms: C_3  and  N_4
REMARK    4  A    between atoms: C_3  and  C_26
REMARK    5  A    between atoms: N_4  and  C_5
REMARK    6  A    between atoms: C_5  and  C_6
REMARK    7  A    between atoms: C_9  and  C_10
REMARK    8  A    between atoms: C_10  and  N_11
REMARK    9  A    between atoms: C_12  and  C_14
REMARK                            x       y       z     vdW  Elec       q    Type
REMARK                         _______ _______ _______ _____ _____    ______ ____
ROOT
ATOM      1  C   UNL     1      50.258   5.491  19.059  0.00  0.00    +0.000 A 
ATOM      2  C   UNL     1      50.038   6.040  17.796  0.00  0.00    +0.000 A 
ATOM      3  C   UNL     1      49.104   5.445  16.955  0.00  0.00    +0.000 A 
ATOM      4  C   UNL     1      48.411   4.315  17.393  0.00  0.00    +0.000 A 
ATOM      5  C   UNL     1      48.736   3.809  18.648  0.00  0.00    +0.000 A 
ATOM      6  N   UNL     1      49.631   4.371  19.488  0.00  0.00    +0.000 NA
ENDROOT
BRANCH   1   7
ATOM      7  C   UNL     1      51.226   6.156  20.017  0.00  0.00    +0.000 C 
BRANCH   7   8
ATOM      8  N   UNL     1      52.270   5.222  20.462  0.00  0.00    +0.000 NA
ATOM      9  H   UNL     1      52.148   4.355  19.931  0.00  0.00    +0.000 HD
BRANCH   8  10
ATOM     10  C   UNL     1      53.644   5.707  20.211  0.00  0.00    +0.000 C 
BRANCH  10  11
ATOM     11  C   UNL     1      53.761   6.265  18.786  0.00  0.00    +0.000 A 
ATOM     12  C   UNL     1      53.768   5.398  17.689  0.00  0.00    +0.000 A 
ATOM     13  C   UNL     1      54.081   5.898  16.431  0.00  0.00    +0.000 A 
ATOM     14  C   UNL     1      54.346   7.252  16.286  0.00  0.00    +0.000 A 
ATOM     15  C   UNL     1      54.261   8.057  17.409  0.00  0.00    +0.000 A 
ATOM     16  N   UNL     1      53.981   7.598  18.651  0.00  0.00    +0.000 NA
ENDBRANCH  10  11
BRANCH  10  18
ATOM     17  C   UNL     1      54.102   3.224  20.759  0.00  0.00    +0.000 C 
ATOM     18  C   UNL     1      54.692   4.585  20.414  0.00  0.00    +0.000 C 
ENDBRANCH  10  18
ENDBRANCH   8  10
ENDBRANCH   7   8
ENDBRANCH   1   7
BRANCH   4  19
ATOM     19  C   UNL     1      47.378   3.639  16.548  0.00  0.00    +0.000 C 
BRANCH  19  20
ATOM     20  N   UNL     1      46.775   4.563  15.624  0.00  0.00    +0.000 N 
ATOM     21  C   UNL     1      46.745   4.294  14.282  0.00  0.00    +0.000 C 
ATOM     22  O   UNL     1      47.192   3.249  13.817  0.00  0.00    +0.000 OA
ATOM     23  H   UNL     1      46.613   5.512  15.947  0.00  0.00    +0.000 HD
BRANCH  21  24
ATOM     24  C   UNL     1      46.095   5.298  13.431  0.00  0.00    +0.000 A 
ATOM     25  C   UNL     1      46.747   6.496  13.168  0.00  0.00    +0.000 A 
ATOM     26  S   UNL     1      45.872   7.537  12.139  0.00  0.00    +0.000 S 
ATOM     27  C   UNL     1      44.569   6.444  12.051  0.00  0.00    +0.000 A 
ATOM     28  N   UNL     1      43.451   6.745  11.340  0.00  0.00    +0.000 NA
ATOM     29  C   UNL     1      42.530   5.840  11.384  0.00  0.00    +0.000 A 
ATOM     30  N   UNL     1      42.634   4.654  12.064  0.00  0.00    +0.000 N 
ATOM     31  C   UNL     1      43.760   4.289  12.766  0.00  0.00    +0.000 A 
ATOM     32  O   UNL     1      43.846   3.199  13.312  0.00  0.00    +0.000 OA
ATOM     33  C   UNL     1      44.815   5.290  12.770  0.00  0.00    +0.000 A 
ATOM     34  H   UNL     1      41.885   3.978  12.043  0.00  0.00    +0.000 HD
ENDBRANCH  21  24
ENDBRANCH  19  20
ENDBRANCH   4  19
TORSDOF 8
ENDMDL
MODEL 9
REMARK VINA RESULT:    -5.606      2.053      2.442
REMARK INTER + INTRA:          -9.134
REMARK INTER:                  -8.641
REMARK INTRA:                  -0.492
REMARK UNBOUND:                -0.906
REMARK  Name = 
REMARK  9 active torsions:
REMARK  status: ('A' for Active; 'I' for Inactive)
REMARK    1  A    between atoms: C_1  and  C_2
REMARK    2  A    between atoms: C_2  and  C_3
REMARK    3  A    between atoms: C_3  and  N_4
REMARK    4  A    between atoms: C_3  and  C_26
REMARK    5  A    between atoms: N_4  and  C_5
REMARK    6  A    between atoms: C_5  and  C_6
REMARK    7  A    between atoms: C_9  and  C_10
REMARK    8  A    between atoms: C_10  and  N_11
REMARK    9  A    between atoms: C_12  and  C_14
REMARK                            x       y       z     vdW  Elec       q    Type
REMARK                         _______ _______ _______ _____ _____    ______ ____
ROOT
ATOM      1  C   UNL     1      45.392   6.179  11.549  0.00  0.00    +0.000 A 
ATOM      2  C   UNL     1      45.411   7.561  11.357  0.00  0.00    +0.000 A 
ATOM      3  C   UNL     1      46.194   8.348  12.194  0.00  0.00    +0.000 A 
ATOM      4  C   UNL     1      46.940   7.739  13.204  0.00  0.00    +0.000 A 
ATOM      5  C   UNL     1      46.817   6.361  13.353  0.00  0.00    +0.000 A 
ATOM      6  N   UNL     1      46.072   5.572  12.549  0.00  0.00    +0.000 NA
ENDROOT
BRANCH   1   7
ATOM      7  C   UNL     1      44.594   5.295  10.613  0.00  0.00    +0.000 C 
BRANCH   7   8
ATOM      8  N   UNL     1      45.404   4.853   9.469  0.00  0.00    +0.000 NA
ATOM      9  H   UNL     1      46.335   5.265   9.579  0.00  0.00    +0.000 HD
BRANCH   8  10
ATOM     10  C   UNL     1      45.574   3.386   9.396  0.00  0.00    +0.000 C 
BRANCH  10  11
ATOM     11  C   UNL     1      46.324   2.998   8.115  0.00  0.00    +0.000 A 
ATOM     12  C   UNL     1      46.341   3.865   7.019  0.00  0.00    +0.000 A 
ATOM     13  C   UNL     1      46.844   3.414   5.804  0.00  0.00    +0.000 A 
ATOM     14  C   UNL     1      47.350   2.125   5.717  0.00  0.00    +0.000 A 
ATOM     15  C   UNL     1      47.354   1.346   6.861  0.00  0.00    +0.000 A 
ATOM     16  N   UNL     1      46.851   1.747   8.052  0.00  0.00    +0.000 NA
ENDBRANCH  10  11
BRANCH  10  18
ATOM     17  C   UNL     1      44.266   1.191   9.009  0.00  0.00    +0.000 C 
ATOM     18  C   UNL     1      44.211   2.651   9.438  0.00  0.00    +0.000 C 
ENDBRANCH  10  18
ENDBRANCH   8  10
ENDBRANCH   7   8
ENDBRANCH   1   7
BRANCH   4  19
ATOM     19  C   UNL     1      47.820   8.524  14.126  0.00  0.00    +0.000 C 
BRANCH  19  20
ATOM     20  N   UNL     1      48.059   7.809  15.352  0.00  0.00    +0.000 N 
ATOM     21  C   UNL     1      48.490   8.465  16.474  0.00  0.00    +0.000 C 
ATOM     22  O   UNL     1      48.654   9.682  16.494  0.00  0.00    +0.000 OA
ATOM     23  H   UNL     1      48.153   6.800  15.297  0.00  0.00    +0.000 HD
BRANCH  21  24
ATOM     24  C   UNL     1      48.690   7.642  17.673  0.00  0.00    +0.000 A 
ATOM     25  C   UNL     1      47.976   7.933  18.829  0.00  0.00    +0.000 A 
ATOM     26  S   UNL     1      48.301   6.865  20.117  0.00  0.00    +0.000 S 
ATOM     27  C   UNL     1      49.445   6.008  19.191  0.00  0.00    +0.000 A 
ATOM     28  N   UNL     1      50.135   4.966  19.723  0.00  0.00    +0.000 NA
ATOM     29  C   UNL     1      50.991   4.426  18.919  0.00  0.00    +0.000 A 
ATOM     30  N   UNL     1      51.207   4.828  17.626  0.00  0.00    +0.000 N 
ATOM     31  C   UNL     1      50.507   5.853  17.033  0.00  0.00    +0.000 A 
ATOM     32  O   UNL     1      50.680   6.149  15.860  0.00  0.00    +0.000 OA
ATOM     33  C   UNL     1      49.551   6.512  17.909  0.00  0.00    +0.000 A 
ATOM     34  H   UNL     1      51.878   4.351  17.042  0.00  0.00    +0.000 HD
ENDBRANCH  21  24
ENDBRANCH  19  20
ENDBRANCH   4  19
TORSDOF 8
ENDMDL
