MODEL 1
REMARK VINA RESULT:    -7.806      0.000      0.000
REMARK INTER + INTRA:         -10.840
REMARK INTER:                 -10.315
REMARK INTRA:                  -0.524
REMARK UNBOUND:                -0.524
REMARK  Name = 
REMARK  6 active torsions:
REMARK  status: ('A' for Active; 'I' for Inactive)
REMARK    1  A    between atoms: N_1  and  C_2
REMARK    2  A    between atoms: C_2  and  C_3
REMARK    3  A    between atoms: C_6  and  C_7
REMARK    4  A    between atoms: C_7  and  O_8
REMARK    5  A    between atoms: O_8  and  C_9
REMARK    6  A    between atoms: C_12  and  C_13
REMARK                            x       y       z     vdW  Elec       q    Type
REMARK                         _______ _______ _______ _____ _____    ______ ____
ROOT
ATOM      1  O   UNL     1      43.579   4.675   9.844  0.00  0.00    +0.000 OA
ENDROOT
BRANCH   1   2
ATOM      2  C   UNL     1      44.518   3.922   9.169  0.00  0.00    +0.000 A 
ATOM      3  C   UNL     1      44.529   2.559   9.412  0.00  0.00    +0.000 A 
ATOM      4  C   UNL     1      45.461   1.775   8.728  0.00  0.00    +0.000 A 
ATOM      5  C   UNL     1      46.345   2.376   7.827  0.00  0.00    +0.000 A 
ATOM      6  C   UNL     1      46.251   3.748   7.659  0.00  0.00    +0.000 A 
ATOM      7  N   UNL     1      45.360   4.533   8.310  0.00  0.00    +0.000 NA
BRANCH   5   8
ATOM      8  C   UNL     1      47.327   1.539   7.099  0.00  0.00    +0.000 C 
ATOM      9  N   UNL     1      48.462   2.124   6.606  0.00  0.00    +0.000 N 
ATOM     10  O   UNL     1      47.137   0.342   6.931  0.00  0.00    +0.000 OA
ATOM     11  H   UNL     1      48.720   3.095   6.681  0.00  0.00    +0.000 HD
ATOM     12  H   UNL     1      49.104   1.514   6.113  0.00  0.00    +0.000 HD
ENDBRANCH   5   8
ENDBRANCH   1   2
BRANCH   1  13
ATOM     13  C   UNL     1      43.398   4.228  11.191  0.00  0.00    +0.000 C 
BRANCH  13  17
ATOM     14  C   UNL     1      46.639   6.719  12.776  0.00  0.00    +0.000 C 
ATOM     15  C   UNL     1      45.296   7.380  12.423  0.00  0.00    +0.000 C 
ATOM     16  C   UNL     1      44.444   6.487  11.525  0.00  0.00    +0.000 C 
ATOM     17  C   UNL     1      44.217   5.103  12.148  0.00  0.00    +0.000 C 
ATOM     18  C   UNL     1      45.554   4.440  12.504  0.00  0.00    +0.000 C 
ATOM     19  C   UNL     1      46.403   5.334  13.402  0.00  0.00    +0.000 C 
BRANCH  14  20
ATOM     20  C   UNL     1      47.450   7.639  13.704  0.00  0.00    +0.000 C 
BRANCH  20  21
ATOM     21  N   UNL     1      46.710   8.847  14.052  0.00  0.00    +0.000 NA
ATOM     22  H   UNL     1      47.218   9.666  13.722  0.00  0.00    +0.000 HD
ATOM     23  H   UNL     1      46.646   8.932  15.066  0.00  0.00    +0.000 HD
ENDBRANCH  20  21
ENDBRANCH  14  20
ENDBRANCH  13  17
ENDBRANCH   1  13
TORSDOF 6
ENDMDL
MODEL 2
REMARK VINA RESULT:    -7.753      1.037      1.523
REMARK INTER + INTRA:         -10.770
REMARK INTER:                 -10.354
REMARK INTRA:                  -0.416
REMARK UNBOUND:                -0.524
REMARK  Name = 
REMARK  6 active torsions:
REMARK  status: ('A' for Active; 'I' for Inactive)
REMARK    1  A    between atoms: N_1  and  C_2
REMARK    2  A    between atoms: C_2  and  C_3
REMARK    3  A    between atoms: C_6  and  C_7
REMARK    4  A    between atoms: C_7  and  O_8
REMARK    5  A    between atoms: O_8  and  C_9
REMARK    6  A    between atoms: C_12  and  C_13
REMARK                            x       y       z     vdW  Elec       q    Type
REMARK                         _______ _______ _______ _____ _____    ______ ____
ROOT
ATOM      1  O   UNL     1      43.603   4.648   9.784  0.00  0.00    +0.000 OA
ENDROOT
BRANCH   1   2
ATOM      2  C   UNL     1      44.535   3.890   9.107  0.00  0.00    +0.000 A 
ATOM      3  C   UNL     1      44.574   2.535   9.390  0.00  0.00    +0.000 A 
ATOM      4  C   UNL     1      45.498   1.744   8.704  0.00  0.00    +0.000 A 
ATOM      5  C   UNL     1      46.348   2.330   7.760  0.00  0.00    +0.000 A 
ATOM      6  C   UNL     1      46.229   3.695   7.555  0.00  0.00    +0.000 A 
ATOM      7  N   UNL     1      45.343   4.487   8.206  0.00  0.00    +0.000 NA
BRANCH   5   8
ATOM      8  C   UNL     1      47.323   1.486   7.031  0.00  0.00    +0.000 C 
ATOM      9  N   UNL     1      48.466   2.061   6.544  0.00  0.00    +0.000 N 
ATOM     10  O   UNL     1      47.120   0.292   6.856  0.00  0.00    +0.000 OA
ATOM     11  H   UNL     1      48.734   3.029   6.626  0.00  0.00    +0.000 HD
ATOM     12  H   UNL     1      49.102   1.447   6.050  0.00  0.00    +0.000 HD
ENDBRANCH   5   8
ENDBRANCH   1   2
BRANCH   1  13
ATOM     13  C   UNL     1      43.732   4.518  11.204  0.00  0.00    +0.000 C 
BRANCH  13  17
ATOM     14  C   UNL     1      46.999   6.363  13.471  0.00  0.00    +0.000 C 
ATOM     15  C   UNL     1      46.793   4.842  13.566  0.00  0.00    +0.000 C 
ATOM     16  C   UNL     1      45.411   4.426  13.070  0.00  0.00    +0.000 C 
ATOM     17  C   UNL     1      45.146   4.918  11.641  0.00  0.00    +0.000 C 
ATOM     18  C   UNL     1      45.353   6.435  11.540  0.00  0.00    +0.000 C 
ATOM     19  C   UNL     1      46.735   6.848  12.036  0.00  0.00    +0.000 C 
BRANCH  14  20
ATOM     20  C   UNL     1      48.413   6.733  13.953  0.00  0.00    +0.000 C 
BRANCH  20  21
ATOM     21  N   UNL     1      49.390   6.662  12.873  0.00  0.00    +0.000 NA
ATOM     22  H   UNL     1      48.907   6.655  11.975  0.00  0.00    +0.000 HD
ATOM     23  H   UNL     1      49.906   5.785  12.932  0.00  0.00    +0.000 HD
ENDBRANCH  20  21
ENDBRANCH  14  20
ENDBRANCH  13  17
ENDBRANCH   1  13
TORSDOF 6
ENDMDL
MODEL 3
REMARK VINA RESULT:    -7.636      0.670      1.110
REMARK INTER + INTRA:         -10.615
REMARK INTER:                 -10.039
REMARK INTRA:                  -0.576
REMARK UNBOUND:                -0.524
REMARK  Name = 
REMARK  6 active torsions:
REMARK  status: ('A' for Active; 'I' for Inactive)
REMARK    1  A    between atoms: N_1  and  C_2
REMARK    2  A    between atoms: C_2  and  C_3
REMARK    3  A    between atoms: C_6  and  C_7
REMARK    4  A    between atoms: C_7  and  O_8
REMARK    5  A    between atoms: O_8  and  C_9
REMARK    6  A    between atoms: C_12  and  C_13
REMARK                            x       y       z     vdW  Elec       q    Type
REMARK                         _______ _______ _______ _____ _____    ______ ____
ROOT
ATOM      1  O   UNL     1      43.594   4.492   9.998  0.00  0.00    +0.000 OA
ENDROOT
BRANCH   1   2
ATOM      2  C   UNL     1      44.488   3.726   9.279  0.00  0.00    +0.000 A 
ATOM      3  C   UNL     1      45.343   4.393   8.418  0.00  0.00    +0.000 A 
ATOM      4  C   UNL     1      46.268   3.639   7.692  0.00  0.00    +0.000 A 
ATOM      5  C   UNL     1      46.309   2.250   7.851  0.00  0.00    +0.000 A 
ATOM      6  C   UNL     1      45.407   1.682   8.736  0.00  0.00    +0.000 A 
ATOM      7  N   UNL     1      44.499   2.388   9.452  0.00  0.00    +0.000 NA
BRANCH   5   8
ATOM      8  C   UNL     1      47.295   1.456   7.083  0.00  0.00    +0.000 C 
ATOM      9  N   UNL     1      48.406   2.081   6.583  0.00  0.00    +0.000 N 
ATOM     10  O   UNL     1      47.130   0.259   6.887  0.00  0.00    +0.000 OA
ATOM     11  H   UNL     1      48.642   3.056   6.679  0.00  0.00    +0.000 HD
ATOM     12  H   UNL     1      49.052   1.500   6.062  0.00  0.00    +0.000 HD
ENDBRANCH   5   8
ENDBRANCH   1   2
BRANCH   1  13
ATOM     13  C   UNL     1      43.469   4.045  11.352  0.00  0.00    +0.000 C 
BRANCH  13  17
ATOM     14  C   UNL     1      46.651   6.693  12.796  0.00  0.00    +0.000 C 
ATOM     15  C   UNL     1      45.250   7.277  12.551  0.00  0.00    +0.000 C 
ATOM     16  C   UNL     1      44.396   6.356  11.685  0.00  0.00    +0.000 C 
ATOM     17  C   UNL     1      44.296   4.945  12.279  0.00  0.00    +0.000 C 
ATOM     18  C   UNL     1      45.691   4.359  12.528  0.00  0.00    +0.000 C 
ATOM     19  C   UNL     1      46.543   5.281  13.395  0.00  0.00    +0.000 C 
BRANCH  14  20
ATOM     20  C   UNL     1      47.465   7.639  13.697  0.00  0.00    +0.000 C 
BRANCH  20  21
ATOM     21  N   UNL     1      46.725   8.855  14.014  0.00  0.00    +0.000 NA
ATOM     22  H   UNL     1      47.031   9.610  13.402  0.00  0.00    +0.000 HD
ATOM     23  H   UNL     1      46.936   9.148  14.967  0.00  0.00    +0.000 HD
ENDBRANCH  20  21
ENDBRANCH  14  20
ENDBRANCH  13  17
ENDBRANCH   1  13
TORSDOF 6
ENDMDL
MODEL 4
REMARK VINA RESULT:    -7.519      2.338      6.680
REMARK INTER + INTRA:         -10.461
REMARK INTER:                 -10.000
REMARK INTRA:                  -0.461
REMARK UNBOUND:                -0.524
REMARK  Name = 
REMARK  6 active torsions:
REMARK  status: ('A' for Active; 'I' for Inactive)
REMARK    1  A    between atoms: N_1  and  C_2
REMARK    2  A    between atoms: C_2  and  C_3
REMARK    3  A    between atoms: C_6  and  C_7
REMARK    4  A    between atoms: C_7  and  O_8
REMARK    5  A    between atoms: O_8  and  C_9
REMARK    6  A    between atoms: C_12  and  C_13
REMARK                            x       y       z     vdW  Elec       q    Type
REMARK                         _______ _______ _______ _____ _____    ______ ____
ROOT
ATOM      1  O   UNL     1      44.174   3.632  11.396  0.00  0.00    +0.000 OA
ENDROOT
BRANCH   1   2
ATOM      2  C   UNL     1      45.162   4.221  12.157  0.00  0.00    +0.000 A 
ATOM      3  C   UNL     1      45.348   5.585  12.006  0.00  0.00    +0.000 A 
ATOM      4  C   UNL     1      46.333   6.206  12.778  0.00  0.00    +0.000 A 
ATOM      5  C   UNL     1      47.093   5.447  13.674  0.00  0.00    +0.000 A 
ATOM      6  C   UNL     1      46.828   4.089  13.745  0.00  0.00    +0.000 A 
ATOM      7  N   UNL     1      45.882   3.460  13.008  0.00  0.00    +0.000 NA
BRANCH   5   8
ATOM      8  C   UNL     1      48.132   6.111  14.495  0.00  0.00    +0.000 C 
ATOM      9  N   UNL     1      47.978   6.152  15.855  0.00  0.00    +0.000 N 
ATOM     10  O   UNL     1      49.116   6.624  13.978  0.00  0.00    +0.000 OA
ATOM     11  H   UNL     1      47.212   5.769  16.385  0.00  0.00    +0.000 HD
ATOM     12  H   UNL     1      48.711   6.619  16.376  0.00  0.00    +0.000 HD
ENDBRANCH   5   8
ENDBRANCH   1   2
BRANCH   1  13
ATOM     13  C   UNL     1      43.939   4.342  10.176  0.00  0.00    +0.000 C 
BRANCH  13  17
ATOM     14  C   UNL     1      46.785   2.155   7.657  0.00  0.00    +0.000 C 
ATOM     15  C   UNL     1      45.639   1.381   8.332  0.00  0.00    +0.000 C 
ATOM     16  C   UNL     1      45.008   2.182   9.467  0.00  0.00    +0.000 C 
ATOM     17  C   UNL     1      44.523   3.558   8.993  0.00  0.00    +0.000 C 
ATOM     18  C   UNL     1      45.661   4.333   8.317  0.00  0.00    +0.000 C 
ATOM     19  C   UNL     1      46.291   3.531   7.183  0.00  0.00    +0.000 C 
BRANCH  14  20
ATOM     20  C   UNL     1      47.371   1.325   6.503  0.00  0.00    +0.000 C 
BRANCH  20  21
ATOM     21  N   UNL     1      48.571   1.940   5.947  0.00  0.00    +0.000 NA
ATOM     22  H   UNL     1      48.938   1.357   5.196  0.00  0.00    +0.000 HD
ATOM     23  H   UNL     1      49.297   1.988   6.661  0.00  0.00    +0.000 HD
ENDBRANCH  20  21
ENDBRANCH  14  20
ENDBRANCH  13  17
ENDBRANCH   1  13
TORSDOF 6
ENDMDL
MODEL 5
REMARK VINA RESULT:    -7.203      2.123      6.722
REMARK INTER + INTRA:         -10.043
REMARK INTER:                  -9.509
REMARK INTRA:                  -0.534
REMARK UNBOUND:                -0.524
REMARK  Name = 
REMARK  6 active torsions:
REMARK  status: ('A' for Active; 'I' for Inactive)
REMARK    1  A    between atoms: N_1  and  C_2
REMARK    2  A    between atoms: C_2  and  C_3
REMARK    3  A    between atoms: C_6  and  C_7
REMARK    4  A    between atoms: C_7  and  O_8
REMARK    5  A    between atoms: O_8  and  C_9
REMARK    6  A    between atoms: C_12  and  C_13
REMARK                            x       y       z     vdW  Elec       q    Type
REMARK                         _______ _______ _______ _____ _____    ______ ____
ROOT
ATOM      1  O   UNL     1      44.451   3.402  11.645  0.00  0.00    +0.000 OA
ENDROOT
BRANCH   1   2
ATOM      2  C   UNL     1      44.794   4.717  11.883  0.00  0.00    +0.000 A 
ATOM      3  C   UNL     1      43.987   5.692  11.322  0.00  0.00    +0.000 A 
ATOM      4  C   UNL     1      44.304   7.031  11.563  0.00  0.00    +0.000 A 
ATOM      5  C   UNL     1      45.412   7.348  12.356  0.00  0.00    +0.000 A 
ATOM      6  C   UNL     1      46.154   6.296  12.867  0.00  0.00    +0.000 A 
ATOM      7  N   UNL     1      45.871   4.990  12.648  0.00  0.00    +0.000 NA
BRANCH   5   8
ATOM      8  C   UNL     1      45.741   8.769  12.614  0.00  0.00    +0.000 C 
ATOM      9  N   UNL     1      44.723   9.679  12.718  0.00  0.00    +0.000 N 
ATOM     10  O   UNL     1      46.902   9.139  12.730  0.00  0.00    +0.000 OA
ATOM     11  H   UNL     1      43.737   9.489  12.637  0.00  0.00    +0.000 HD
ATOM     12  H   UNL     1      44.995  10.639  12.892  0.00  0.00    +0.000 HD
ENDBRANCH   5   8
ENDBRANCH   1   2
BRANCH   1  13
ATOM     13  C   UNL     1      44.029   3.192  10.293  0.00  0.00    +0.000 C 
BRANCH  13  17
ATOM     14  C   UNL     1      46.452   2.379   6.731  0.00  0.00    +0.000 C 
ATOM     15  C   UNL     1      46.448   3.799   7.321  0.00  0.00    +0.000 C 
ATOM     16  C   UNL     1      45.274   4.013   8.272  0.00  0.00    +0.000 C 
ATOM     17  C   UNL     1      45.249   2.965   9.392  0.00  0.00    +0.000 C 
ATOM     18  C   UNL     1      45.257   1.546   8.809  0.00  0.00    +0.000 C 
ATOM     19  C   UNL     1      46.431   1.334   7.859  0.00  0.00    +0.000 C 
BRANCH  14  20
ATOM     20  C   UNL     1      47.666   2.198   5.803  0.00  0.00    +0.000 C 
BRANCH  20  21
ATOM     21  N   UNL     1      48.896   2.683   6.420  0.00  0.00    +0.000 NA
ATOM     22  H   UNL     1      49.700   2.275   5.945  0.00  0.00    +0.000 HD
ATOM     23  H   UNL     1      48.942   2.373   7.390  0.00  0.00    +0.000 HD
ENDBRANCH  20  21
ENDBRANCH  14  20
ENDBRANCH  13  17
ENDBRANCH   1  13
TORSDOF 6
ENDMDL
MODEL 6
REMARK VINA RESULT:    -6.102      5.218      7.102
REMARK INTER + INTRA:          -8.588
REMARK INTER:                  -8.137
REMARK INTRA:                  -0.451
REMARK UNBOUND:                -0.524
REMARK  Name = 
REMARK  6 active torsions:
REMARK  status: ('A' for Active; 'I' for Inactive)
REMARK    1  A    between atoms: N_1  and  C_2
REMARK    2  A    between atoms: C_2  and  C_3
REMARK    3  A    between atoms: C_6  and  C_7
REMARK    4  A    between atoms: C_7  and  O_8
REMARK    5  A    between atoms: O_8  and  C_9
REMARK    6  A    between atoms: C_12  and  C_13
REMARK                            x       y       z     vdW  Elec       q    Type
REMARK                         _______ _______ _______ _____ _____    ______ ____
ROOT
ATOM      1  O   UNL     1      47.633   3.153  14.949  0.00  0.00    +0.000 OA
ENDROOT
BRANCH   1   2
ATOM      2  C   UNL     1      46.870   3.867  14.048  0.00  0.00    +0.000 A 
ATOM      3  C   UNL     1      46.981   5.247  14.079  0.00  0.00    +0.000 A 
ATOM      4  C   UNL     1      46.229   5.990  13.165  0.00  0.00    +0.000 A 
ATOM      5  C   UNL     1      45.397   5.331  12.254  0.00  0.00    +0.000 A 
ATOM      6  C   UNL     1      45.357   3.948  12.310  0.00  0.00    +0.000 A 
ATOM      7  N   UNL     1      46.073   3.202  13.186  0.00  0.00    +0.000 NA
BRANCH   5   8
ATOM      8  C   UNL     1      44.607   6.123  11.283  0.00  0.00    +0.000 C 
ATOM      9  N   UNL     1      43.646   5.494  10.538  0.00  0.00    +0.000 N 
ATOM     10  O   UNL     1      44.802   7.322  11.136  0.00  0.00    +0.000 OA
ATOM     11  H   UNL     1      43.402   4.517  10.573  0.00  0.00    +0.000 HD
ATOM     12  H   UNL     1      43.132   6.074   9.885  0.00  0.00    +0.000 HD
ENDBRANCH   5   8
ENDBRANCH   1   2
BRANCH   1  13
ATOM     13  C   UNL     1      47.410   3.576  16.298  0.00  0.00    +0.000 C 
BRANCH  13  17
ATOM     14  C   UNL     1      51.566   3.027  17.578  0.00  0.00    +0.000 C 
ATOM     15  C   UNL     1      50.734   4.154  18.212  0.00  0.00    +0.000 C 
ATOM     16  C   UNL     1      49.488   4.469  17.390  0.00  0.00    +0.000 C 
ATOM     17  C   UNL     1      48.623   3.221  17.166  0.00  0.00    +0.000 C 
ATOM     18  C   UNL     1      49.449   2.092  16.537  0.00  0.00    +0.000 C 
ATOM     19  C   UNL     1      50.694   1.780  17.360  0.00  0.00    +0.000 C 
BRANCH  14  20
ATOM     20  C   UNL     1      52.795   2.724  18.454  0.00  0.00    +0.000 C 
BRANCH  20  21
ATOM     21  N   UNL     1      53.028   1.290  18.583  0.00  0.00    +0.000 NA
ATOM     22  H   UNL     1      52.508   0.793  17.862  0.00  0.00    +0.000 HD
ATOM     23  H   UNL     1      52.671   0.961  19.479  0.00  0.00    +0.000 HD
ENDBRANCH  20  21
ENDBRANCH  14  20
ENDBRANCH  13  17
ENDBRANCH   1  13
TORSDOF 6
ENDMDL
MODEL 7
REMARK VINA RESULT:    -5.613      5.103      8.448
REMARK INTER + INTRA:          -7.942
REMARK INTER:                  -7.603
REMARK INTRA:                  -0.339
REMARK UNBOUND:                -0.524
REMARK  Name = 
REMARK  6 active torsions:
REMARK  status: ('A' for Active; 'I' for Inactive)
REMARK    1  A    between atoms: N_1  and  C_2
REMARK    2  A    between atoms: C_2  and  C_3
REMARK    3  A    between atoms: C_6  and  C_7
REMARK    4  A    between atoms: C_7  and  O_8
REMARK    5  A    between atoms: O_8  and  C_9
REMARK    6  A    between atoms: C_12  and  C_13
REMARK                            x       y       z     vdW  Elec       q    Type
REMARK                         _______ _______ _______ _____ _____    ______ ____
ROOT
ATOM      1  O   UNL     1      47.332   3.412  14.871  0.00  0.00    +0.000 OA
ENDROOT
BRANCH   1   2
ATOM      2  C   UNL     1      47.811   3.679  16.137  0.00  0.00    +0.000 A 
ATOM      3  C   UNL     1      47.105   4.594  16.900  0.00  0.00    +0.000 A 
ATOM      4  C   UNL     1      47.562   4.869  18.191  0.00  0.00    +0.000 A 
ATOM      5  C   UNL     1      48.704   4.222  18.675  0.00  0.00    +0.000 A 
ATOM      6  C   UNL     1      49.337   3.326  17.828  0.00  0.00    +0.000 A 
ATOM      7  N   UNL     1      48.917   3.042  16.572  0.00  0.00    +0.000 NA
BRANCH   5   8
ATOM      8  C   UNL     1      49.181   4.512  20.046  0.00  0.00    +0.000 C 
ATOM      9  N   UNL     1      48.289   4.467  21.084  0.00  0.00    +0.000 N 
ATOM     10  O   UNL     1      50.352   4.793  20.263  0.00  0.00    +0.000 OA
ATOM     11  H   UNL     1      47.307   4.251  21.023  0.00  0.00    +0.000 HD
ATOM     12  H   UNL     1      48.659   4.675  22.004  0.00  0.00    +0.000 HD
ENDBRANCH   5   8
ENDBRANCH   1   2
BRANCH   1  13
ATOM     13  C   UNL     1      46.512   4.473  14.370  0.00  0.00    +0.000 C 
BRANCH  13  17
ATOM     14  C   UNL     1      44.606   4.490  10.422  0.00  0.00    +0.000 C 
ATOM     15  C   UNL     1      45.685   5.541  10.733  0.00  0.00    +0.000 C 
ATOM     16  C   UNL     1      45.942   5.662  12.232  0.00  0.00    +0.000 C 
ATOM     17  C   UNL     1      46.309   4.310  12.859  0.00  0.00    +0.000 C 
ATOM     18  C   UNL     1      45.238   3.258  12.549  0.00  0.00    +0.000 C 
ATOM     19  C   UNL     1      44.983   3.138  11.050  0.00  0.00    +0.000 C 
BRANCH  14  20
ATOM     20  C   UNL     1      44.402   4.381   8.901  0.00  0.00    +0.000 C 
BRANCH  20  21
ATOM     21  N   UNL     1      45.608   4.741   8.165  0.00  0.00    +0.000 NA
ATOM     22  H   UNL     1      46.365   4.930   8.820  0.00  0.00    +0.000 HD
ATOM     23  H   UNL     1      45.450   5.603   7.644  0.00  0.00    +0.000 HD
ENDBRANCH  20  21
ENDBRANCH  14  20
ENDBRANCH  13  17
ENDBRANCH   1  13
TORSDOF 6
ENDMDL
MODEL 8
REMARK VINA RESULT:    -5.585      4.962      7.516
REMARK INTER + INTRA:          -7.905
REMARK INTER:                  -7.472
REMARK INTRA:                  -0.433
REMARK UNBOUND:                -0.524
REMARK  Name = 
REMARK  6 active torsions:
REMARK  status: ('A' for Active; 'I' for Inactive)
REMARK    1  A    between atoms: N_1  and  C_2
REMARK    2  A    between atoms: C_2  and  C_3
REMARK    3  A    between atoms: C_6  and  C_7
REMARK    4  A    between atoms: C_7  and  O_8
REMARK    5  A    between atoms: O_8  and  C_9
REMARK    6  A    between atoms: C_12  and  C_13
REMARK                            x       y       z     vdW  Elec       q    Type
REMARK                         _______ _______ _______ _____ _____    ______ ____
ROOT
ATOM      1  O   UNL     1      46.518   4.313  15.268  0.00  0.00    +0.000 OA
ENDROOT
BRANCH   1   2
ATOM      2  C   UNL     1      47.633   3.754  15.857  0.00  0.00    +0.000 A 
ATOM      3  C   UNL     1      48.308   4.523  16.789  0.00  0.00    +0.000 A 
ATOM      4  C   UNL     1      49.431   3.972  17.411  0.00  0.00    +0.000 A 
ATOM      5  C   UNL     1      49.838   2.674  17.082  0.00  0.00    +0.000 A 
ATOM      6  C   UNL     1      49.093   1.992  16.135  0.00  0.00    +0.000 A 
ATOM      7  N   UNL     1      48.002   2.502  15.515  0.00  0.00    +0.000 NA
BRANCH   5   8
ATOM      8  C   UNL     1      51.026   2.092  17.749  0.00  0.00    +0.000 C 
ATOM      9  N   UNL     1      51.811   2.896  18.531  0.00  0.00    +0.000 N 
ATOM     10  O   UNL     1      51.316   0.911  17.607  0.00  0.00    +0.000 OA
ATOM     11  H   UNL     1      51.671   3.877  18.715  0.00  0.00    +0.000 HD
ATOM     12  H   UNL     1      52.614   2.456  18.964  0.00  0.00    +0.000 HD
ENDBRANCH   5   8
ENDBRANCH   1   2
BRANCH   1  13
ATOM     13  C   UNL     1      46.860   5.360  14.354  0.00  0.00    +0.000 C 
BRANCH  13  17
ATOM     14  C   UNL     1      44.597   4.686  10.660  0.00  0.00    +0.000 C 
ATOM     15  C   UNL     1      45.684   5.774  10.679  0.00  0.00    +0.000 C 
ATOM     16  C   UNL     1      46.076   6.156  12.104  0.00  0.00    +0.000 C 
ATOM     17  C   UNL     1      46.521   4.935  12.920  0.00  0.00    +0.000 C 
ATOM     18  C   UNL     1      45.441   3.845  12.901  0.00  0.00    +0.000 C 
ATOM     19  C   UNL     1      45.051   3.465  11.476  0.00  0.00    +0.000 C 
BRANCH  14  20
ATOM     20  C   UNL     1      44.254   4.312   9.207  0.00  0.00    +0.000 C 
BRANCH  20  21
ATOM     21  N   UNL     1      45.366   4.580   8.301  0.00  0.00    +0.000 NA
ATOM     22  H   UNL     1      45.229   5.484   7.851  0.00  0.00    +0.000 HD
ATOM     23  H   UNL     1      45.381   3.883   7.558  0.00  0.00    +0.000 HD
ENDBRANCH  20  21
ENDBRANCH  14  20
ENDBRANCH  13  17
ENDBRANCH   1  13
TORSDOF 6
ENDMDL
MODEL 9
REMARK VINA RESULT:    -5.507      4.252      6.564
REMARK INTER + INTRA:          -7.802
REMARK INTER:                  -7.464
REMARK INTRA:                  -0.338
REMARK UNBOUND:                -0.524
REMARK  Name = 
REMARK  6 active torsions:
REMARK  status: ('A' for Active; 'I' for Inactive)
REMARK    1  A    between atoms: N_1  and  C_2
REMARK    2  A    between atoms: C_2  and  C_3
REMARK    3  A    between atoms: C_6  and  C_7
REMARK    4  A    between atoms: C_7  and  O_8
REMARK    5  A    between atoms: O_8  and  C_9
REMARK    6  A    between atoms: C_12  and  C_13
REMARK                            x       y       z     vdW  Elec       q    Type
REMARK                         _______ _______ _______ _____ _____    ______ ____
ROOT
ATOM      1  O   UNL     1      48.235   5.616  13.932  0.00  0.00    +0.000 OA
ENDROOT
BRANCH   1   2
ATOM      2  C   UNL     1      47.016   5.605  13.286  0.00  0.00    +0.000 A 
ATOM      3  C   UNL     1      46.844   6.500  12.244  0.00  0.00    +0.000 A 
ATOM      4  C   UNL     1      45.624   6.496  11.564  0.00  0.00    +0.000 A 
ATOM      5  C   UNL     1      44.621   5.599  11.946  0.00  0.00    +0.000 A 
ATOM      6  C   UNL     1      44.895   4.747  13.004  0.00  0.00    +0.000 A 
ATOM      7  N   UNL     1      46.068   4.730  13.681  0.00  0.00    +0.000 NA
BRANCH   5   8
ATOM      8  C   UNL     1      43.331   5.593  11.219  0.00  0.00    +0.000 C 
ATOM      9  N   UNL     1      42.291   6.340  11.705  0.00  0.00    +0.000 N 
ATOM     10  O   UNL     1      43.181   4.933  10.200  0.00  0.00    +0.000 OA
ATOM     11  H   UNL     1      42.299   6.915  12.532  0.00  0.00    +0.000 HD
ATOM     12  H   UNL     1      41.427   6.304  11.177  0.00  0.00    +0.000 HD
ENDBRANCH   5   8
ENDBRANCH   1   2
BRANCH   1  13
ATOM     13  C   UNL     1      48.356   6.722  14.833  0.00  0.00    +0.000 C 
BRANCH  13  17
ATOM     14  C   UNL     1      48.379   5.498  19.043  0.00  0.00    +0.000 C 
ATOM     15  C   UNL     1      48.580   4.430  17.956  0.00  0.00    +0.000 C 
ATOM     16  C   UNL     1      48.144   4.931  16.582  0.00  0.00    +0.000 C 
ATOM     17  C   UNL     1      48.860   6.233  16.197  0.00  0.00    +0.000 C 
ATOM     18  C   UNL     1      48.664   7.302  17.280  0.00  0.00    +0.000 C 
ATOM     19  C   UNL     1      49.100   6.798  18.652  0.00  0.00    +0.000 C 
BRANCH  14  20
ATOM     20  C   UNL     1      48.857   4.961  20.403  0.00  0.00    +0.000 C 
BRANCH  20  21
ATOM     21  N   UNL     1      48.379   3.606  20.649  0.00  0.00    +0.000 NA
ATOM     22  H   UNL     1      47.603   3.632  21.309  0.00  0.00    +0.000 HD
ATOM     23  H   UNL     1      49.116   3.054  21.087  0.00  0.00    +0.000 HD
ENDBRANCH  20  21
ENDBRANCH  14  20
ENDBRANCH  13  17
ENDBRANCH   1  13
TORSDOF 6
ENDMDL
