MODEL 1
REMARK VINA RESULT:    -9.077      0.000      0.000
REMARK INTER + INTRA:         -12.424
REMARK INTER:                 -11.730
REMARK INTRA:                  -0.695
REMARK UNBOUND:                -0.695
REMARK  Name = 
REMARK  5 active torsions:
REMARK  status: ('A' for Active; 'I' for Inactive)
REMARK    1  A    between atoms: C_2  and  C_4
REMARK    2  A    between atoms: C_7  and  N_8
REMARK    3  A    between atoms: N_8  and  C_9
REMARK    4  A    between atoms: C_9  and  C_10
REMARK    5  A    between atoms: C_15  and  C_16
REMARK                            x       y       z     vdW  Elec       q    Type
REMARK                         _______ _______ _______ _____ _____    ______ ____
ROOT
ATOM      1  C   UNL     1      44.865   4.860  11.911  0.00  0.00    +0.000 A 
ATOM      2  C   UNL     1      45.461   3.976  12.814  0.00  0.00    +0.000 A 
ATOM      3  C   UNL     1      46.611   4.359  13.488  0.00  0.00    +0.000 A 
ATOM      4  F   UNL     1      47.185   3.506  14.346  0.00  0.00    +0.000 F 
ATOM      5  C   UNL     1      47.182   5.614  13.293  0.00  0.00    +0.000 A 
ATOM      6  C   UNL     1      46.615   6.533  12.395  0.00  0.00    +0.000 A 
ATOM      7  C   UNL     1      45.451   6.125  11.711  0.00  0.00    +0.000 A 
ENDROOT
BRANCH   6   8
ATOM      8  C   UNL     1      47.211   7.871  12.171  0.00  0.00    +0.000 A 
ATOM      9  C   UNL     1      48.550   8.029  11.794  0.00  0.00    +0.000 A 
ATOM     10  C   UNL     1      49.054   9.306  11.599  0.00  0.00    +0.000 A 
ATOM     11  N   UNL     1      48.328  10.432  11.744  0.00  0.00    +0.000 NA
ATOM     12  C   UNL     1      47.043  10.285  12.100  0.00  0.00    +0.000 A 
ATOM     13  N   UNL     1      46.281  11.445  12.186  0.00  0.00    +0.000 N 
ATOM     14  C   UNL     1      46.457   9.045  12.318  0.00  0.00    +0.000 A 
ATOM     15  H   UNL     1      46.914  12.229  12.049  0.00  0.00    +0.000 HD
ATOM     16  H   UNL     1      45.780  11.506  13.064  0.00  0.00    +0.000 HD
ENDBRANCH   6   8
BRANCH   1  17
ATOM     17  C   UNL     1      43.605   4.482  11.165  0.00  0.00    +0.000 C 
BRANCH  17  18
ATOM     18  N   UNL     1      43.764   4.839   9.760  0.00  0.00    +0.000 N 
ATOM     19  H   UNL     1      44.014   5.817   9.645  0.00  0.00    +0.000 HD
BRANCH  18  23
ATOM     20  C   UNL     1      46.377   2.333   7.814  0.00  0.00    +0.000 A 
ATOM     21  C   UNL     1      46.400   3.699   7.582  0.00  0.00    +0.000 A 
ATOM     22  N   UNL     1      45.543   4.561   8.192  0.00  0.00    +0.000 NA
ATOM     23  C   UNL     1      44.647   4.021   9.044  0.00  0.00    +0.000 A 
ATOM     24  C   UNL     1      44.639   2.635   9.264  0.00  0.00    +0.000 A 
ATOM     25  N   UNL     1      45.484   1.753   8.659  0.00  0.00    +0.000 NA
BRANCH  20  27
ATOM     26  N   UNL     1      48.423   2.089   6.533  0.00  0.00    +0.000 N 
ATOM     27  C   UNL     1      47.365   1.457   7.130  0.00  0.00    +0.000 C 
ATOM     28  O   UNL     1      47.249   0.239   7.105  0.00  0.00    +0.000 OA
ATOM     29  H   UNL     1      49.136   1.532   6.083  0.00  0.00    +0.000 HD
ATOM     30  H   UNL     1      48.533   3.093   6.614  0.00  0.00    +0.000 HD
ENDBRANCH  20  27
ENDBRANCH  18  23
ENDBRANCH  17  18
ENDBRANCH   1  17
TORSDOF 5
ENDMDL
MODEL 2
REMARK VINA RESULT:    -8.913      0.531      1.361
REMARK INTER + INTRA:         -12.212
REMARK INTER:                 -11.526
REMARK INTRA:                  -0.687
REMARK UNBOUND:                -0.695
REMARK  Name = 
REMARK  5 active torsions:
REMARK  status: ('A' for Active; 'I' for Inactive)
REMARK    1  A    between atoms: C_2  and  C_4
REMARK    2  A    between atoms: C_7  and  N_8
REMARK    3  A    between atoms: N_8  and  C_9
REMARK    4  A    between atoms: C_9  and  C_10
REMARK    5  A    between atoms: C_15  and  C_16
REMARK                            x       y       z     vdW  Elec       q    Type
REMARK                         _______ _______ _______ _____ _____    ______ ____
ROOT
ATOM      1  C   UNL     1      44.932   4.785  11.929  0.00  0.00    +0.000 A 
ATOM      2  C   UNL     1      45.527   3.890  12.821  0.00  0.00    +0.000 A 
ATOM      3  C   UNL     1      46.694   4.251  13.479  0.00  0.00    +0.000 A 
ATOM      4  F   UNL     1      47.267   3.386  14.326  0.00  0.00    +0.000 F 
ATOM      5  C   UNL     1      47.283   5.497  13.277  0.00  0.00    +0.000 A 
ATOM      6  C   UNL     1      46.717   6.428  12.390  0.00  0.00    +0.000 A 
ATOM      7  C   UNL     1      45.536   6.041  11.724  0.00  0.00    +0.000 A 
ENDROOT
BRANCH   6   8
ATOM      8  C   UNL     1      47.332   7.756  12.160  0.00  0.00    +0.000 A 
ATOM      9  C   UNL     1      46.603   8.942  12.306  0.00  0.00    +0.000 A 
ATOM     10  C   UNL     1      47.230  10.157  12.077  0.00  0.00    +0.000 A 
ATOM     11  N   UNL     1      48.524  10.281  11.723  0.00  0.00    +0.000 NA
ATOM     12  C   UNL     1      49.229   9.147  11.587  0.00  0.00    +0.000 A 
ATOM     13  N   UNL     1      50.579   9.282  11.283  0.00  0.00    +0.000 N 
ATOM     14  C   UNL     1      48.680   7.889  11.794  0.00  0.00    +0.000 A 
ATOM     15  H   UNL     1      50.751  10.271  11.118  0.00  0.00    +0.000 HD
ATOM     16  H   UNL     1      50.850   8.709  10.494  0.00  0.00    +0.000 HD
ENDBRANCH   6   8
BRANCH   1  17
ATOM     17  C   UNL     1      43.654   4.430  11.203  0.00  0.00    +0.000 C 
BRANCH  17  18
ATOM     18  N   UNL     1      43.792   4.803   9.800  0.00  0.00    +0.000 N 
ATOM     19  H   UNL     1      44.048   5.780   9.692  0.00  0.00    +0.000 HD
BRANCH  18  23
ATOM     20  C   UNL     1      46.350   2.299   7.779  0.00  0.00    +0.000 A 
ATOM     21  C   UNL     1      46.375   3.667   7.558  0.00  0.00    +0.000 A 
ATOM     22  N   UNL     1      45.536   4.528   8.193  0.00  0.00    +0.000 NA
ATOM     23  C   UNL     1      44.655   3.986   9.059  0.00  0.00    +0.000 A 
ATOM     24  C   UNL     1      44.644   2.598   9.268  0.00  0.00    +0.000 A 
ATOM     25  N   UNL     1      45.471   1.717   8.638  0.00  0.00    +0.000 NA
BRANCH  20  27
ATOM     26  N   UNL     1      48.400   2.049   6.507  0.00  0.00    +0.000 N 
ATOM     27  C   UNL     1      47.319   1.424   7.068  0.00  0.00    +0.000 C 
ATOM     28  O   UNL     1      47.168   0.212   6.990  0.00  0.00    +0.000 OA
ATOM     29  H   UNL     1      49.101   1.491   6.040  0.00  0.00    +0.000 HD
ATOM     30  H   UNL     1      48.539   3.045   6.631  0.00  0.00    +0.000 HD
ENDBRANCH  20  27
ENDBRANCH  18  23
ENDBRANCH  17  18
ENDBRANCH   1  17
TORSDOF 5
ENDMDL
MODEL 3
REMARK VINA RESULT:    -8.815      3.168      4.238
REMARK INTER + INTRA:         -12.087
REMARK INTER:                 -11.503
REMARK INTRA:                  -0.584
REMARK UNBOUND:                -0.695
REMARK  Name = 
REMARK  5 active torsions:
REMARK  status: ('A' for Active; 'I' for Inactive)
REMARK    1  A    between atoms: C_2  and  C_4
REMARK    2  A    between atoms: C_7  and  N_8
REMARK    3  A    between atoms: N_8  and  C_9
REMARK    4  A    between atoms: C_9  and  C_10
REMARK    5  A    between atoms: C_15  and  C_16
REMARK                            x       y       z     vdW  Elec       q    Type
REMARK                         _______ _______ _______ _____ _____    ______ ____
ROOT
ATOM      1  C   UNL     1      45.520   5.484  12.033  0.00  0.00    +0.000 A 
ATOM      2  C   UNL     1      46.274   6.422  11.324  0.00  0.00    +0.000 A 
ATOM      3  C   UNL     1      47.428   6.944  11.892  0.00  0.00    +0.000 A 
ATOM      4  F   UNL     1      48.143   7.850  11.213  0.00  0.00    +0.000 F 
ATOM      5  C   UNL     1      47.858   6.544  13.155  0.00  0.00    +0.000 A 
ATOM      6  C   UNL     1      47.130   5.603  13.901  0.00  0.00    +0.000 A 
ATOM      7  C   UNL     1      45.956   5.090  13.313  0.00  0.00    +0.000 A 
ENDROOT
BRANCH   6   8
ATOM      8  C   UNL     1      47.571   5.169  15.247  0.00  0.00    +0.000 A 
ATOM      9  C   UNL     1      48.545   5.871  15.967  0.00  0.00    +0.000 A 
ATOM     10  C   UNL     1      48.919   5.418  17.223  0.00  0.00    +0.000 A 
ATOM     11  N   UNL     1      48.394   4.328  17.817  0.00  0.00    +0.000 NA
ATOM     12  C   UNL     1      47.456   3.655  17.133  0.00  0.00    +0.000 A 
ATOM     13  N   UNL     1      46.872   2.569  17.776  0.00  0.00    +0.000 N 
ATOM     14  C   UNL     1      47.024   4.037  15.871  0.00  0.00    +0.000 A 
ATOM     15  H   UNL     1      47.373   2.435  18.651  0.00  0.00    +0.000 HD
ATOM     16  H   UNL     1      46.879   1.738  17.198  0.00  0.00    +0.000 HD
ENDBRANCH   6   8
BRANCH   1  17
ATOM     17  C   UNL     1      44.263   4.886  11.442  0.00  0.00    +0.000 C 
BRANCH  17  18
ATOM     18  N   UNL     1      44.277   5.096   9.998  0.00  0.00    +0.000 N 
ATOM     19  H   UNL     1      44.623   6.019   9.754  0.00  0.00    +0.000 HD
BRANCH  18  23
ATOM     20  C   UNL     1      46.299   2.114   8.021  0.00  0.00    +0.000 A 
ATOM     21  C   UNL     1      46.408   3.434   7.614  0.00  0.00    +0.000 A 
ATOM     22  N   UNL     1      45.744   4.449   8.230  0.00  0.00    +0.000 NA
ATOM     23  C   UNL     1      44.953   4.110   9.269  0.00  0.00    +0.000 A 
ATOM     24  C   UNL     1      44.855   2.767   9.665  0.00  0.00    +0.000 A 
ATOM     25  N   UNL     1      45.506   1.735   9.058  0.00  0.00    +0.000 NA
BRANCH  20  27
ATOM     26  N   UNL     1      46.790  -0.233   7.650  0.00  0.00    +0.000 N 
ATOM     27  C   UNL     1      47.080   1.063   7.315  0.00  0.00    +0.000 C 
ATOM     28  O   UNL     1      47.929   1.334   6.478  0.00  0.00    +0.000 OA
ATOM     29  H   UNL     1      47.273  -0.981   7.174  0.00  0.00    +0.000 HD
ATOM     30  H   UNL     1      46.044  -0.440   8.303  0.00  0.00    +0.000 HD
ENDBRANCH  20  27
ENDBRANCH  18  23
ENDBRANCH  17  18
ENDBRANCH   1  17
TORSDOF 5
ENDMDL
MODEL 4
REMARK VINA RESULT:    -8.256      3.824      7.302
REMARK INTER + INTRA:         -11.364
REMARK INTER:                 -11.054
REMARK INTRA:                  -0.310
REMARK UNBOUND:                -0.695
REMARK  Name = 
REMARK  5 active torsions:
REMARK  status: ('A' for Active; 'I' for Inactive)
REMARK    1  A    between atoms: C_2  and  C_4
REMARK    2  A    between atoms: C_7  and  N_8
REMARK    3  A    between atoms: N_8  and  C_9
REMARK    4  A    between atoms: C_9  and  C_10
REMARK    5  A    between atoms: C_15  and  C_16
REMARK                            x       y       z     vdW  Elec       q    Type
REMARK                         _______ _______ _______ _____ _____    ______ ____
ROOT
ATOM      1  C   UNL     1      45.396   6.308  11.466  0.00  0.00    +0.000 A 
ATOM      2  C   UNL     1      44.035   6.287  11.780  0.00  0.00    +0.000 A 
ATOM      3  C   UNL     1      43.198   5.381  11.143  0.00  0.00    +0.000 A 
ATOM      4  F   UNL     1      41.892   5.370  11.440  0.00  0.00    +0.000 F 
ATOM      5  C   UNL     1      43.689   4.481  10.201  0.00  0.00    +0.000 A 
ATOM      6  C   UNL     1      45.051   4.468   9.856  0.00  0.00    +0.000 A 
ATOM      7  C   UNL     1      45.885   5.400  10.506  0.00  0.00    +0.000 A 
ENDROOT
BRANCH   6   8
ATOM      8  C   UNL     1      45.589   3.520   8.853  0.00  0.00    +0.000 A 
ATOM      9  C   UNL     1      45.529   2.134   9.039  0.00  0.00    +0.000 A 
ATOM     10  C   UNL     1      46.050   1.294   8.066  0.00  0.00    +0.000 A 
ATOM     11  N   UNL     1      46.618   1.728   6.924  0.00  0.00    +0.000 NA
ATOM     12  C   UNL     1      46.674   3.056   6.738  0.00  0.00    +0.000 A 
ATOM     13  N   UNL     1      47.203   3.497   5.530  0.00  0.00    +0.000 N 
ATOM     14  C   UNL     1      46.179   3.968   7.660  0.00  0.00    +0.000 A 
ATOM     15  H   UNL     1      47.554   2.677   5.040  0.00  0.00    +0.000 HD
ATOM     16  H   UNL     1      47.920   4.199   5.664  0.00  0.00    +0.000 HD
ENDBRANCH   6   8
BRANCH   1  17
ATOM     17  C   UNL     1      46.339   7.273  12.147  0.00  0.00    +0.000 C 
BRANCH  17  18
ATOM     18  N   UNL     1      47.589   6.581  12.441  0.00  0.00    +0.000 N 
ATOM     19  H   UNL     1      48.388   7.205  12.386  0.00  0.00    +0.000 HD
BRANCH  18  23
ATOM     20  C   UNL     1      47.433   4.490  15.977  0.00  0.00    +0.000 A 
ATOM     21  C   UNL     1      48.212   5.631  15.862  0.00  0.00    +0.000 A 
ATOM     22  N   UNL     1      48.304   6.342  14.707  0.00  0.00    +0.000 NA
ATOM     23  C   UNL     1      47.598   5.880  13.654  0.00  0.00    +0.000 A 
ATOM     24  C   UNL     1      46.817   4.722  13.790  0.00  0.00    +0.000 A 
ATOM     25  N   UNL     1      46.715   3.991  14.936  0.00  0.00    +0.000 NA
BRANCH  20  27
ATOM     26  N   UNL     1      48.253   4.182  18.239  0.00  0.00    +0.000 N 
ATOM     27  C   UNL     1      47.359   3.781  17.282  0.00  0.00    +0.000 C 
ATOM     28  O   UNL     1      46.545   2.894  17.498  0.00  0.00    +0.000 OA
ATOM     29  H   UNL     1      48.220   3.750  19.152  0.00  0.00    +0.000 HD
ATOM     30  H   UNL     1      48.881   4.957  18.062  0.00  0.00    +0.000 HD
ENDBRANCH  20  27
ENDBRANCH  18  23
ENDBRANCH  17  18
ENDBRANCH   1  17
TORSDOF 5
ENDMDL
MODEL 5
REMARK VINA RESULT:    -7.512      3.307      7.306
REMARK INTER + INTRA:         -10.403
REMARK INTER:                  -9.798
REMARK INTRA:                  -0.605
REMARK UNBOUND:                -0.695
REMARK  Name = 
REMARK  5 active torsions:
REMARK  status: ('A' for Active; 'I' for Inactive)
REMARK    1  A    between atoms: C_2  and  C_4
REMARK    2  A    between atoms: C_7  and  N_8
REMARK    3  A    between atoms: N_8  and  C_9
REMARK    4  A    between atoms: C_9  and  C_10
REMARK    5  A    between atoms: C_15  and  C_16
REMARK                            x       y       z     vdW  Elec       q    Type
REMARK                         _______ _______ _______ _____ _____    ______ ____
ROOT
ATOM      1  C   UNL     1      44.599   5.329  10.800  0.00  0.00    +0.000 A 
ATOM      2  C   UNL     1      43.734   4.574  11.595  0.00  0.00    +0.000 A 
ATOM      3  C   UNL     1      43.569   3.221  11.334  0.00  0.00    +0.000 A 
ATOM      4  F   UNL     1      42.731   2.502  12.092  0.00  0.00    +0.000 F 
ATOM      5  C   UNL     1      44.257   2.594  10.299  0.00  0.00    +0.000 A 
ATOM      6  C   UNL     1      45.137   3.316   9.476  0.00  0.00    +0.000 A 
ATOM      7  C   UNL     1      45.287   4.690   9.750  0.00  0.00    +0.000 A 
ENDROOT
BRANCH   6   8
ATOM      8  C   UNL     1      45.875   2.666   8.368  0.00  0.00    +0.000 A 
ATOM      9  C   UNL     1      46.198   1.304   8.394  0.00  0.00    +0.000 A 
ATOM     10  C   UNL     1      46.891   0.749   7.328  0.00  0.00    +0.000 A 
ATOM     11  N   UNL     1      47.279   1.443   6.240  0.00  0.00    +0.000 NA
ATOM     12  C   UNL     1      46.967   2.748   6.208  0.00  0.00    +0.000 A 
ATOM     13  N   UNL     1      47.314   3.446   5.057  0.00  0.00    +0.000 N 
ATOM     14  C   UNL     1      46.279   3.384   7.232  0.00  0.00    +0.000 A 
ATOM     15  H   UNL     1      47.855   2.811   4.474  0.00  0.00    +0.000 HD
ATOM     16  H   UNL     1      47.819   4.298   5.266  0.00  0.00    +0.000 HD
ENDBRANCH   6   8
BRANCH   1  17
ATOM     17  C   UNL     1      44.812   6.803  11.062  0.00  0.00    +0.000 C 
BRANCH  17  18
ATOM     18  N   UNL     1      44.921   7.014  12.501  0.00  0.00    +0.000 N 
ATOM     19  H   UNL     1      44.511   6.248  13.027  0.00  0.00    +0.000 HD
BRANCH  18  23
ATOM     20  C   UNL     1      48.730   7.631  13.916  0.00  0.00    +0.000 A 
ATOM     21  C   UNL     1      47.793   8.653  13.934  0.00  0.00    +0.000 A 
ATOM     22  N   UNL     1      46.528   8.495  13.461  0.00  0.00    +0.000 NA
ATOM     23  C   UNL     1      46.217   7.283  12.957  0.00  0.00    +0.000 A 
ATOM     24  C   UNL     1      47.181   6.262  12.946  0.00  0.00    +0.000 A 
ATOM     25  N   UNL     1      48.455   6.401  13.409  0.00  0.00    +0.000 NA
BRANCH  20  27
ATOM     26  N   UNL     1      51.136   7.708  13.614  0.00  0.00    +0.000 N 
ATOM     27  C   UNL     1      50.086   7.871  14.477  0.00  0.00    +0.000 C 
ATOM     28  O   UNL     1      50.260   8.201  15.643  0.00  0.00    +0.000 OA
ATOM     29  H   UNL     1      52.074   7.890  13.943  0.00  0.00    +0.000 HD
ATOM     30  H   UNL     1      50.970   7.491  12.638  0.00  0.00    +0.000 HD
ENDBRANCH  20  27
ENDBRANCH  18  23
ENDBRANCH  17  18
ENDBRANCH   1  17
TORSDOF 5
ENDMDL
MODEL 6
REMARK VINA RESULT:    -7.374      4.870      8.084
REMARK INTER + INTRA:         -10.224
REMARK INTER:                  -9.697
REMARK INTRA:                  -0.528
REMARK UNBOUND:                -0.695
REMARK  Name = 
REMARK  5 active torsions:
REMARK  status: ('A' for Active; 'I' for Inactive)
REMARK    1  A    between atoms: C_2  and  C_4
REMARK    2  A    between atoms: C_7  and  N_8
REMARK    3  A    between atoms: N_8  and  C_9
REMARK    4  A    between atoms: C_9  and  C_10
REMARK    5  A    between atoms: C_15  and  C_16
REMARK                            x       y       z     vdW  Elec       q    Type
REMARK                         _______ _______ _______ _____ _____    ______ ____
ROOT
ATOM      1  C   UNL     1      45.182   5.127  12.723  0.00  0.00    +0.000 A 
ATOM      2  C   UNL     1      43.821   5.440  12.770  0.00  0.00    +0.000 A 
ATOM      3  C   UNL     1      43.018   5.168  11.672  0.00  0.00    +0.000 A 
ATOM      4  F   UNL     1      41.716   5.478  11.717  0.00  0.00    +0.000 F 
ATOM      5  C   UNL     1      43.537   4.579  10.522  0.00  0.00    +0.000 A 
ATOM      6  C   UNL     1      44.899   4.247  10.433  0.00  0.00    +0.000 A 
ATOM      7  C   UNL     1      45.703   4.537  11.554  0.00  0.00    +0.000 A 
ENDROOT
BRANCH   6   8
ATOM      8  C   UNL     1      45.470   3.623   9.217  0.00  0.00    +0.000 A 
ATOM      9  C   UNL     1      45.844   4.384   8.103  0.00  0.00    +0.000 A 
ATOM     10  C   UNL     1      46.372   3.746   6.991  0.00  0.00    +0.000 A 
ATOM     11  N   UNL     1      46.562   2.414   6.907  0.00  0.00    +0.000 NA
ATOM     12  C   UNL     1      46.209   1.681   7.974  0.00  0.00    +0.000 A 
ATOM     13  N   UNL     1      46.465   0.316   7.908  0.00  0.00    +0.000 N 
ATOM     14  C   UNL     1      45.671   2.237   9.127  0.00  0.00    +0.000 A 
ATOM     15  H   UNL     1      46.799   0.120   6.967  0.00  0.00    +0.000 HD
ATOM     16  H   UNL     1      45.651  -0.235   8.149  0.00  0.00    +0.000 HD
ENDBRANCH   6   8
BRANCH   1  17
ATOM     17  C   UNL     1      46.086   5.398  13.904  0.00  0.00    +0.000 C 
BRANCH  17  18
ATOM     18  N   UNL     1      46.552   4.125  14.442  0.00  0.00    +0.000 N 
ATOM     19  H   UNL     1      46.943   3.529  13.719  0.00  0.00    +0.000 HD
BRANCH  18  23
ATOM     20  C   UNL     1      49.034   4.357  17.710  0.00  0.00    +0.000 A 
ATOM     21  C   UNL     1      48.938   5.412  16.817  0.00  0.00    +0.000 A 
ATOM     22  N   UNL     1      48.141   5.370  15.716  0.00  0.00    +0.000 NA
ATOM     23  C   UNL     1      47.440   4.234  15.519  0.00  0.00    +0.000 A 
ATOM     24  C   UNL     1      47.553   3.176  16.435  0.00  0.00    +0.000 A 
ATOM     25  N   UNL     1      48.349   3.195  17.541  0.00  0.00    +0.000 NA
BRANCH  20  27
ATOM     26  N   UNL     1      49.293   4.319  20.122  0.00  0.00    +0.000 N 
ATOM     27  C   UNL     1      49.904   4.488  18.909  0.00  0.00    +0.000 C 
ATOM     28  O   UNL     1      51.101   4.727  18.822  0.00  0.00    +0.000 OA
ATOM     29  H   UNL     1      49.851   4.369  20.963  0.00  0.00    +0.000 HD
ATOM     30  H   UNL     1      48.314   4.065  20.173  0.00  0.00    +0.000 HD
ENDBRANCH  20  27
ENDBRANCH  18  23
ENDBRANCH  17  18
ENDBRANCH   1  17
TORSDOF 5
ENDMDL
MODEL 7
REMARK VINA RESULT:    -7.370      5.324      7.857
REMARK INTER + INTRA:         -10.219
REMARK INTER:                  -9.510
REMARK INTRA:                  -0.708
REMARK UNBOUND:                -0.695
REMARK  Name = 
REMARK  5 active torsions:
REMARK  status: ('A' for Active; 'I' for Inactive)
REMARK    1  A    between atoms: C_2  and  C_4
REMARK    2  A    between atoms: C_7  and  N_8
REMARK    3  A    between atoms: N_8  and  C_9
REMARK    4  A    between atoms: C_9  and  C_10
REMARK    5  A    between atoms: C_15  and  C_16
REMARK                            x       y       z     vdW  Elec       q    Type
REMARK                         _______ _______ _______ _____ _____    ______ ____
ROOT
ATOM      1  C   UNL     1      48.100   6.623  14.307  0.00  0.00    +0.000 A 
ATOM      2  C   UNL     1      48.751   7.573  13.517  0.00  0.00    +0.000 A 
ATOM      3  C   UNL     1      48.401   7.710  12.181  0.00  0.00    +0.000 A 
ATOM      4  F   UNL     1      49.034   8.616  11.425  0.00  0.00    +0.000 F 
ATOM      5  C   UNL     1      47.404   6.924  11.610  0.00  0.00    +0.000 A 
ATOM      6  C   UNL     1      46.723   5.957  12.369  0.00  0.00    +0.000 A 
ATOM      7  C   UNL     1      47.097   5.826  13.722  0.00  0.00    +0.000 A 
ENDROOT
BRANCH   6   8
ATOM      8  C   UNL     1      45.662   5.110  11.777  0.00  0.00    +0.000 A 
ATOM      9  C   UNL     1      45.162   5.344  10.490  0.00  0.00    +0.000 A 
ATOM     10  C   UNL     1      44.167   4.519   9.988  0.00  0.00    +0.000 A 
ATOM     11  N   UNL     1      43.641   3.478  10.662  0.00  0.00    +0.000 NA
ATOM     12  C   UNL     1      44.121   3.246  11.894  0.00  0.00    +0.000 A 
ATOM     13  N   UNL     1      43.620   2.134  12.561  0.00  0.00    +0.000 N 
ATOM     14  C   UNL     1      45.113   4.023  12.475  0.00  0.00    +0.000 A 
ATOM     15  H   UNL     1      42.873   1.751  11.986  0.00  0.00    +0.000 HD
ATOM     16  H   UNL     1      43.306   2.361  13.496  0.00  0.00    +0.000 HD
ENDBRANCH   6   8
BRANCH   1  17
ATOM     17  C   UNL     1      48.447   6.454  15.769  0.00  0.00    +0.000 C 
BRANCH  17  18
ATOM     18  N   UNL     1      47.885   5.194  16.243  0.00  0.00    +0.000 N 
ATOM     19  H   UNL     1      47.232   4.797  15.575  0.00  0.00    +0.000 HD
BRANCH  18  23
ATOM     20  C   UNL     1      50.802   2.511  17.330  0.00  0.00    +0.000 A 
ATOM     21  C   UNL     1      49.659   2.086  16.673  0.00  0.00    +0.000 A 
ATOM     22  N   UNL     1      48.662   2.938  16.310  0.00  0.00    +0.000 NA
ATOM     23  C   UNL     1      48.833   4.238  16.628  0.00  0.00    +0.000 A 
ATOM     24  C   UNL     1      49.998   4.648  17.296  0.00  0.00    +0.000 A 
ATOM     25  N   UNL     1      51.004   3.810  17.673  0.00  0.00    +0.000 NA
BRANCH  20  27
ATOM     26  N   UNL     1      51.432   0.306  18.125  0.00  0.00    +0.000 N 
ATOM     27  C   UNL     1      51.862   1.524  17.669  0.00  0.00    +0.000 C 
ATOM     28  O   UNL     1      53.053   1.777  17.545  0.00  0.00    +0.000 OA
ATOM     29  H   UNL     1      52.115  -0.406  18.338  0.00  0.00    +0.000 HD
ATOM     30  H   UNL     1      50.442   0.095  18.167  0.00  0.00    +0.000 HD
ENDBRANCH  20  27
ENDBRANCH  18  23
ENDBRANCH  17  18
ENDBRANCH   1  17
TORSDOF 5
ENDMDL
MODEL 8
REMARK VINA RESULT:    -7.326      3.684      7.670
REMARK INTER + INTRA:         -10.162
REMARK INTER:                  -9.524
REMARK INTRA:                  -0.638
REMARK UNBOUND:                -0.695
REMARK  Name = 
REMARK  5 active torsions:
REMARK  status: ('A' for Active; 'I' for Inactive)
REMARK    1  A    between atoms: C_2  and  C_4
REMARK    2  A    between atoms: C_7  and  N_8
REMARK    3  A    between atoms: N_8  and  C_9
REMARK    4  A    between atoms: C_9  and  C_10
REMARK    5  A    between atoms: C_15  and  C_16
REMARK                            x       y       z     vdW  Elec       q    Type
REMARK                         _______ _______ _______ _____ _____    ______ ____
ROOT
ATOM      1  C   UNL     1      45.213   5.955  10.868  0.00  0.00    +0.000 A 
ATOM      2  C   UNL     1      44.001   5.541  11.425  0.00  0.00    +0.000 A 
ATOM      3  C   UNL     1      43.416   4.359  10.993  0.00  0.00    +0.000 A 
ATOM      4  F   UNL     1      42.250   3.970  11.523  0.00  0.00    +0.000 F 
ATOM      5  C   UNL     1      44.019   3.568  10.019  0.00  0.00    +0.000 A 
ATOM      6  C   UNL     1      45.238   3.946   9.432  0.00  0.00    +0.000 A 
ATOM      7  C   UNL     1      45.814   5.153   9.877  0.00  0.00    +0.000 A 
ENDROOT
BRANCH   6   8
ATOM      8  C   UNL     1      45.891   3.118   8.392  0.00  0.00    +0.000 A 
ATOM      9  C   UNL     1      46.449   3.685   7.240  0.00  0.00    +0.000 A 
ATOM     10  C   UNL     1      47.047   2.861   6.299  0.00  0.00    +0.000 A 
ATOM     11  N   UNL     1      47.137   1.522   6.420  0.00  0.00    +0.000 NA
ATOM     12  C   UNL     1      46.608   0.974   7.525  0.00  0.00    +0.000 A 
ATOM     13  N   UNL     1      46.758  -0.400   7.676  0.00  0.00    +0.000 N 
ATOM     14  C   UNL     1      45.989   1.724   8.516  0.00  0.00    +0.000 A 
ATOM     15  H   UNL     1      47.180  -0.751   6.819  0.00  0.00    +0.000 HD
ATOM     16  H   UNL     1      45.880  -0.857   7.886  0.00  0.00    +0.000 HD
ENDBRANCH   6   8
BRANCH   1  17
ATOM     17  C   UNL     1      45.885   7.231  11.322  0.00  0.00    +0.000 C 
BRANCH  17  18
ATOM     18  N   UNL     1      47.320   6.993  11.432  0.00  0.00    +0.000 N 
ATOM     19  H   UNL     1      47.858   7.683  10.917  0.00  0.00    +0.000 HD
BRANCH  18  23
ATOM     20  C   UNL     1      48.564   6.569  15.327  0.00  0.00    +0.000 A 
ATOM     21  C   UNL     1      48.764   7.759  14.645  0.00  0.00    +0.000 A 
ATOM     22  N   UNL     1      48.383   7.935  13.351  0.00  0.00    +0.000 NA
ATOM     23  C   UNL     1      47.796   6.883  12.745  0.00  0.00    +0.000 A 
ATOM     24  C   UNL     1      47.604   5.686  13.452  0.00  0.00    +0.000 A 
ATOM     25  N   UNL     1      47.983   5.486  14.746  0.00  0.00    +0.000 NA
BRANCH  20  27
ATOM     26  N   UNL     1      47.991   6.598  17.684  0.00  0.00    +0.000 N 
ATOM     27  C   UNL     1      48.982   6.461  16.750  0.00  0.00    +0.000 C 
ATOM     28  O   UNL     1      50.144   6.255  17.074  0.00  0.00    +0.000 OA
ATOM     29  H   UNL     1      48.222   6.501  18.663  0.00  0.00    +0.000 HD
ATOM     30  H   UNL     1      47.026   6.710  17.396  0.00  0.00    +0.000 HD
ENDBRANCH  20  27
ENDBRANCH  18  23
ENDBRANCH  17  18
ENDBRANCH   1  17
TORSDOF 5
ENDMDL
MODEL 9
REMARK VINA RESULT:    -6.934      5.036      8.329
REMARK INTER + INTRA:          -9.655
REMARK INTER:                  -8.998
REMARK INTRA:                  -0.658
REMARK UNBOUND:                -0.695
REMARK  Name = 
REMARK  5 active torsions:
REMARK  status: ('A' for Active; 'I' for Inactive)
REMARK    1  A    between atoms: C_2  and  C_4
REMARK    2  A    between atoms: C_7  and  N_8
REMARK    3  A    between atoms: N_8  and  C_9
REMARK    4  A    between atoms: C_9  and  C_10
REMARK    5  A    between atoms: C_15  and  C_16
REMARK                            x       y       z     vdW  Elec       q    Type
REMARK                         _______ _______ _______ _____ _____    ______ ____
ROOT
ATOM      1  C   UNL     1      47.576   7.193  13.185  0.00  0.00    +0.000 A 
ATOM      2  C   UNL     1      46.895   8.411  13.257  0.00  0.00    +0.000 A 
ATOM      3  C   UNL     1      45.610   8.508  12.743  0.00  0.00    +0.000 A 
ATOM      4  F   UNL     1      44.963   9.679  12.805  0.00  0.00    +0.000 F 
ATOM      5  C   UNL     1      44.977   7.412  12.163  0.00  0.00    +0.000 A 
ATOM      6  C   UNL     1      45.625   6.169  12.070  0.00  0.00    +0.000 A 
ATOM      7  C   UNL     1      46.933   6.090  12.590  0.00  0.00    +0.000 A 
ENDROOT
BRANCH   6   8
ATOM      8  C   UNL     1      44.968   4.994  11.453  0.00  0.00    +0.000 A 
ATOM      9  C   UNL     1      44.271   4.051  12.218  0.00  0.00    +0.000 A 
ATOM     10  C   UNL     1      43.677   2.969  11.586  0.00  0.00    +0.000 A 
ATOM     11  N   UNL     1      43.717   2.760  10.256  0.00  0.00    +0.000 NA
ATOM     12  C   UNL     1      44.380   3.663   9.518  0.00  0.00    +0.000 A 
ATOM     13  N   UNL     1      44.366   3.477   8.140  0.00  0.00    +0.000 N 
ATOM     14  C   UNL     1      45.006   4.773  10.068  0.00  0.00    +0.000 A 
ATOM     15  H   UNL     1      43.911   2.584   7.963  0.00  0.00    +0.000 HD
ATOM     16  H   UNL     1      45.296   3.518   7.741  0.00  0.00    +0.000 HD
ENDBRANCH   6   8
BRANCH   1  17
ATOM     17  C   UNL     1      48.973   7.046  13.744  0.00  0.00    +0.000 C 
BRANCH  17  18
ATOM     18  N   UNL     1      49.031   7.707  15.043  0.00  0.00    +0.000 N 
ATOM     19  H   UNL     1      48.368   8.473  15.107  0.00  0.00    +0.000 HD
BRANCH  18  23
ATOM     20  C   UNL     1      48.763   5.294  18.360  0.00  0.00    +0.000 A 
ATOM     21  C   UNL     1      48.711   4.754  17.085  0.00  0.00    +0.000 A 
ATOM     22  N   UNL     1      48.779   5.518  15.962  0.00  0.00    +0.000 NA
ATOM     23  C   UNL     1      48.896   6.849  16.142  0.00  0.00    +0.000 A 
ATOM     24  C   UNL     1      48.946   7.377  17.442  0.00  0.00    +0.000 A 
ATOM     25  N   UNL     1      48.873   6.631  18.580  0.00  0.00    +0.000 NA
BRANCH  20  27
ATOM     26  N   UNL     1      48.330   3.099  19.298  0.00  0.00    +0.000 N 
ATOM     27  C   UNL     1      48.711   4.391  19.541  0.00  0.00    +0.000 C 
ATOM     28  O   UNL     1      48.997   4.774  20.667  0.00  0.00    +0.000 OA
ATOM     29  H   UNL     1      48.310   2.441  20.064  0.00  0.00    +0.000 HD
ATOM     30  H   UNL     1      48.153   2.785  18.350  0.00  0.00    +0.000 HD
ENDBRANCH  20  27
ENDBRANCH  18  23
ENDBRANCH  17  18
ENDBRANCH   1  17
TORSDOF 5
ENDMDL
