MODEL 1
REMARK VINA RESULT:    -6.421      0.000      0.000
REMARK INTER + INTRA:          -8.784
REMARK INTER:                  -8.298
REMARK INTRA:                  -0.486
REMARK UNBOUND:                -0.486
REMARK  Name = 
REMARK  6 active torsions:
REMARK  status: ('A' for Active; 'I' for Inactive)
REMARK    1  A    between atoms: C_1  and  C_2
REMARK    2  A    between atoms: C_2  and  N_3
REMARK    3  A    between atoms: N_3  and  C_4
REMARK    4  A    between atoms: C_8  and  C_9
REMARK    5  A    between atoms: C_10  and  N_11
REMARK    6  A    between atoms: C_15  and  C_16
REMARK                            x       y       z     vdW  Elec       q    Type
REMARK                         _______ _______ _______ _____ _____    ______ ____
ROOT
ATOM      1  C   UNL     1      47.189   3.956  16.922  0.00  0.00    +0.000 C 
ATOM      2  C   UNL     1      47.742   3.872  15.705  0.00  0.00    +0.000 C 
ENDROOT
BRANCH   2   3
ATOM      3  N   UNL     1      47.227   3.352  14.548  0.00  0.00    +0.000 N 
ATOM      4  C   UNL     1      46.321   3.984  13.687  0.00  0.00    +0.000 A 
ATOM      5  C   UNL     1      46.200   5.378  13.602  0.00  0.00    +0.000 A 
ATOM      6  N   UNL     1      45.305   6.028  12.814  0.00  0.00    +0.000 NA
ATOM      7  C   UNL     1      44.510   5.207  12.087  0.00  0.00    +0.000 A 
ATOM      8  C   UNL     1      44.622   3.827  12.138  0.00  0.00    +0.000 A 
ATOM      9  N   UNL     1      45.536   3.190  12.925  0.00  0.00    +0.000 NA
ATOM     10  H   UNL     1      47.252   2.344  14.427  0.00  0.00    +0.000 HD
BRANCH   7  11
ATOM     11  C   UNL     1      43.484   5.844  11.213  0.00  0.00    +0.000 C 
ATOM     12  N   UNL     1      43.491   7.207  11.185  0.00  0.00    +0.000 N 
ATOM     13  O   UNL     1      42.685   5.186  10.566  0.00  0.00    +0.000 OA
ATOM     14  H   UNL     1      44.161   7.733  11.735  0.00  0.00    +0.000 HD
ATOM     15  H   UNL     1      42.813   7.691  10.613  0.00  0.00    +0.000 HD
ENDBRANCH   7  11
ENDBRANCH   2   3
BRANCH   1  20
ATOM     16  C   UNL     1      50.032   4.623  19.340  0.00  0.00    +0.000 A 
ATOM     17  C   UNL     1      49.491   5.650  20.113  0.00  0.00    +0.000 A 
ATOM     18  C   UNL     1      48.191   6.100  19.885  0.00  0.00    +0.000 A 
ATOM     19  C   UNL     1      47.416   5.521  18.881  0.00  0.00    +0.000 A 
ATOM     20  C   UNL     1      47.943   4.513  18.062  0.00  0.00    +0.000 A 
ATOM     21  C   UNL     1      49.237   4.046  18.332  0.00  0.00    +0.000 A 
BRANCH  16  22
ATOM     22  N   UNL     1      51.307   4.076  19.575  0.00  0.00    +0.000 N 
ATOM     23  H   UNL     1      51.303   3.447  20.375  0.00  0.00    +0.000 HD
BRANCH  22  25
ATOM     24  C   UNL     1      52.662   5.066  17.775  0.00  0.00    +0.000 C 
ATOM     25  C   UNL     1      52.418   3.868  18.669  0.00  0.00    +0.000 C 
ATOM     26  C   UNL     1      53.658   3.178  19.282  0.00  0.00    +0.000 C 
ATOM     27  O   UNL     1      53.202   1.871  18.842  0.00  0.00    +0.000 OA
ATOM     28  C   UNL     1      52.253   2.504  17.944  0.00  0.00    +0.000 C 
ENDBRANCH  22  25
ENDBRANCH  16  22
ENDBRANCH   1  20
TORSDOF 5
ENDMDL
MODEL 2
REMARK VINA RESULT:    -6.319      2.841      3.836
REMARK INTER + INTRA:          -8.652
REMARK INTER:                  -8.007
REMARK INTRA:                  -0.645
REMARK UNBOUND:                -0.486
REMARK  Name = 
REMARK  6 active torsions:
REMARK  status: ('A' for Active; 'I' for Inactive)
REMARK    1  A    between atoms: C_1  and  C_2
REMARK    2  A    between atoms: C_2  and  N_3
REMARK    3  A    between atoms: N_3  and  C_4
REMARK    4  A    between atoms: C_8  and  C_9
REMARK    5  A    between atoms: C_10  and  N_11
REMARK    6  A    between atoms: C_15  and  C_16
REMARK                            x       y       z     vdW  Elec       q    Type
REMARK                         _______ _______ _______ _____ _____    ______ ____
ROOT
ATOM      1  C   UNL     1      47.781   3.549  17.060  0.00  0.00    +0.000 C 
ATOM      2  C   UNL     1      47.403   4.071  15.885  0.00  0.00    +0.000 C 
ENDROOT
BRANCH   2   3
ATOM      3  N   UNL     1      47.179   3.448  14.687  0.00  0.00    +0.000 N 
ATOM      4  C   UNL     1      46.312   3.884  13.677  0.00  0.00    +0.000 A 
ATOM      5  C   UNL     1      45.945   5.227  13.518  0.00  0.00    +0.000 A 
ATOM      6  N   UNL     1      45.075   5.684  12.580  0.00  0.00    +0.000 NA
ATOM      7  C   UNL     1      44.570   4.716  11.777  0.00  0.00    +0.000 A 
ATOM      8  C   UNL     1      44.932   3.385  11.900  0.00  0.00    +0.000 A 
ATOM      9  N   UNL     1      45.818   2.945  12.839  0.00  0.00    +0.000 NA
ATOM     10  H   UNL     1      47.412   2.463  14.612  0.00  0.00    +0.000 HD
BRANCH   7  11
ATOM     11  C   UNL     1      43.589   5.134  10.736  0.00  0.00    +0.000 C 
ATOM     12  N   UNL     1      43.818   4.661   9.478  0.00  0.00    +0.000 N 
ATOM     13  O   UNL     1      42.640   5.857  10.994  0.00  0.00    +0.000 OA
ATOM     14  H   UNL     1      44.616   4.065   9.286  0.00  0.00    +0.000 HD
ATOM     15  H   UNL     1      43.186   4.917   8.733  0.00  0.00    +0.000 HD
ENDBRANCH   7  11
ENDBRANCH   2   3
BRANCH   1  20
ATOM     16  C   UNL     1      47.722   6.582  19.335  0.00  0.00    +0.000 A 
ATOM     17  C   UNL     1      48.301   6.060  20.492  0.00  0.00    +0.000 A 
ATOM     18  C   UNL     1      48.751   4.741  20.527  0.00  0.00    +0.000 A 
ATOM     19  C   UNL     1      48.631   3.931  19.398  0.00  0.00    +0.000 A 
ATOM     20  C   UNL     1      48.021   4.413  18.233  0.00  0.00    +0.000 A 
ATOM     21  C   UNL     1      47.611   5.753  18.203  0.00  0.00    +0.000 A 
BRANCH  16  22
ATOM     22  N   UNL     1      47.322   7.926  19.215  0.00  0.00    +0.000 N 
ATOM     23  H   UNL     1      46.464   8.108  19.731  0.00  0.00    +0.000 HD
BRANCH  22  25
ATOM     24  C   UNL     1      47.842  10.223  19.929  0.00  0.00    +0.000 C 
ATOM     25  C   UNL     1      48.102   9.113  18.932  0.00  0.00    +0.000 C 
ATOM     26  C   UNL     1      49.570   8.862  18.517  0.00  0.00    +0.000 C 
ATOM     27  O   UNL     1      49.222   8.892  17.107  0.00  0.00    +0.000 OA
ATOM     28  C   UNL     1      47.944   9.497  17.435  0.00  0.00    +0.000 C 
ENDBRANCH  22  25
ENDBRANCH  16  22
ENDBRANCH   1  20
TORSDOF 5
ENDMDL
MODEL 3
REMARK VINA RESULT:    -6.007      3.185      9.419
REMARK INTER + INTRA:          -8.249
REMARK INTER:                  -7.767
REMARK INTRA:                  -0.483
REMARK UNBOUND:                -0.486
REMARK  Name = 
REMARK  6 active torsions:
REMARK  status: ('A' for Active; 'I' for Inactive)
REMARK    1  A    between atoms: C_1  and  C_2
REMARK    2  A    between atoms: C_2  and  N_3
REMARK    3  A    between atoms: N_3  and  C_4
REMARK    4  A    between atoms: C_8  and  C_9
REMARK    5  A    between atoms: C_10  and  N_11
REMARK    6  A    between atoms: C_15  and  C_16
REMARK                            x       y       z     vdW  Elec       q    Type
REMARK                         _______ _______ _______ _____ _____    ______ ____
ROOT
ATOM      1  C   UNL     1      45.983   6.396  13.409  0.00  0.00    +0.000 C 
ATOM      2  C   UNL     1      47.142   5.797  13.712  0.00  0.00    +0.000 C 
ENDROOT
BRANCH   2   3
ATOM      3  N   UNL     1      48.140   6.206  14.554  0.00  0.00    +0.000 N 
ATOM      4  C   UNL     1      48.294   5.835  15.896  0.00  0.00    +0.000 A 
ATOM      5  C   UNL     1      47.776   4.642  16.420  0.00  0.00    +0.000 A 
ATOM      6  N   UNL     1      47.866   4.268  17.722  0.00  0.00    +0.000 NA
ATOM      7  C   UNL     1      48.518   5.157  18.509  0.00  0.00    +0.000 A 
ATOM      8  C   UNL     1      49.057   6.333  18.013  0.00  0.00    +0.000 A 
ATOM      9  N   UNL     1      48.969   6.688  16.700  0.00  0.00    +0.000 NA
ATOM     10  H   UNL     1      48.647   7.052  14.316  0.00  0.00    +0.000 HD
BRANCH   7  11
ATOM     11  C   UNL     1      48.638   4.830  19.958  0.00  0.00    +0.000 C 
ATOM     12  N   UNL     1      48.596   3.504  20.274  0.00  0.00    +0.000 N 
ATOM     13  O   UNL     1      48.763   5.695  20.810  0.00  0.00    +0.000 OA
ATOM     14  H   UNL     1      48.487   2.802  19.550  0.00  0.00    +0.000 HD
ATOM     15  H   UNL     1      48.668   3.226  21.243  0.00  0.00    +0.000 HD
ENDBRANCH   7  11
ENDBRANCH   2   3
BRANCH   1  20
ATOM     16  C   UNL     1      44.702   4.837  10.198  0.00  0.00    +0.000 A 
ATOM     17  C   UNL     1      43.391   4.526  10.556  0.00  0.00    +0.000 A 
ATOM     18  C   UNL     1      42.902   4.858  11.820  0.00  0.00    +0.000 A 
ATOM     19  C   UNL     1      43.724   5.511  12.738  0.00  0.00    +0.000 A 
ATOM     20  C   UNL     1      45.057   5.805  12.422  0.00  0.00    +0.000 A 
ATOM     21  C   UNL     1      45.518   5.500  11.134  0.00  0.00    +0.000 A 
BRANCH  16  22
ATOM     22  N   UNL     1      45.225   4.598   8.913  0.00  0.00    +0.000 N 
ATOM     23  H   UNL     1      45.724   5.410   8.556  0.00  0.00    +0.000 HD
BRANCH  22  25
ATOM     24  C   UNL     1      45.401   2.158   9.177  0.00  0.00    +0.000 C 
ATOM     25  C   UNL     1      45.581   3.354   8.265  0.00  0.00    +0.000 C 
ATOM     26  C   UNL     1      45.108   3.206   6.801  0.00  0.00    +0.000 C 
ATOM     27  O   UNL     1      46.376   3.701   6.295  0.00  0.00    +0.000 OA
ATOM     28  C   UNL     1      46.978   3.493   7.599  0.00  0.00    +0.000 C 
ENDBRANCH  22  25
ENDBRANCH  16  22
ENDBRANCH   1  20
TORSDOF 5
ENDMDL
MODEL 4
REMARK VINA RESULT:    -5.991      3.183      9.058
REMARK INTER + INTRA:          -8.228
REMARK INTER:                  -7.896
REMARK INTRA:                  -0.331
REMARK UNBOUND:                -0.486
REMARK  Name = 
REMARK  6 active torsions:
REMARK  status: ('A' for Active; 'I' for Inactive)
REMARK    1  A    between atoms: C_1  and  C_2
REMARK    2  A    between atoms: C_2  and  N_3
REMARK    3  A    between atoms: N_3  and  C_4
REMARK    4  A    between atoms: C_8  and  C_9
REMARK    5  A    between atoms: C_10  and  N_11
REMARK    6  A    between atoms: C_15  and  C_16
REMARK                            x       y       z     vdW  Elec       q    Type
REMARK                         _______ _______ _______ _____ _____    ______ ____
ROOT
ATOM      1  C   UNL     1      47.788   9.194  13.198  0.00  0.00    +0.000 C 
ATOM      2  C   UNL     1      47.707   8.607  14.399  0.00  0.00    +0.000 C 
ENDROOT
BRANCH   2   3
ATOM      3  N   UNL     1      48.702   8.298  15.287  0.00  0.00    +0.000 N 
ATOM      4  C   UNL     1      48.845   7.092  15.985  0.00  0.00    +0.000 A 
ATOM      5  C   UNL     1      48.315   5.880  15.522  0.00  0.00    +0.000 A 
ATOM      6  N   UNL     1      48.392   4.699  16.189  0.00  0.00    +0.000 NA
ATOM      7  C   UNL     1      49.046   4.775  17.374  0.00  0.00    +0.000 A 
ATOM      8  C   UNL     1      49.597   5.956  17.843  0.00  0.00    +0.000 A 
ATOM      9  N   UNL     1      49.521   7.131  17.155  0.00  0.00    +0.000 NA
ATOM     10  H   UNL     1      49.217   9.064  15.709  0.00  0.00    +0.000 HD
BRANCH   7  11
ATOM     11  C   UNL     1      49.153   3.525  18.178  0.00  0.00    +0.000 C 
ATOM     12  N   UNL     1      48.535   3.545  19.393  0.00  0.00    +0.000 N 
ATOM     13  O   UNL     1      49.759   2.545  17.775  0.00  0.00    +0.000 OA
ATOM     14  H   UNL     1      48.042   4.372  19.710  0.00  0.00    +0.000 HD
ATOM     15  H   UNL     1      48.581   2.725  19.982  0.00  0.00    +0.000 HD
ENDBRANCH   7  11
ENDBRANCH   2   3
BRANCH   1  20
ATOM     16  C   UNL     1      44.498   8.488  11.452  0.00  0.00    +0.000 A 
ATOM     17  C   UNL     1      44.195   9.745  10.932  0.00  0.00    +0.000 A 
ATOM     18  C   UNL     1      45.073  10.815  11.105  0.00  0.00    +0.000 A 
ATOM     19  C   UNL     1      46.269  10.633  11.799  0.00  0.00    +0.000 A 
ATOM     20  C   UNL     1      46.585   9.391  12.366  0.00  0.00    +0.000 A 
ATOM     21  C   UNL     1      45.710   8.318  12.147  0.00  0.00    +0.000 A 
BRANCH  16  22
ATOM     22  N   UNL     1      43.689   7.355  11.242  0.00  0.00    +0.000 N 
ATOM     23  H   UNL     1      43.004   7.516  10.507  0.00  0.00    +0.000 HD
BRANCH  22  25
ATOM     24  C   UNL     1      45.018   5.388  10.592  0.00  0.00    +0.000 C 
ATOM     25  C   UNL     1      43.952   5.956  11.506  0.00  0.00    +0.000 C 
ATOM     26  C   UNL     1      44.015   5.560  13.000  0.00  0.00    +0.000 C 
ATOM     27  O   UNL     1      42.613   5.181  13.004  0.00  0.00    +0.000 OA
ATOM     28  C   UNL     1      42.611   5.172  11.553  0.00  0.00    +0.000 C 
ENDBRANCH  22  25
ENDBRANCH  16  22
ENDBRANCH   1  20
TORSDOF 5
ENDMDL
MODEL 5
REMARK VINA RESULT:    -5.982      2.610      3.825
REMARK INTER + INTRA:          -8.216
REMARK INTER:                  -7.643
REMARK INTRA:                  -0.574
REMARK UNBOUND:                -0.486
REMARK  Name = 
REMARK  6 active torsions:
REMARK  status: ('A' for Active; 'I' for Inactive)
REMARK    1  A    between atoms: C_1  and  C_2
REMARK    2  A    between atoms: C_2  and  N_3
REMARK    3  A    between atoms: N_3  and  C_4
REMARK    4  A    between atoms: C_8  and  C_9
REMARK    5  A    between atoms: C_10  and  N_11
REMARK    6  A    between atoms: C_15  and  C_16
REMARK                            x       y       z     vdW  Elec       q    Type
REMARK                         _______ _______ _______ _____ _____    ______ ____
ROOT
ATOM      1  C   UNL     1      49.125   7.442  13.491  0.00  0.00    +0.000 C 
ATOM      2  C   UNL     1      47.817   7.215  13.677  0.00  0.00    +0.000 C 
ENDROOT
BRANCH   2   3
ATOM      3  N   UNL     1      46.796   7.211  12.766  0.00  0.00    +0.000 N 
ATOM      4  C   UNL     1      46.047   6.096  12.367  0.00  0.00    +0.000 A 
ATOM      5  C   UNL     1      45.884   4.962  13.174  0.00  0.00    +0.000 A 
ATOM      6  N   UNL     1      45.204   3.844  12.808  0.00  0.00    +0.000 NA
ATOM      7  C   UNL     1      44.670   3.906  11.564  0.00  0.00    +0.000 A 
ATOM      8  C   UNL     1      44.799   5.023  10.754  0.00  0.00    +0.000 A 
ATOM      9  N   UNL     1      45.475   6.142  11.143  0.00  0.00    +0.000 NA
ATOM     10  H   UNL     1      46.743   7.981  12.107  0.00  0.00    +0.000 HD
BRANCH   7  11
ATOM     11  C   UNL     1      43.928   2.709  11.077  0.00  0.00    +0.000 C 
ATOM     12  N   UNL     1      44.413   2.129   9.942  0.00  0.00    +0.000 N 
ATOM     13  O   UNL     1      42.945   2.276  11.658  0.00  0.00    +0.000 OA
ATOM     14  H   UNL     1      45.228   2.509   9.474  0.00  0.00    +0.000 HD
ATOM     15  H   UNL     1      43.944   1.317   9.566  0.00  0.00    +0.000 HD
ENDBRANCH   7  11
ENDBRANCH   2   3
BRANCH   1  20
ATOM     16  C   UNL     1      50.588   6.752  16.920  0.00  0.00    +0.000 A 
ATOM     17  C   UNL     1      51.866   7.293  16.779  0.00  0.00    +0.000 A 
ATOM     18  C   UNL     1      52.245   7.920  15.593  0.00  0.00    +0.000 A 
ATOM     19  C   UNL     1      51.342   8.017  14.535  0.00  0.00    +0.000 A 
ATOM     20  C   UNL     1      50.063   7.452  14.630  0.00  0.00    +0.000 A 
ATOM     21  C   UNL     1      49.687   6.861  15.845  0.00  0.00    +0.000 A 
BRANCH  16  22
ATOM     22  N   UNL     1      50.125   6.178  18.119  0.00  0.00    +0.000 N 
ATOM     23  H   UNL     1      49.332   6.692  18.497  0.00  0.00    +0.000 HD
BRANCH  22  25
ATOM     24  C   UNL     1      50.624   4.771  20.075  0.00  0.00    +0.000 C 
ATOM     25  C   UNL     1      50.238   4.822  18.612  0.00  0.00    +0.000 C 
ATOM     26  C   UNL     1      49.136   3.846  18.137  0.00  0.00    +0.000 C 
ATOM     27  O   UNL     1      49.957   3.391  17.028  0.00  0.00    +0.000 OA
ATOM     28  C   UNL     1      51.126   3.987  17.648  0.00  0.00    +0.000 C 
ENDBRANCH  22  25
ENDBRANCH  16  22
ENDBRANCH   1  20
TORSDOF 5
ENDMDL
MODEL 6
REMARK VINA RESULT:    -5.626      2.873      9.045
REMARK INTER + INTRA:          -7.756
REMARK INTER:                  -7.177
REMARK INTRA:                  -0.579
REMARK UNBOUND:                -0.486
REMARK  Name = 
REMARK  6 active torsions:
REMARK  status: ('A' for Active; 'I' for Inactive)
REMARK    1  A    between atoms: C_1  and  C_2
REMARK    2  A    between atoms: C_2  and  N_3
REMARK    3  A    between atoms: N_3  and  C_4
REMARK    4  A    between atoms: C_8  and  C_9
REMARK    5  A    between atoms: C_10  and  N_11
REMARK    6  A    between atoms: C_15  and  C_16
REMARK                            x       y       z     vdW  Elec       q    Type
REMARK                         _______ _______ _______ _____ _____    ______ ____
ROOT
ATOM      1  C   UNL     1      47.739   8.176  14.132  0.00  0.00    +0.000 C 
ATOM      2  C   UNL     1      48.608   7.155  14.130  0.00  0.00    +0.000 C 
ENDROOT
BRANCH   2   3
ATOM      3  N   UNL     1      49.679   6.922  14.949  0.00  0.00    +0.000 N 
ATOM      4  C   UNL     1      49.636   6.352  16.228  0.00  0.00    +0.000 A 
ATOM      5  C   UNL     1      48.605   5.499  16.645  0.00  0.00    +0.000 A 
ATOM      6  N   UNL     1      48.502   4.962  17.888  0.00  0.00    +0.000 NA
ATOM      7  C   UNL     1      49.504   5.318  18.728  0.00  0.00    +0.000 A 
ATOM      8  C   UNL     1      50.545   6.144  18.336  0.00  0.00    +0.000 A 
ATOM      9  N   UNL     1      50.639   6.664  17.079  0.00  0.00    +0.000 NA
ATOM     10  H   UNL     1      50.532   7.444  14.777  0.00  0.00    +0.000 HD
BRANCH   7  11
ATOM     11  C   UNL     1      49.451   4.788  20.121  0.00  0.00    +0.000 C 
ATOM     12  N   UNL     1      50.656   4.550  20.712  0.00  0.00    +0.000 N 
ATOM     13  O   UNL     1      48.394   4.579  20.694  0.00  0.00    +0.000 OA
ATOM     14  H   UNL     1      51.522   4.726  20.214  0.00  0.00    +0.000 HD
ATOM     15  H   UNL     1      50.678   4.185  21.655  0.00  0.00    +0.000 HD
ENDBRANCH   7  11
ENDBRANCH   2   3
BRANCH   1  20
ATOM     16  C   UNL     1      45.234   7.141  11.482  0.00  0.00    +0.000 A 
ATOM     17  C   UNL     1      44.538   8.335  11.291  0.00  0.00    +0.000 A 
ATOM     18  C   UNL     1      44.903   9.488  11.984  0.00  0.00    +0.000 A 
ATOM     19  C   UNL     1      45.976   9.458  12.875  0.00  0.00    +0.000 A 
ATOM     20  C   UNL     1      46.672   8.266  13.117  0.00  0.00    +0.000 A 
ATOM     21  C   UNL     1      46.316   7.128  12.381  0.00  0.00    +0.000 A 
BRANCH  16  22
ATOM     22  N   UNL     1      44.961   5.968  10.753  0.00  0.00    +0.000 N 
ATOM     23  H   UNL     1      45.730   5.727  10.131  0.00  0.00    +0.000 HD
BRANCH  22  25
ATOM     24  C   UNL     1      42.768   5.318  11.659  0.00  0.00    +0.000 C 
ATOM     25  C   UNL     1      44.080   4.861  11.058  0.00  0.00    +0.000 C 
ATOM     26  C   UNL     1      44.019   3.744   9.990  0.00  0.00    +0.000 C 
ATOM     27  O   UNL     1      45.041   2.972  10.676  0.00  0.00    +0.000 OA
ATOM     28  C   UNL     1      44.856   3.783  11.865  0.00  0.00    +0.000 C 
ENDBRANCH  22  25
ENDBRANCH  16  22
ENDBRANCH   1  20
TORSDOF 5
ENDMDL
MODEL 7
REMARK VINA RESULT:    -5.576      1.760      2.183
REMARK INTER + INTRA:          -7.692
REMARK INTER:                  -7.237
REMARK INTRA:                  -0.455
REMARK UNBOUND:                -0.486
REMARK  Name = 
REMARK  6 active torsions:
REMARK  status: ('A' for Active; 'I' for Inactive)
REMARK    1  A    between atoms: C_1  and  C_2
REMARK    2  A    between atoms: C_2  and  N_3
REMARK    3  A    between atoms: N_3  and  C_4
REMARK    4  A    between atoms: C_8  and  C_9
REMARK    5  A    between atoms: C_10  and  N_11
REMARK    6  A    between atoms: C_15  and  C_16
REMARK                            x       y       z     vdW  Elec       q    Type
REMARK                         _______ _______ _______ _____ _____    ______ ____
ROOT
ATOM      1  C   UNL     1      49.123   6.550  15.866  0.00  0.00    +0.000 C 
ATOM      2  C   UNL     1      48.148   6.031  15.108  0.00  0.00    +0.000 C 
ENDROOT
BRANCH   2   3
ATOM      3  N   UNL     1      47.522   6.560  14.012  0.00  0.00    +0.000 N 
ATOM      4  C   UNL     1      46.589   5.908  13.196  0.00  0.00    +0.000 A 
ATOM      5  C   UNL     1      45.798   4.843  13.648  0.00  0.00    +0.000 A 
ATOM      6  N   UNL     1      44.915   4.155  12.878  0.00  0.00    +0.000 NA
ATOM      7  C   UNL     1      44.846   4.589  11.596  0.00  0.00    +0.000 A 
ATOM      8  C   UNL     1      45.601   5.652  11.129  0.00  0.00    +0.000 A 
ATOM      9  N   UNL     1      46.474   6.340  11.920  0.00  0.00    +0.000 NA
ATOM     10  H   UNL     1      47.948   7.364  13.562  0.00  0.00    +0.000 HD
BRANCH   7  11
ATOM     11  C   UNL     1      43.916   3.870  10.679  0.00  0.00    +0.000 C 
ATOM     12  N   UNL     1      43.832   4.363   9.411  0.00  0.00    +0.000 N 
ATOM     13  O   UNL     1      43.267   2.902  11.043  0.00  0.00    +0.000 OA
ATOM     14  H   UNL     1      44.377   5.172   9.132  0.00  0.00    +0.000 HD
ATOM     15  H   UNL     1      43.212   3.917   8.749  0.00  0.00    +0.000 HD
ENDBRANCH   7  11
ENDBRANCH   2   3
BRANCH   1  20
ATOM     16  C   UNL     1      51.532   5.160  18.443  0.00  0.00    +0.000 A 
ATOM     17  C   UNL     1      50.646   4.617  19.372  0.00  0.00    +0.000 A 
ATOM     18  C   UNL     1      49.270   4.659  19.149  0.00  0.00    +0.000 A 
ATOM     19  C   UNL     1      48.768   5.242  17.987  0.00  0.00    +0.000 A 
ATOM     20  C   UNL     1      49.629   5.830  17.051  0.00  0.00    +0.000 A 
ATOM     21  C   UNL     1      51.010   5.742  17.273  0.00  0.00    +0.000 A 
BRANCH  16  22
ATOM     22  N   UNL     1      52.931   5.077  18.576  0.00  0.00    +0.000 N 
ATOM     23  H   UNL     1      53.268   5.649  19.347  0.00  0.00    +0.000 HD
BRANCH  22  25
ATOM     24  C   UNL     1      54.782   4.483  17.067  0.00  0.00    +0.000 C 
ATOM     25  C   UNL     1      53.849   4.033  18.172  0.00  0.00    +0.000 C 
ATOM     26  C   UNL     1      54.464   3.204  19.323  0.00  0.00    +0.000 C 
ATOM     27  O   UNL     1      53.433   2.188  19.200  0.00  0.00    +0.000 OA
ATOM     28  C   UNL     1      53.063   2.721  17.902  0.00  0.00    +0.000 C 
ENDBRANCH  22  25
ENDBRANCH  16  22
ENDBRANCH   1  20
TORSDOF 5
ENDMDL
MODEL 8
REMARK VINA RESULT:    -5.525      5.956      7.658
REMARK INTER + INTRA:          -7.625
REMARK INTER:                  -7.068
REMARK INTRA:                  -0.558
REMARK UNBOUND:                -0.486
REMARK  Name = 
REMARK  6 active torsions:
REMARK  status: ('A' for Active; 'I' for Inactive)
REMARK    1  A    between atoms: C_1  and  C_2
REMARK    2  A    between atoms: C_2  and  N_3
REMARK    3  A    between atoms: N_3  and  C_4
REMARK    4  A    between atoms: C_8  and  C_9
REMARK    5  A    between atoms: C_10  and  N_11
REMARK    6  A    between atoms: C_15  and  C_16
REMARK                            x       y       z     vdW  Elec       q    Type
REMARK                         _______ _______ _______ _____ _____    ______ ____
ROOT
ATOM      1  C   UNL     1      48.975   7.864  11.933  0.00  0.00    +0.000 C 
ATOM      2  C   UNL     1      48.335   7.794  13.108  0.00  0.00    +0.000 C 
ENDROOT
BRANCH   2   3
ATOM      3  N   UNL     1      46.994   7.710  13.367  0.00  0.00    +0.000 N 
ATOM      4  C   UNL     1      46.155   6.633  13.049  0.00  0.00    +0.000 A 
ATOM      5  C   UNL     1      46.628   5.323  12.890  0.00  0.00    +0.000 A 
ATOM      6  N   UNL     1      45.857   4.261  12.540  0.00  0.00    +0.000 NA
ATOM      7  C   UNL     1      44.550   4.566  12.350  0.00  0.00    +0.000 A 
ATOM      8  C   UNL     1      44.054   5.849  12.520  0.00  0.00    +0.000 A 
ATOM      9  N   UNL     1      44.840   6.901  12.885  0.00  0.00    +0.000 NA
ATOM     10  H   UNL     1      46.486   8.572  13.531  0.00  0.00    +0.000 HD
BRANCH   7  11
ATOM     11  C   UNL     1      43.642   3.458  11.940  0.00  0.00    +0.000 C 
ATOM     12  N   UNL     1      43.794   2.283  12.614  0.00  0.00    +0.000 N 
ATOM     13  O   UNL     1      42.814   3.595  11.053  0.00  0.00    +0.000 OA
ATOM     14  H   UNL     1      44.492   2.192  13.344  0.00  0.00    +0.000 HD
ATOM     15  H   UNL     1      43.207   1.497  12.372  0.00  0.00    +0.000 HD
ENDBRANCH   7  11
ENDBRANCH   2   3
BRANCH   1  20
ATOM     16  C   UNL     1      52.529   7.705  10.623  0.00  0.00    +0.000 A 
ATOM     17  C   UNL     1      53.215   8.388  11.627  0.00  0.00    +0.000 A 
ATOM     18  C   UNL     1      52.540   8.863  12.751  0.00  0.00    +0.000 A 
ATOM     19  C   UNL     1      51.168   8.654  12.882  0.00  0.00    +0.000 A 
ATOM     20  C   UNL     1      50.443   8.004  11.875  0.00  0.00    +0.000 A 
ATOM     21  C   UNL     1      51.145   7.499  10.772  0.00  0.00    +0.000 A 
BRANCH  16  22
ATOM     22  N   UNL     1      53.169   7.136   9.506  0.00  0.00    +0.000 N 
ATOM     23  H   UNL     1      53.338   6.141   9.639  0.00  0.00    +0.000 HD
BRANCH  22  25
ATOM     24  C   UNL     1      53.057   9.058   7.974  0.00  0.00    +0.000 C 
ATOM     25  C   UNL     1      53.184   7.556   8.121  0.00  0.00    +0.000 C 
ATOM     26  C   UNL     1      54.216   6.841   7.219  0.00  0.00    +0.000 C 
ATOM     27  O   UNL     1      53.231   5.862   6.793  0.00  0.00    +0.000 OA
ATOM     28  C   UNL     1      52.168   6.707   7.307  0.00  0.00    +0.000 C 
ENDBRANCH  22  25
ENDBRANCH  16  22
ENDBRANCH   1  20
TORSDOF 5
ENDMDL
MODEL 9
REMARK VINA RESULT:    -5.439      3.906      9.445
REMARK INTER + INTRA:          -7.515
REMARK INTER:                  -6.965
REMARK INTRA:                  -0.550
REMARK UNBOUND:                -0.486
REMARK  Name = 
REMARK  6 active torsions:
REMARK  status: ('A' for Active; 'I' for Inactive)
REMARK    1  A    between atoms: C_1  and  C_2
REMARK    2  A    between atoms: C_2  and  N_3
REMARK    3  A    between atoms: N_3  and  C_4
REMARK    4  A    between atoms: C_8  and  C_9
REMARK    5  A    between atoms: C_10  and  N_11
REMARK    6  A    between atoms: C_15  and  C_16
REMARK                            x       y       z     vdW  Elec       q    Type
REMARK                         _______ _______ _______ _____ _____    ______ ____
ROOT
ATOM      1  C   UNL     1      46.477   6.805  12.730  0.00  0.00    +0.000 C 
ATOM      2  C   UNL     1      47.708   6.276  12.733  0.00  0.00    +0.000 C 
ENDROOT
BRANCH   2   3
ATOM      3  N   UNL     1      48.884   6.811  13.182  0.00  0.00    +0.000 N 
ATOM      4  C   UNL     1      49.224   7.063  14.517  0.00  0.00    +0.000 A 
ATOM      5  C   UNL     1      48.653   6.365  15.590  0.00  0.00    +0.000 A 
ATOM      6  N   UNL     1      48.922   6.608  16.900  0.00  0.00    +0.000 NA
ATOM      7  C   UNL     1      49.816   7.605  17.104  0.00  0.00    +0.000 A 
ATOM      8  C   UNL     1      50.410   8.297  16.061  0.00  0.00    +0.000 A 
ATOM      9  N   UNL     1      50.138   8.031  14.751  0.00  0.00    +0.000 NA
ATOM     10  H   UNL     1      49.449   7.338  12.523  0.00  0.00    +0.000 HD
BRANCH   7  11
ATOM     11  C   UNL     1      50.147   7.950  18.516  0.00  0.00    +0.000 C 
ATOM     12  N   UNL     1      51.350   8.560  18.713  0.00  0.00    +0.000 N 
ATOM     13  O   UNL     1      49.389   7.697  19.439  0.00  0.00    +0.000 OA
ATOM     14  H   UNL     1      51.966   8.755  17.932  0.00  0.00    +0.000 HD
ATOM     15  H   UNL     1      51.627   8.811  19.653  0.00  0.00    +0.000 HD
ENDBRANCH   7  11
ENDBRANCH   2   3
BRANCH   1  20
ATOM     16  C   UNL     1      44.404   4.800  10.268  0.00  0.00    +0.000 A 
ATOM     17  C   UNL     1      43.269   4.529  11.032  0.00  0.00    +0.000 A 
ATOM     18  C   UNL     1      43.150   5.028  12.328  0.00  0.00    +0.000 A 
ATOM     19  C   UNL     1      44.168   5.812  12.872  0.00  0.00    +0.000 A 
ATOM     20  C   UNL     1      45.337   6.072  12.144  0.00  0.00    +0.000 A 
ATOM     21  C   UNL     1      45.421   5.595  10.829  0.00  0.00    +0.000 A 
BRANCH  16  22
ATOM     22  N   UNL     1      44.544   4.390   8.929  0.00  0.00    +0.000 N 
ATOM     23  H   UNL     1      44.327   5.145   8.282  0.00  0.00    +0.000 HD
BRANCH  22  25
ATOM     24  C   UNL     1      45.345   2.079   9.202  0.00  0.00    +0.000 C 
ATOM     25  C   UNL     1      45.350   3.334   8.353  0.00  0.00    +0.000 C 
ATOM     26  C   UNL     1      45.221   3.155   6.823  0.00  0.00    +0.000 C 
ATOM     27  O   UNL     1      46.371   4.009   6.582  0.00  0.00    +0.000 OA
ATOM     28  C   UNL     1      46.751   3.892   7.978  0.00  0.00    +0.000 C 
ENDBRANCH  22  25
ENDBRANCH  16  22
ENDBRANCH   1  20
TORSDOF 5
ENDMDL
