MODEL 1
REMARK VINA RESULT:    -8.042      0.000      0.000
REMARK INTER + INTRA:         -11.755
REMARK INTER:                 -10.862
REMARK INTRA:                  -0.893
REMARK UNBOUND:                -0.893
REMARK  Name = 
REMARK  7 active torsions:
REMARK  status: ('A' for Active; 'I' for Inactive)
REMARK    1  A    between atoms: C_1  and  N_2
REMARK    2  A    between atoms: N_5  and  C_6
REMARK    3  A    between atoms: C_10  and  C_11
REMARK    4  A    between atoms: C_11  and  C_12
REMARK    5  A    between atoms: C_12  and  N_13
REMARK    6  A    between atoms: N_13  and  C_14
REMARK    7  A    between atoms: C_17  and  C_18
REMARK                            x       y       z     vdW  Elec       q    Type
REMARK                         _______ _______ _______ _____ _____    ______ ____
ROOT
ATOM      1  C   UNL     1      43.743   4.903  12.335  0.00  0.00    +0.000 C 
ENDROOT
BRANCH   1   6
ATOM      2  C   UNL     1      47.109   5.575  14.032  0.00  0.00    +0.000 A 
ATOM      3  C   UNL     1      47.758   6.320  13.038  0.00  0.00    +0.000 A 
ATOM      4  C   UNL     1      47.126   6.651  11.841  0.00  0.00    +0.000 A 
ATOM      5  C   UNL     1      45.826   6.222  11.597  0.00  0.00    +0.000 A 
ATOM      6  C   UNL     1      45.143   5.451  12.545  0.00  0.00    +0.000 A 
ATOM      7  C   UNL     1      45.798   5.157  13.754  0.00  0.00    +0.000 A 
BRANCH   2  12
ATOM      8  C   UNL     1      48.243   5.260  19.461  0.00  0.00    +0.000 C 
ATOM      9  N   UNL     1      48.452   5.026  18.036  0.00  0.00    +0.000 NA
ATOM     10  C   UNL     1      47.317   4.273  17.455  0.00  0.00    +0.000 C 
ATOM     11  C   UNL     1      47.506   4.019  15.942  0.00  0.00    +0.000 C 
ATOM     12  N   UNL     1      47.700   5.302  15.248  0.00  0.00    +0.000 N 
ATOM     13  C   UNL     1      48.799   6.116  15.788  0.00  0.00    +0.000 C 
ATOM     14  C   UNL     1      48.600   6.309  17.312  0.00  0.00    +0.000 C 
ENDBRANCH   2  12
ENDBRANCH   1   6
BRANCH   1  15
ATOM     15  C   UNL     1      43.413   4.593  10.874  0.00  0.00    +0.000 C 
BRANCH  15  16
ATOM     16  N   UNL     1      43.689   3.201  10.510  0.00  0.00    +0.000 N 
ATOM     17  H   UNL     1      42.840   2.656  10.379  0.00  0.00    +0.000 HD
BRANCH  16  18
ATOM     18  C   UNL     1      44.591   3.028   9.440  0.00  0.00    +0.000 A 
ATOM     19  C   UNL     1      45.098   4.097   8.690  0.00  0.00    +0.000 A 
ATOM     20  C   UNL     1      46.034   3.886   7.682  0.00  0.00    +0.000 A 
ATOM     21  C   UNL     1      46.477   2.593   7.462  0.00  0.00    +0.000 A 
ATOM     22  N   UNL     1      46.057   1.517   8.179  0.00  0.00    +0.000 NA
ATOM     23  C   UNL     1      45.142   1.773   9.154  0.00  0.00    +0.000 A 
BRANCH  21  24
ATOM     24  C   UNL     1      47.498   2.348   6.392  0.00  0.00    +0.000 C 
ATOM     25  N   UNL     1      47.460   3.225   5.340  0.00  0.00    +0.000 N 
ATOM     26  O   UNL     1      48.307   1.432   6.441  0.00  0.00    +0.000 OA
ATOM     27  H   UNL     1      46.758   3.953   5.325  0.00  0.00    +0.000 HD
ATOM     28  H   UNL     1      48.097   3.100   4.569  0.00  0.00    +0.000 HD
ENDBRANCH  21  24
ENDBRANCH  16  18
ENDBRANCH  15  16
ENDBRANCH   1  15
TORSDOF 6
ENDMDL
MODEL 2
REMARK VINA RESULT:    -7.709      2.526      3.551
REMARK INTER + INTRA:         -11.305
REMARK INTER:                 -10.464
REMARK INTRA:                  -0.842
REMARK UNBOUND:                -0.893
REMARK  Name = 
REMARK  7 active torsions:
REMARK  status: ('A' for Active; 'I' for Inactive)
REMARK    1  A    between atoms: C_1  and  N_2
REMARK    2  A    between atoms: N_5  and  C_6
REMARK    3  A    between atoms: C_10  and  C_11
REMARK    4  A    between atoms: C_11  and  C_12
REMARK    5  A    between atoms: C_12  and  N_13
REMARK    6  A    between atoms: N_13  and  C_14
REMARK    7  A    between atoms: C_17  and  C_18
REMARK                            x       y       z     vdW  Elec       q    Type
REMARK                         _______ _______ _______ _____ _____    ______ ____
ROOT
ATOM      1  C   UNL     1      43.348   5.094  12.463  0.00  0.00    +0.000 C 
ENDROOT
BRANCH   1   6
ATOM      2  C   UNL     1      46.804   6.583  13.175  0.00  0.00    +0.000 A 
ATOM      3  C   UNL     1      47.505   5.436  13.570  0.00  0.00    +0.000 A 
ATOM      4  C   UNL     1      46.906   4.177  13.579  0.00  0.00    +0.000 A 
ATOM      5  C   UNL     1      45.573   4.038  13.209  0.00  0.00    +0.000 A 
ATOM      6  C   UNL     1      44.819   5.155  12.832  0.00  0.00    +0.000 A 
ATOM      7  C   UNL     1      45.460   6.407  12.808  0.00  0.00    +0.000 A 
BRANCH   2  12
ATOM      8  C   UNL     1      50.521  10.710  13.053  0.00  0.00    +0.000 C 
ATOM      9  N   UNL     1      49.195  10.102  12.994  0.00  0.00    +0.000 NA
ATOM     10  C   UNL     1      49.115   9.124  11.886  0.00  0.00    +0.000 C 
ATOM     11  C   UNL     1      47.723   8.455  11.805  0.00  0.00    +0.000 C 
ATOM     12  N   UNL     1      47.407   7.820  13.095  0.00  0.00    +0.000 N 
ATOM     13  C   UNL     1      47.490   8.730  14.247  0.00  0.00    +0.000 C 
ATOM     14  C   UNL     1      48.879   9.415  14.267  0.00  0.00    +0.000 C 
ENDBRANCH   2  12
ENDBRANCH   1   6
BRANCH   1  15
ATOM     15  C   UNL     1      43.068   4.343  11.161  0.00  0.00    +0.000 C 
BRANCH  15  16
ATOM     16  N   UNL     1      43.802   4.892  10.017  0.00  0.00    +0.000 N 
ATOM     17  H   UNL     1      44.335   5.724  10.259  0.00  0.00    +0.000 HD
BRANCH  16  18
ATOM     18  C   UNL     1      44.583   3.960   9.302  0.00  0.00    +0.000 A 
ATOM     19  C   UNL     1      45.432   4.326   8.250  0.00  0.00    +0.000 A 
ATOM     20  C   UNL     1      46.231   3.381   7.613  0.00  0.00    +0.000 A 
ATOM     21  C   UNL     1      46.189   2.075   8.069  0.00  0.00    +0.000 A 
ATOM     22  N   UNL     1      45.419   1.661   9.110  0.00  0.00    +0.000 NA
ATOM     23  C   UNL     1      44.655   2.620   9.702  0.00  0.00    +0.000 A 
BRANCH  21  24
ATOM     24  C   UNL     1      47.056   1.047   7.406  0.00  0.00    +0.000 C 
ATOM     25  N   UNL     1      46.723  -0.255   7.673  0.00  0.00    +0.000 N 
ATOM     26  O   UNL     1      47.998   1.338   6.682  0.00  0.00    +0.000 OA
ATOM     27  H   UNL     1      45.952  -0.453   8.298  0.00  0.00    +0.000 HD
ATOM     28  H   UNL     1      47.284  -0.998   7.286  0.00  0.00    +0.000 HD
ENDBRANCH  21  24
ENDBRANCH  16  18
ENDBRANCH  15  16
ENDBRANCH   1  15
TORSDOF 6
ENDMDL
MODEL 3
REMARK VINA RESULT:    -7.371      2.610      3.468
REMARK INTER + INTRA:         -10.849
REMARK INTER:                 -10.235
REMARK INTRA:                  -0.614
REMARK UNBOUND:                -0.893
REMARK  Name = 
REMARK  7 active torsions:
REMARK  status: ('A' for Active; 'I' for Inactive)
REMARK    1  A    between atoms: C_1  and  N_2
REMARK    2  A    between atoms: N_5  and  C_6
REMARK    3  A    between atoms: C_10  and  C_11
REMARK    4  A    between atoms: C_11  and  C_12
REMARK    5  A    between atoms: C_12  and  N_13
REMARK    6  A    between atoms: N_13  and  C_14
REMARK    7  A    between atoms: C_17  and  C_18
REMARK                            x       y       z     vdW  Elec       q    Type
REMARK                         _______ _______ _______ _____ _____    ______ ____
ROOT
ATOM      1  C   UNL     1      45.274   4.521  12.073  0.00  0.00    +0.000 C 
ENDROOT
BRANCH   1   6
ATOM      2  C   UNL     1      47.686   7.449  12.589  0.00  0.00    +0.000 A 
ATOM      3  C   UNL     1      46.787   8.524  12.626  0.00  0.00    +0.000 A 
ATOM      4  C   UNL     1      45.411   8.331  12.527  0.00  0.00    +0.000 A 
ATOM      5  C   UNL     1      44.896   7.049  12.367  0.00  0.00    +0.000 A 
ATOM      6  C   UNL     1      45.752   5.944  12.296  0.00  0.00    +0.000 A 
ATOM      7  C   UNL     1      47.134   6.169  12.425  0.00  0.00    +0.000 A 
BRANCH   2  12
ATOM      8  C   UNL     1      52.721   9.636  13.441  0.00  0.00    +0.000 C 
ATOM      9  N   UNL     1      51.748   8.577  13.192  0.00  0.00    +0.000 NA
ATOM     10  C   UNL     1      50.760   8.504  14.291  0.00  0.00    +0.000 C 
ATOM     11  C   UNL     1      49.708   7.396  14.050  0.00  0.00    +0.000 C 
ATOM     12  N   UNL     1      49.044   7.622  12.756  0.00  0.00    +0.000 N 
ATOM     13  C   UNL     1      49.969   7.730  11.618  0.00  0.00    +0.000 C 
ATOM     14  C   UNL     1      51.033   8.814  11.917  0.00  0.00    +0.000 C 
ENDBRANCH   2  12
ENDBRANCH   1   6
BRANCH   1  15
ATOM     15  C   UNL     1      43.852   4.426  11.518  0.00  0.00    +0.000 C 
BRANCH  15  16
ATOM     16  N   UNL     1      43.780   4.710  10.082  0.00  0.00    +0.000 N 
ATOM     17  H   UNL     1      43.871   5.703   9.876  0.00  0.00    +0.000 HD
BRANCH  16  18
ATOM     18  C   UNL     1      44.631   3.928   9.273  0.00  0.00    +0.000 A 
ATOM     19  C   UNL     1      45.570   4.484   8.395  0.00  0.00    +0.000 A 
ATOM     20  C   UNL     1      46.432   3.675   7.661  0.00  0.00    +0.000 A 
ATOM     21  C   UNL     1      46.359   2.305   7.846  0.00  0.00    +0.000 A 
ATOM     22  N   UNL     1      45.500   1.703   8.712  0.00  0.00    +0.000 NA
ATOM     23  C   UNL     1      44.677   2.536   9.407  0.00  0.00    +0.000 A 
BRANCH  21  24
ATOM     24  C   UNL     1      47.291   1.418   7.077  0.00  0.00    +0.000 C 
ATOM     25  N   UNL     1      48.388   2.046   6.548  0.00  0.00    +0.000 N 
ATOM     26  O   UNL     1      47.095   0.221   6.921  0.00  0.00    +0.000 OA
ATOM     27  H   UNL     1      48.500   3.043   6.677  0.00  0.00    +0.000 HD
ATOM     28  H   UNL     1      49.040   1.517   5.991  0.00  0.00    +0.000 HD
ENDBRANCH  21  24
ENDBRANCH  16  18
ENDBRANCH  15  16
ENDBRANCH   1  15
TORSDOF 6
ENDMDL
MODEL 4
REMARK VINA RESULT:    -7.179      2.719      8.180
REMARK INTER + INTRA:         -10.590
REMARK INTER:                  -9.623
REMARK INTRA:                  -0.966
REMARK UNBOUND:                -0.893
REMARK  Name = 
REMARK  7 active torsions:
REMARK  status: ('A' for Active; 'I' for Inactive)
REMARK    1  A    between atoms: C_1  and  N_2
REMARK    2  A    between atoms: N_5  and  C_6
REMARK    3  A    between atoms: C_10  and  C_11
REMARK    4  A    between atoms: C_11  and  C_12
REMARK    5  A    between atoms: C_12  and  N_13
REMARK    6  A    between atoms: N_13  and  C_14
REMARK    7  A    between atoms: C_17  and  C_18
REMARK                            x       y       z     vdW  Elec       q    Type
REMARK                         _______ _______ _______ _____ _____    ______ ____
ROOT
ATOM      1  C   UNL     1      44.687   7.223  11.830  0.00  0.00    +0.000 C 
ENDROOT
BRANCH   1   6
ATOM      2  C   UNL     1      44.666   3.770  10.175  0.00  0.00    +0.000 A 
ATOM      3  C   UNL     1      43.943   3.031  11.122  0.00  0.00    +0.000 A 
ATOM      4  C   UNL     1      43.423   3.624  12.271  0.00  0.00    +0.000 A 
ATOM      5  C   UNL     1      43.633   4.977  12.514  0.00  0.00    +0.000 A 
ATOM      6  C   UNL     1      44.371   5.754  11.614  0.00  0.00    +0.000 A 
ATOM      7  C   UNL     1      44.860   5.133  10.450  0.00  0.00    +0.000 A 
BRANCH   2  12
ATOM      8  C   UNL     1      47.893   1.725   6.143  0.00  0.00    +0.000 C 
ATOM      9  N   UNL     1      46.641   2.096   6.794  0.00  0.00    +0.000 NA
ATOM     10  C   UNL     1      46.481   1.372   8.075  0.00  0.00    +0.000 C 
ATOM     11  C   UNL     1      45.167   1.753   8.794  0.00  0.00    +0.000 C 
ATOM     12  N   UNL     1      45.124   3.209   9.001  0.00  0.00    +0.000 N 
ATOM     13  C   UNL     1      45.300   3.995   7.771  0.00  0.00    +0.000 C 
ATOM     14  C   UNL     1      46.601   3.552   7.056  0.00  0.00    +0.000 C 
ENDBRANCH   2  12
ENDBRANCH   1   6
BRANCH   1  15
ATOM     15  C   UNL     1      45.754   7.476  12.896  0.00  0.00    +0.000 C 
BRANCH  15  16
ATOM     16  N   UNL     1      46.903   6.575  12.777  0.00  0.00    +0.000 N 
ATOM     17  H   UNL     1      47.710   7.025  12.349  0.00  0.00    +0.000 HD
BRANCH  16  18
ATOM     18  C   UNL     1      47.253   5.890  13.959  0.00  0.00    +0.000 A 
ATOM     19  C   UNL     1      46.717   4.642  14.304  0.00  0.00    +0.000 A 
ATOM     20  C   UNL     1      47.138   3.974  15.450  0.00  0.00    +0.000 A 
ATOM     21  C   UNL     1      48.126   4.560  16.223  0.00  0.00    +0.000 A 
ATOM     22  N   UNL     1      48.716   5.747  15.924  0.00  0.00    +0.000 NA
ATOM     23  C   UNL     1      48.272   6.363  14.794  0.00  0.00    +0.000 A 
BRANCH  21  24
ATOM     24  C   UNL     1      48.603   3.846  17.452  0.00  0.00    +0.000 C 
ATOM     25  N   UNL     1      47.624   3.231  18.186  0.00  0.00    +0.000 N 
ATOM     26  O   UNL     1      49.779   3.814  17.788  0.00  0.00    +0.000 OA
ATOM     27  H   UNL     1      46.660   3.303  17.887  0.00  0.00    +0.000 HD
ATOM     28  H   UNL     1      47.870   2.760  19.042  0.00  0.00    +0.000 HD
ENDBRANCH  21  24
ENDBRANCH  16  18
ENDBRANCH  15  16
ENDBRANCH   1  15
TORSDOF 6
ENDMDL
MODEL 5
REMARK VINA RESULT:    -6.297      2.388      3.821
REMARK INTER + INTRA:          -9.399
REMARK INTER:                  -8.741
REMARK INTRA:                  -0.657
REMARK UNBOUND:                -0.893
REMARK  Name = 
REMARK  7 active torsions:
REMARK  status: ('A' for Active; 'I' for Inactive)
REMARK    1  A    between atoms: C_1  and  N_2
REMARK    2  A    between atoms: N_5  and  C_6
REMARK    3  A    between atoms: C_10  and  C_11
REMARK    4  A    between atoms: C_11  and  C_12
REMARK    5  A    between atoms: C_12  and  N_13
REMARK    6  A    between atoms: N_13  and  C_14
REMARK    7  A    between atoms: C_17  and  C_18
REMARK                            x       y       z     vdW  Elec       q    Type
REMARK                         _______ _______ _______ _____ _____    ______ ____
ROOT
ATOM      1  C   UNL     1      45.907   4.059  13.056  0.00  0.00    +0.000 C 
ENDROOT
BRANCH   1   6
ATOM      2  C   UNL     1      48.364   6.591  14.544  0.00  0.00    +0.000 A 
ATOM      3  C   UNL     1      48.529   6.067  15.833  0.00  0.00    +0.000 A 
ATOM      4  C   UNL     1      47.898   4.891  16.232  0.00  0.00    +0.000 A 
ATOM      5  C   UNL     1      47.062   4.214  15.350  0.00  0.00    +0.000 A 
ATOM      6  C   UNL     1      46.841   4.710  14.060  0.00  0.00    +0.000 A 
ATOM      7  C   UNL     1      47.513   5.885  13.679  0.00  0.00    +0.000 A 
BRANCH   2  12
ATOM      8  C   UNL     1      52.280  10.118  12.787  0.00  0.00    +0.000 C 
ATOM      9  N   UNL     1      50.940   9.699  13.187  0.00  0.00    +0.000 NA
ATOM     10  C   UNL     1      50.443   8.620  12.304  0.00  0.00    +0.000 C 
ATOM     11  C   UNL     1      49.028   8.147  12.710  0.00  0.00    +0.000 C 
ATOM     12  N   UNL     1      49.039   7.715  14.117  0.00  0.00    +0.000 N 
ATOM     13  C   UNL     1      49.545   8.732  15.052  0.00  0.00    +0.000 C 
ATOM     14  C   UNL     1      50.941   9.214  14.586  0.00  0.00    +0.000 C 
ENDBRANCH   2  12
ENDBRANCH   1   6
BRANCH   1  15
ATOM     15  C   UNL     1      45.052   5.055  12.271  0.00  0.00    +0.000 C 
BRANCH  15  16
ATOM     16  N   UNL     1      44.200   4.410  11.269  0.00  0.00    +0.000 N 
ATOM     17  H   UNL     1      43.413   4.993  10.991  0.00  0.00    +0.000 HD
BRANCH  16  18
ATOM     18  C   UNL     1      44.881   3.884  10.151  0.00  0.00    +0.000 A 
ATOM     19  C   UNL     1      44.962   2.511   9.883  0.00  0.00    +0.000 A 
ATOM     20  C   UNL     1      45.592   2.041   8.735  0.00  0.00    +0.000 A 
ATOM     21  C   UNL     1      46.109   2.968   7.846  0.00  0.00    +0.000 A 
ATOM     22  N   UNL     1      46.028   4.314   8.025  0.00  0.00    +0.000 NA
ATOM     23  C   UNL     1      45.404   4.726   9.162  0.00  0.00    +0.000 A 
BRANCH  21  24
ATOM     24  C   UNL     1      46.775   2.480   6.596  0.00  0.00    +0.000 C 
ATOM     25  N   UNL     1      47.103   3.456   5.692  0.00  0.00    +0.000 N 
ATOM     26  O   UNL     1      47.010   1.299   6.384  0.00  0.00    +0.000 OA
ATOM     27  H   UNL     1      46.868   4.420   5.894  0.00  0.00    +0.000 HD
ATOM     28  H   UNL     1      47.525   3.196   4.814  0.00  0.00    +0.000 HD
ENDBRANCH  21  24
ENDBRANCH  16  18
ENDBRANCH  15  16
ENDBRANCH   1  15
TORSDOF 6
ENDMDL
MODEL 6
REMARK VINA RESULT:    -6.234      3.724      7.920
REMARK INTER + INTRA:          -9.313
REMARK INTER:                  -8.391
REMARK INTRA:                  -0.922
REMARK UNBOUND:                -0.893
REMARK  Name = 
REMARK  7 active torsions:
REMARK  status: ('A' for Active; 'I' for Inactive)
REMARK    1  A    between atoms: C_1  and  N_2
REMARK    2  A    between atoms: N_5  and  C_6
REMARK    3  A    between atoms: C_10  and  C_11
REMARK    4  A    between atoms: C_11  and  C_12
REMARK    5  A    between atoms: C_12  and  N_13
REMARK    6  A    between atoms: N_13  and  C_14
REMARK    7  A    between atoms: C_17  and  C_18
REMARK                            x       y       z     vdW  Elec       q    Type
REMARK                         _______ _______ _______ _____ _____    ______ ____
ROOT
ATOM      1  C   UNL     1      49.702   8.347  15.447  0.00  0.00    +0.000 C 
ENDROOT
BRANCH   1   6
ATOM      2  C   UNL     1      47.343   6.654  12.950  0.00  0.00    +0.000 A 
ATOM      3  C   UNL     1      47.868   7.121  11.738  0.00  0.00    +0.000 A 
ATOM      4  C   UNL     1      48.993   7.943  11.695  0.00  0.00    +0.000 A 
ATOM      5  C   UNL     1      49.614   8.337  12.875  0.00  0.00    +0.000 A 
ATOM      6  C   UNL     1      49.113   7.921  14.114  0.00  0.00    +0.000 A 
ATOM      7  C   UNL     1      47.992   7.071  14.123  0.00  0.00    +0.000 A 
BRANCH   2  12
ATOM      8  C   UNL     1      43.403   2.962  11.645  0.00  0.00    +0.000 C 
ATOM      9  N   UNL     1      44.160   3.858  12.512  0.00  0.00    +0.000 NA
ATOM     10  C   UNL     1      45.584   3.457  12.566  0.00  0.00    +0.000 C 
ATOM     11  C   UNL     1      46.415   4.397  13.471  0.00  0.00    +0.000 C 
ATOM     12  N   UNL     1      46.274   5.784  13.000  0.00  0.00    +0.000 N 
ATOM     13  C   UNL     1      44.881   6.244  12.898  0.00  0.00    +0.000 C 
ATOM     14  C   UNL     1      44.072   5.254  12.025  0.00  0.00    +0.000 C 
ENDBRANCH   2  12
ENDBRANCH   1   6
BRANCH   1  15
ATOM     15  C   UNL     1      48.678   8.415  16.581  0.00  0.00    +0.000 C 
BRANCH  15  16
ATOM     16  N   UNL     1      49.091   7.660  17.768  0.00  0.00    +0.000 N 
ATOM     17  H   UNL     1      48.424   7.740  18.533  0.00  0.00    +0.000 HD
BRANCH  16  18
ATOM     18  C   UNL     1      49.454   6.318  17.528  0.00  0.00    +0.000 A 
ATOM     19  C   UNL     1      50.727   5.810  17.819  0.00  0.00    +0.000 A 
ATOM     20  C   UNL     1      51.023   4.464  17.624  0.00  0.00    +0.000 A 
ATOM     21  C   UNL     1      50.015   3.633  17.166  0.00  0.00    +0.000 A 
ATOM     22  N   UNL     1      48.748   4.053  16.904  0.00  0.00    +0.000 NA
ATOM     23  C   UNL     1      48.507   5.377  17.110  0.00  0.00    +0.000 A 
BRANCH  21  24
ATOM     24  C   UNL     1      50.310   2.177  16.967  0.00  0.00    +0.000 C 
ATOM     25  N   UNL     1      51.118   1.611  17.918  0.00  0.00    +0.000 N 
ATOM     26  O   UNL     1      49.872   1.532  16.025  0.00  0.00    +0.000 OA
ATOM     27  H   UNL     1      51.480   2.186  18.668  0.00  0.00    +0.000 HD
ATOM     28  H   UNL     1      51.384   0.643  17.828  0.00  0.00    +0.000 HD
ENDBRANCH  21  24
ENDBRANCH  16  18
ENDBRANCH  15  16
ENDBRANCH   1  15
TORSDOF 6
ENDMDL
MODEL 7
REMARK VINA RESULT:    -6.202      3.714      7.787
REMARK INTER + INTRA:          -9.271
REMARK INTER:                  -8.545
REMARK INTRA:                  -0.726
REMARK UNBOUND:                -0.893
REMARK  Name = 
REMARK  7 active torsions:
REMARK  status: ('A' for Active; 'I' for Inactive)
REMARK    1  A    between atoms: C_1  and  N_2
REMARK    2  A    between atoms: N_5  and  C_6
REMARK    3  A    between atoms: C_10  and  C_11
REMARK    4  A    between atoms: C_11  and  C_12
REMARK    5  A    between atoms: C_12  and  N_13
REMARK    6  A    between atoms: N_13  and  C_14
REMARK    7  A    between atoms: C_17  and  C_18
REMARK                            x       y       z     vdW  Elec       q    Type
REMARK                         _______ _______ _______ _____ _____    ______ ____
ROOT
ATOM      1  C   UNL     1      49.378   8.527  12.082  0.00  0.00    +0.000 C 
ENDROOT
BRANCH   1   6
ATOM      2  C   UNL     1      45.629   7.749  12.169  0.00  0.00    +0.000 A 
ATOM      3  C   UNL     1      45.093   9.040  12.072  0.00  0.00    +0.000 A 
ATOM      4  C   UNL     1      45.908  10.163  11.941  0.00  0.00    +0.000 A 
ATOM      5  C   UNL     1      47.291  10.023  11.922  0.00  0.00    +0.000 A 
ATOM      6  C   UNL     1      47.879   8.759  12.043  0.00  0.00    +0.000 A 
ATOM      7  C   UNL     1      47.030   7.642  12.148  0.00  0.00    +0.000 A 
BRANCH   2  12
ATOM      8  C   UNL     1      43.458   2.698  11.371  0.00  0.00    +0.000 C 
ATOM      9  N   UNL     1      43.561   4.033  11.952  0.00  0.00    +0.000 NA
ATOM     10  C   UNL     1      44.849   4.199  12.662  0.00  0.00    +0.000 C 
ATOM     11  C   UNL     1      44.990   5.609  13.281  0.00  0.00    +0.000 C 
ATOM     12  N   UNL     1      44.832   6.626  12.228  0.00  0.00    +0.000 N 
ATOM     13  C   UNL     1      43.582   6.507  11.463  0.00  0.00    +0.000 C 
ATOM     14  C   UNL     1      43.454   5.070  10.901  0.00  0.00    +0.000 C 
ENDBRANCH   2  12
ENDBRANCH   1   6
BRANCH   1  15
ATOM     15  C   UNL     1      49.840   7.663  13.257  0.00  0.00    +0.000 C 
BRANCH  15  16
ATOM     16  N   UNL     1      49.200   8.034  14.523  0.00  0.00    +0.000 N 
ATOM     17  H   UNL     1      48.430   8.688  14.394  0.00  0.00    +0.000 HD
BRANCH  16  18
ATOM     18  C   UNL     1      48.833   6.951  15.349  0.00  0.00    +0.000 A 
ATOM     19  C   UNL     1      48.932   6.991  16.746  0.00  0.00    +0.000 A 
ATOM     20  C   UNL     1      48.500   5.922  17.525  0.00  0.00    +0.000 A 
ATOM     21  C   UNL     1      47.939   4.830  16.885  0.00  0.00    +0.000 A 
ATOM     22  N   UNL     1      47.775   4.745  15.537  0.00  0.00    +0.000 NA
ATOM     23  C   UNL     1      48.213   5.815  14.817  0.00  0.00    +0.000 A 
BRANCH  21  24
ATOM     24  C   UNL     1      47.452   3.677  17.709  0.00  0.00    +0.000 C 
ATOM     25  N   UNL     1      48.168   3.436  18.852  0.00  0.00    +0.000 N 
ATOM     26  O   UNL     1      46.491   2.990  17.392  0.00  0.00    +0.000 OA
ATOM     27  H   UNL     1      48.972   4.011  19.066  0.00  0.00    +0.000 HD
ATOM     28  H   UNL     1      47.916   2.655  19.438  0.00  0.00    +0.000 HD
ENDBRANCH  21  24
ENDBRANCH  16  18
ENDBRANCH  15  16
ENDBRANCH   1  15
TORSDOF 6
ENDMDL
MODEL 8
REMARK VINA RESULT:    -6.176      3.126      8.937
REMARK INTER + INTRA:          -9.235
REMARK INTER:                  -8.765
REMARK INTRA:                  -0.470
REMARK UNBOUND:                -0.893
REMARK  Name = 
REMARK  7 active torsions:
REMARK  status: ('A' for Active; 'I' for Inactive)
REMARK    1  A    between atoms: C_1  and  N_2
REMARK    2  A    between atoms: N_5  and  C_6
REMARK    3  A    between atoms: C_10  and  C_11
REMARK    4  A    between atoms: C_11  and  C_12
REMARK    5  A    between atoms: C_12  and  N_13
REMARK    6  A    between atoms: N_13  and  C_14
REMARK    7  A    between atoms: C_17  and  C_18
REMARK                            x       y       z     vdW  Elec       q    Type
REMARK                         _______ _______ _______ _____ _____    ______ ____
ROOT
ATOM      1  C   UNL     1      46.309   6.648  13.149  0.00  0.00    +0.000 C 
ENDROOT
BRANCH   1   6
ATOM      2  C   UNL     1      44.753   4.155  10.694  0.00  0.00    +0.000 A 
ATOM      3  C   UNL     1      43.545   3.869  11.345  0.00  0.00    +0.000 A 
ATOM      4  C   UNL     1      43.192   4.489  12.542  0.00  0.00    +0.000 A 
ATOM      5  C   UNL     1      44.057   5.402  13.135  0.00  0.00    +0.000 A 
ATOM      6  C   UNL     1      45.289   5.703  12.542  0.00  0.00    +0.000 A 
ATOM      7  C   UNL     1      45.604   5.081  11.320  0.00  0.00    +0.000 A 
BRANCH   2  12
ATOM      8  C   UNL     1      47.443   1.719   6.489  0.00  0.00    +0.000 C 
ATOM      9  N   UNL     1      46.311   2.336   7.174  0.00  0.00    +0.000 NA
ATOM     10  C   UNL     1      45.948   1.568   8.385  0.00  0.00    +0.000 C 
ATOM     11  C   UNL     1      44.757   2.205   9.138  0.00  0.00    +0.000 C 
ATOM     12  N   UNL     1      45.079   3.601   9.475  0.00  0.00    +0.000 N 
ATOM     13  C   UNL     1      45.473   4.421   8.319  0.00  0.00    +0.000 C 
ATOM     14  C   UNL     1      46.634   3.727   7.565  0.00  0.00    +0.000 C 
ENDBRANCH   2  12
ENDBRANCH   1   6
BRANCH   1  15
ATOM     15  C   UNL     1      47.727   6.078  13.203  0.00  0.00    +0.000 C 
BRANCH  15  16
ATOM     16  N   UNL     1      48.613   6.836  14.090  0.00  0.00    +0.000 N 
ATOM     17  H   UNL     1      48.472   7.841  14.018  0.00  0.00    +0.000 HD
BRANCH  16  18
ATOM     18  C   UNL     1      48.628   6.406  15.434  0.00  0.00    +0.000 A 
ATOM     19  C   UNL     1      49.154   7.180  16.476  0.00  0.00    +0.000 A 
ATOM     20  C   UNL     1      49.092   6.742  17.795  0.00  0.00    +0.000 A 
ATOM     21  C   UNL     1      48.466   5.535  18.055  0.00  0.00    +0.000 A 
ATOM     22  N   UNL     1      47.899   4.755  17.096  0.00  0.00    +0.000 NA
ATOM     23  C   UNL     1      47.985   5.225  15.821  0.00  0.00    +0.000 A 
BRANCH  21  24
ATOM     24  C   UNL     1      48.374   5.056  19.472  0.00  0.00    +0.000 C 
ATOM     25  N   UNL     1      49.094   3.924  19.752  0.00  0.00    +0.000 N 
ATOM     26  O   UNL     1      47.703   5.622  20.324  0.00  0.00    +0.000 OA
ATOM     27  H   UNL     1      49.615   3.471  19.013  0.00  0.00    +0.000 HD
ATOM     28  H   UNL     1      49.052   3.528  20.678  0.00  0.00    +0.000 HD
ENDBRANCH  21  24
ENDBRANCH  16  18
ENDBRANCH  15  16
ENDBRANCH   1  15
TORSDOF 6
ENDMDL
MODEL 9
REMARK VINA RESULT:    -6.063      3.537      8.133
REMARK INTER + INTRA:          -9.083
REMARK INTER:                  -8.531
REMARK INTRA:                  -0.551
REMARK UNBOUND:                -0.893
REMARK  Name = 
REMARK  7 active torsions:
REMARK  status: ('A' for Active; 'I' for Inactive)
REMARK    1  A    between atoms: C_1  and  N_2
REMARK    2  A    between atoms: N_5  and  C_6
REMARK    3  A    between atoms: C_10  and  C_11
REMARK    4  A    between atoms: C_11  and  C_12
REMARK    5  A    between atoms: C_12  and  N_13
REMARK    6  A    between atoms: N_13  and  C_14
REMARK    7  A    between atoms: C_17  and  C_18
REMARK                            x       y       z     vdW  Elec       q    Type
REMARK                         _______ _______ _______ _____ _____    ______ ____
ROOT
ATOM      1  C   UNL     1      46.166   6.571  13.128  0.00  0.00    +0.000 C 
ENDROOT
BRANCH   1   6
ATOM      2  C   UNL     1      44.643   4.181  10.553  0.00  0.00    +0.000 A 
ATOM      3  C   UNL     1      43.362   4.000  11.092  0.00  0.00    +0.000 A 
ATOM      4  C   UNL     1      42.954   4.660  12.249  0.00  0.00    +0.000 A 
ATOM      5  C   UNL     1      43.832   5.508  12.914  0.00  0.00    +0.000 A 
ATOM      6  C   UNL     1      45.133   5.702  12.435  0.00  0.00    +0.000 A 
ATOM      7  C   UNL     1      45.506   5.043  11.249  0.00  0.00    +0.000 A 
BRANCH   2  12
ATOM      8  C   UNL     1      47.574   1.685   6.548  0.00  0.00    +0.000 C 
ATOM      9  N   UNL     1      46.394   2.279   7.169  0.00  0.00    +0.000 NA
ATOM     10  C   UNL     1      46.028   1.550   8.405  0.00  0.00    +0.000 C 
ATOM     11  C   UNL     1      44.786   2.164   9.091  0.00  0.00    +0.000 C 
ATOM     12  N   UNL     1      45.033   3.588   9.371  0.00  0.00    +0.000 N 
ATOM     13  C   UNL     1      45.426   4.372   8.190  0.00  0.00    +0.000 C 
ATOM     14  C   UNL     1      46.641   3.700   7.504  0.00  0.00    +0.000 C 
ENDBRANCH   2  12
ENDBRANCH   1   6
BRANCH   1  15
ATOM     15  C   UNL     1      45.903   8.072  12.995  0.00  0.00    +0.000 C 
BRANCH  15  16
ATOM     16  N   UNL     1      46.675   8.873  13.948  0.00  0.00    +0.000 N 
ATOM     17  H   UNL     1      46.427   8.676  14.916  0.00  0.00    +0.000 HD
BRANCH  16  18
ATOM     18  C   UNL     1      48.072   8.855  13.753  0.00  0.00    +0.000 A 
ATOM     19  C   UNL     1      48.978   8.498  14.761  0.00  0.00    +0.000 A 
ATOM     20  C   UNL     1      50.344   8.435  14.506  0.00  0.00    +0.000 A 
ATOM     21  C   UNL     1      50.783   8.703  13.221  0.00  0.00    +0.000 A 
ATOM     22  N   UNL     1      49.955   9.015  12.188  0.00  0.00    +0.000 NA
ATOM     23  C   UNL     1      48.627   9.065  12.486  0.00  0.00    +0.000 A 
BRANCH  21  24
ATOM     24  C   UNL     1      52.250   8.623  12.924  0.00  0.00    +0.000 C 
ATOM     25  N   UNL     1      52.583   7.863  11.833  0.00  0.00    +0.000 N 
ATOM     26  O   UNL     1      53.098   9.185  13.602  0.00  0.00    +0.000 OA
ATOM     27  H   UNL     1      51.853   7.393  11.314  0.00  0.00    +0.000 HD
ATOM     28  H   UNL     1      53.554   7.739  11.595  0.00  0.00    +0.000 HD
ENDBRANCH  21  24
ENDBRANCH  16  18
ENDBRANCH  15  16
ENDBRANCH   1  15
TORSDOF 6
ENDMDL
