MODEL 1
REMARK VINA RESULT:    -7.643      0.000      0.000
REMARK INTER + INTRA:          -9.904
REMARK INTER:                  -9.430
REMARK INTRA:                  -0.474
REMARK UNBOUND:                -0.474
REMARK  Name = 
REMARK  5 active torsions:
REMARK  status: ('A' for Active; 'I' for Inactive)
REMARK    1  A    between atoms: C_1  and  C_2
REMARK    2  A    between atoms: C_2  and  O_3
REMARK    3  A    between atoms: C_2  and  C_13
REMARK    4  A    between atoms: O_3  and  C_4
REMARK    5  A    between atoms: C_7  and  C_8
REMARK                            x       y       z     vdW  Elec       q    Type
REMARK                         _______ _______ _______ _____ _____    ______ ____
ROOT
ATOM      1  C   UNL     1      44.523   3.726   9.280  0.00  0.00    +0.000 A 
ATOM      2  C   UNL     1      45.358   4.346   8.352  0.00  0.00    +0.000 A 
ATOM      3  C   UNL     1      46.278   3.590   7.627  0.00  0.00    +0.000 A 
ATOM      4  C   UNL     1      46.346   2.226   7.874  0.00  0.00    +0.000 A 
ATOM      5  N   UNL     1      45.571   1.585   8.793  0.00  0.00    +0.000 NA
ATOM      6  C   UNL     1      44.686   2.359   9.475  0.00  0.00    +0.000 A 
ENDROOT
BRANCH   4   7
ATOM      7  C   UNL     1      47.316   1.380   7.105  0.00  0.00    +0.000 C 
ATOM      8  N   UNL     1      48.397   2.041   6.591  0.00  0.00    +0.000 N 
ATOM      9  O   UNL     1      47.159   0.175   6.943  0.00  0.00    +0.000 OA
ATOM     10  H   UNL     1      48.490   3.040   6.735  0.00  0.00    +0.000 HD
ATOM     11  H   UNL     1      49.080   1.534   6.047  0.00  0.00    +0.000 HD
ENDBRANCH   4   7
BRANCH   1  12
ATOM     12  O   UNL     1      43.633   4.542   9.920  0.00  0.00    +0.000 OA
BRANCH  12  14
ATOM     13  C   UNL     1      42.597   5.557  11.880  0.00  0.00    +0.000 C 
ATOM     14  C   UNL     1      43.715   4.650  11.352  0.00  0.00    +0.000 C 
BRANCH  14  15
ATOM     15  C   UNL     1      45.106   5.216  11.737  0.00  0.00    +0.000 C 
ATOM     16  C   UNL     1      45.498   4.948  13.201  0.00  0.00    +0.000 C 
ATOM     17  C   UNL     1      46.818   5.630  13.548  0.00  0.00    +0.000 C 
ATOM     18  C   UNL     1      46.779   7.100  13.161  0.00  0.00    +0.000 C 
ATOM     19  O   UNL     1      46.484   7.233  11.771  0.00  0.00    +0.000 OA
ATOM     20  C   UNL     1      45.189   6.721  11.447  0.00  0.00    +0.000 C 
ENDBRANCH  14  15
ENDBRANCH  12  14
ENDBRANCH   1  12
TORSDOF 4
ENDMDL
MODEL 2
REMARK VINA RESULT:    -6.456      1.403      2.139
REMARK INTER + INTRA:          -8.439
REMARK INTER:                  -7.993
REMARK INTRA:                  -0.446
REMARK UNBOUND:                -0.474
REMARK  Name = 
REMARK  5 active torsions:
REMARK  status: ('A' for Active; 'I' for Inactive)
REMARK    1  A    between atoms: C_1  and  C_2
REMARK    2  A    between atoms: C_2  and  O_3
REMARK    3  A    between atoms: C_2  and  C_13
REMARK    4  A    between atoms: O_3  and  C_4
REMARK    5  A    between atoms: C_7  and  C_8
REMARK                            x       y       z     vdW  Elec       q    Type
REMARK                         _______ _______ _______ _____ _____    ______ ____
ROOT
ATOM      1  C   UNL     1      45.053   4.241   9.667  0.00  0.00    +0.000 A 
ATOM      2  C   UNL     1      44.923   2.857   9.578  0.00  0.00    +0.000 A 
ATOM      3  C   UNL     1      45.566   2.159   8.555  0.00  0.00    +0.000 A 
ATOM      4  C   UNL     1      46.308   2.884   7.634  0.00  0.00    +0.000 A 
ATOM      5  N   UNL     1      46.436   4.241   7.665  0.00  0.00    +0.000 NA
ATOM      6  C   UNL     1      45.796   4.879   8.680  0.00  0.00    +0.000 A 
ENDROOT
BRANCH   4   7
ATOM      7  C   UNL     1      47.021   2.168   6.527  0.00  0.00    +0.000 C 
ATOM      8  N   UNL     1      47.321   2.928   5.430  0.00  0.00    +0.000 N 
ATOM      9  O   UNL     1      47.319   0.981   6.590  0.00  0.00    +0.000 OA
ATOM     10  H   UNL     1      47.051   3.904   5.406  0.00  0.00    +0.000 HD
ATOM     11  H   UNL     1      47.786   2.503   4.640  0.00  0.00    +0.000 HD
ENDBRANCH   4   7
BRANCH   1  12
ATOM     12  O   UNL     1      44.414   4.834  10.720  0.00  0.00    +0.000 OA
BRANCH  12  14
ATOM     13  C   UNL     1      44.391   4.059  13.031  0.00  0.00    +0.000 C 
ATOM     14  C   UNL     1      45.106   4.914  11.979  0.00  0.00    +0.000 C 
BRANCH  14  15
ATOM     15  C   UNL     1      45.166   6.396  12.428  0.00  0.00    +0.000 C 
ATOM     16  C   UNL     1      44.800   7.395  11.315  0.00  0.00    +0.000 C 
ATOM     17  C   UNL     1      44.994   8.834  11.784  0.00  0.00    +0.000 C 
ATOM     18  C   UNL     1      46.383   9.022  12.373  0.00  0.00    +0.000 C 
ATOM     19  O   UNL     1      46.591   8.102  13.444  0.00  0.00    +0.000 OA
ATOM     20  C   UNL     1      46.548   6.744  12.999  0.00  0.00    +0.000 C 
ENDBRANCH  14  15
ENDBRANCH  12  14
ENDBRANCH   1  12
TORSDOF 4
ENDMDL
MODEL 3
REMARK VINA RESULT:    -6.277      3.206      6.095
REMARK INTER + INTRA:          -8.218
REMARK INTER:                  -7.639
REMARK INTRA:                  -0.579
REMARK UNBOUND:                -0.474
REMARK  Name = 
REMARK  5 active torsions:
REMARK  status: ('A' for Active; 'I' for Inactive)
REMARK    1  A    between atoms: C_1  and  C_2
REMARK    2  A    between atoms: C_2  and  O_3
REMARK    3  A    between atoms: C_2  and  C_13
REMARK    4  A    between atoms: O_3  and  C_4
REMARK    5  A    between atoms: C_7  and  C_8
REMARK                            x       y       z     vdW  Elec       q    Type
REMARK                         _______ _______ _______ _____ _____    ______ ____
ROOT
ATOM      1  C   UNL     1      45.874   5.047  12.839  0.00  0.00    +0.000 A 
ATOM      2  C   UNL     1      46.270   6.265  12.290  0.00  0.00    +0.000 A 
ATOM      3  C   UNL     1      47.357   6.953  12.827  0.00  0.00    +0.000 A 
ATOM      4  C   UNL     1      48.005   6.401  13.923  0.00  0.00    +0.000 A 
ATOM      5  N   UNL     1      47.632   5.229  14.510  0.00  0.00    +0.000 NA
ATOM      6  C   UNL     1      46.571   4.591  13.952  0.00  0.00    +0.000 A 
ENDROOT
BRANCH   4   7
ATOM      7  C   UNL     1      49.185   7.107  14.521  0.00  0.00    +0.000 C 
ATOM      8  N   UNL     1      50.184   7.432  13.646  0.00  0.00    +0.000 N 
ATOM      9  O   UNL     1      49.259   7.378  15.714  0.00  0.00    +0.000 OA
ATOM     10  H   UNL     1      50.095   7.183  12.667  0.00  0.00    +0.000 HD
ATOM     11  H   UNL     1      51.015   7.893  13.986  0.00  0.00    +0.000 HD
ENDBRANCH   4   7
BRANCH   1  12
ATOM     12  O   UNL     1      44.819   4.431  12.226  0.00  0.00    +0.000 OA
BRANCH  12  14
ATOM     13  C   UNL     1      42.693   5.340  11.454  0.00  0.00    +0.000 C 
ATOM     14  C   UNL     1      44.174   5.111  11.134  0.00  0.00    +0.000 C 
BRANCH  14  15
ATOM     15  C   UNL     1      44.331   4.261   9.847  0.00  0.00    +0.000 C 
ATOM     16  C   UNL     1      44.553   2.763  10.119  0.00  0.00    +0.000 C 
ATOM     17  C   UNL     1      44.819   2.003   8.822  0.00  0.00    +0.000 C 
ATOM     18  C   UNL     1      45.927   2.674   8.026  0.00  0.00    +0.000 C 
ATOM     19  O   UNL     1      45.586   4.035   7.763  0.00  0.00    +0.000 OA
ATOM     20  C   UNL     1      45.466   4.799   8.965  0.00  0.00    +0.000 C 
ENDBRANCH  14  15
ENDBRANCH  12  14
ENDBRANCH   1  12
TORSDOF 4
ENDMDL
MODEL 4
REMARK VINA RESULT:    -5.513      3.060      5.089
REMARK INTER + INTRA:          -7.276
REMARK INTER:                  -6.805
REMARK INTRA:                  -0.471
REMARK UNBOUND:                -0.474
REMARK  Name = 
REMARK  5 active torsions:
REMARK  status: ('A' for Active; 'I' for Inactive)
REMARK    1  A    between atoms: C_1  and  C_2
REMARK    2  A    between atoms: C_2  and  O_3
REMARK    3  A    between atoms: C_2  and  C_13
REMARK    4  A    between atoms: O_3  and  C_4
REMARK    5  A    between atoms: C_7  and  C_8
REMARK                            x       y       z     vdW  Elec       q    Type
REMARK                         _______ _______ _______ _____ _____    ______ ____
ROOT
ATOM      1  C   UNL     1      46.398   5.819  12.679  0.00  0.00    +0.000 A 
ATOM      2  C   UNL     1      45.906   5.962  11.383  0.00  0.00    +0.000 A 
ATOM      3  C   UNL     1      45.116   4.960  10.821  0.00  0.00    +0.000 A 
ATOM      4  C   UNL     1      44.861   3.825  11.578  0.00  0.00    +0.000 A 
ATOM      5  N   UNL     1      45.347   3.631  12.836  0.00  0.00    +0.000 NA
ATOM      6  C   UNL     1      46.108   4.634  13.346  0.00  0.00    +0.000 A 
ENDROOT
BRANCH   4   7
ATOM      7  C   UNL     1      44.007   2.731  11.011  0.00  0.00    +0.000 C 
ATOM      8  N   UNL     1      44.490   2.133   9.879  0.00  0.00    +0.000 N 
ATOM      9  O   UNL     1      42.946   2.388  11.520  0.00  0.00    +0.000 OA
ATOM     10  H   UNL     1      45.366   2.449   9.479  0.00  0.00    +0.000 HD
ATOM     11  H   UNL     1      43.955   1.400   9.435  0.00  0.00    +0.000 HD
ENDBRANCH   4   7
BRANCH   1  12
ATOM     12  O   UNL     1      47.135   6.866  13.156  0.00  0.00    +0.000 OA
BRANCH  12  14
ATOM     13  C   UNL     1      49.200   7.072  14.435  0.00  0.00    +0.000 C 
ATOM     14  C   UNL     1      48.568   6.786  13.068  0.00  0.00    +0.000 C 
BRANCH  14  15
ATOM     15  C   UNL     1      49.067   7.805  12.012  0.00  0.00    +0.000 C 
ATOM     16  C   UNL     1      50.584   8.059  12.067  0.00  0.00    +0.000 C 
ATOM     17  C   UNL     1      50.993   9.155  11.086  0.00  0.00    +0.000 C 
ATOM     18  C   UNL     1      50.134  10.395  11.281  0.00  0.00    +0.000 C 
ATOM     19  O   UNL     1      48.754  10.064  11.134  0.00  0.00    +0.000 OA
ATOM     20  C   UNL     1      48.316   9.137  12.132  0.00  0.00    +0.000 C 
ENDBRANCH  14  15
ENDBRANCH  12  14
ENDBRANCH   1  12
TORSDOF 4
ENDMDL
MODEL 5
REMARK VINA RESULT:    -5.454      3.916      6.225
REMARK INTER + INTRA:          -7.203
REMARK INTER:                  -6.727
REMARK INTRA:                  -0.476
REMARK UNBOUND:                -0.474
REMARK  Name = 
REMARK  5 active torsions:
REMARK  status: ('A' for Active; 'I' for Inactive)
REMARK    1  A    between atoms: C_1  and  C_2
REMARK    2  A    between atoms: C_2  and  O_3
REMARK    3  A    between atoms: C_2  and  C_13
REMARK    4  A    between atoms: O_3  and  C_4
REMARK    5  A    between atoms: C_7  and  C_8
REMARK                            x       y       z     vdW  Elec       q    Type
REMARK                         _______ _______ _______ _____ _____    ______ ____
ROOT
ATOM      1  C   UNL     1      47.143   5.022  13.614  0.00  0.00    +0.000 A 
ATOM      2  C   UNL     1      46.252   5.954  13.084  0.00  0.00    +0.000 A 
ATOM      3  C   UNL     1      45.056   5.527  12.508  0.00  0.00    +0.000 A 
ATOM      4  C   UNL     1      44.800   4.164  12.463  0.00  0.00    +0.000 A 
ATOM      5  N   UNL     1      45.657   3.217  12.941  0.00  0.00    +0.000 NA
ATOM      6  C   UNL     1      46.808   3.678  13.496  0.00  0.00    +0.000 A 
ENDROOT
BRANCH   4   7
ATOM      7  C   UNL     1      43.520   3.668  11.861  0.00  0.00    +0.000 C 
ATOM      8  N   UNL     1      43.401   2.309  11.762  0.00  0.00    +0.000 N 
ATOM      9  O   UNL     1      42.632   4.423  11.478  0.00  0.00    +0.000 OA
ATOM     10  H   UNL     1      44.159   1.715  12.079  0.00  0.00    +0.000 HD
ATOM     11  H   UNL     1      42.571   1.909  11.349  0.00  0.00    +0.000 HD
ENDBRANCH   4   7
BRANCH   1  12
ATOM     12  O   UNL     1      48.273   5.536  14.185  0.00  0.00    +0.000 OA
BRANCH  12  14
ATOM     13  C   UNL     1      48.972   7.456  15.515  0.00  0.00    +0.000 C 
ATOM     14  C   UNL     1      48.161   6.156  15.478  0.00  0.00    +0.000 C 
BRANCH  14  15
ATOM     15  C   UNL     1      48.666   5.165  16.559  0.00  0.00    +0.000 C 
ATOM     16  C   UNL     1      47.585   4.189  17.056  0.00  0.00    +0.000 C 
ATOM     17  C   UNL     1      48.110   3.325  18.199  0.00  0.00    +0.000 C 
ATOM     18  C   UNL     1      48.730   4.191  19.284  0.00  0.00    +0.000 C 
ATOM     19  O   UNL     1      49.770   4.998  18.732  0.00  0.00    +0.000 OA
ATOM     20  C   UNL     1      49.274   5.914  17.752  0.00  0.00    +0.000 C 
ENDBRANCH  14  15
ENDBRANCH  12  14
ENDBRANCH   1  12
TORSDOF 4
ENDMDL
MODEL 6
REMARK VINA RESULT:    -5.273      4.055      6.112
REMARK INTER + INTRA:          -6.980
REMARK INTER:                  -6.592
REMARK INTRA:                  -0.388
REMARK UNBOUND:                -0.474
REMARK  Name = 
REMARK  5 active torsions:
REMARK  status: ('A' for Active; 'I' for Inactive)
REMARK    1  A    between atoms: C_1  and  C_2
REMARK    2  A    between atoms: C_2  and  O_3
REMARK    3  A    between atoms: C_2  and  C_13
REMARK    4  A    between atoms: O_3  and  C_4
REMARK    5  A    between atoms: C_7  and  C_8
REMARK                            x       y       z     vdW  Elec       q    Type
REMARK                         _______ _______ _______ _____ _____    ______ ____
ROOT
ATOM      1  C   UNL     1      47.008   5.510  13.250  0.00  0.00    +0.000 A 
ATOM      2  C   UNL     1      46.574   6.289  12.179  0.00  0.00    +0.000 A 
ATOM      3  C   UNL     1      45.294   6.106  11.656  0.00  0.00    +0.000 A 
ATOM      4  C   UNL     1      44.491   5.123  12.217  0.00  0.00    +0.000 A 
ATOM      5  N   UNL     1      44.887   4.319  13.244  0.00  0.00    +0.000 NA
ATOM      6  C   UNL     1      46.139   4.534  13.724  0.00  0.00    +0.000 A 
ENDROOT
BRANCH   4   7
ATOM      7  C   UNL     1      43.106   4.905  11.688  0.00  0.00    +0.000 C 
ATOM      8  N   UNL     1      42.271   5.986  11.758  0.00  0.00    +0.000 N 
ATOM      9  O   UNL     1      42.736   3.833  11.222  0.00  0.00    +0.000 OA
ATOM     10  H   UNL     1      42.606   6.854  12.158  0.00  0.00    +0.000 HD
ATOM     11  H   UNL     1      41.318   5.901  11.434  0.00  0.00    +0.000 HD
ENDBRANCH   4   7
BRANCH   1  12
ATOM     12  O   UNL     1      48.264   5.783  13.715  0.00  0.00    +0.000 OA
BRANCH  12  14
ATOM     13  C   UNL     1      49.394   7.943  13.731  0.00  0.00    +0.000 C 
ATOM     14  C   UNL     1      48.461   6.984  14.481  0.00  0.00    +0.000 C 
BRANCH  14  15
ATOM     15  C   UNL     1      49.055   6.611  15.863  0.00  0.00    +0.000 C 
ATOM     16  C   UNL     1      48.402   5.373  16.503  0.00  0.00    +0.000 C 
ATOM     17  C   UNL     1      48.946   5.131  17.908  0.00  0.00    +0.000 C 
ATOM     18  C   UNL     1      48.856   6.398  18.743  0.00  0.00    +0.000 C 
ATOM     19  O   UNL     1      49.558   7.461  18.098  0.00  0.00    +0.000 OA
ATOM     20  C   UNL     1      48.978   7.796  16.835  0.00  0.00    +0.000 C 
ENDBRANCH  14  15
ENDBRANCH  12  14
ENDBRANCH   1  12
TORSDOF 4
ENDMDL
MODEL 7
REMARK VINA RESULT:    -5.152      5.280      7.840
REMARK INTER + INTRA:          -6.830
REMARK INTER:                  -6.449
REMARK INTRA:                  -0.381
REMARK UNBOUND:                -0.474
REMARK  Name = 
REMARK  5 active torsions:
REMARK  status: ('A' for Active; 'I' for Inactive)
REMARK    1  A    between atoms: C_1  and  C_2
REMARK    2  A    between atoms: C_2  and  O_3
REMARK    3  A    between atoms: C_2  and  C_13
REMARK    4  A    between atoms: O_3  and  C_4
REMARK    5  A    between atoms: C_7  and  C_8
REMARK                            x       y       z     vdW  Elec       q    Type
REMARK                         _______ _______ _______ _____ _____    ______ ____
ROOT
ATOM      1  C   UNL     1      47.717   4.545  15.904  0.00  0.00    +0.000 A 
ATOM      2  C   UNL     1      47.903   3.209  16.256  0.00  0.00    +0.000 A 
ATOM      3  C   UNL     1      49.016   2.834  17.009  0.00  0.00    +0.000 A 
ATOM      4  C   UNL     1      49.926   3.818  17.369  0.00  0.00    +0.000 A 
ATOM      5  N   UNL     1      49.799   5.129  17.019  0.00  0.00    +0.000 NA
ATOM      6  C   UNL     1      48.699   5.451  16.290  0.00  0.00    +0.000 A 
ENDROOT
BRANCH   4   7
ATOM      7  C   UNL     1      51.128   3.454  18.187  0.00  0.00    +0.000 C 
ATOM      8  N   UNL     1      51.223   4.072  19.403  0.00  0.00    +0.000 N 
ATOM      9  O   UNL     1      51.976   2.658  17.799  0.00  0.00    +0.000 OA
ATOM     10  H   UNL     1      50.510   4.734  19.688  0.00  0.00    +0.000 HD
ATOM     11  H   UNL     1      52.018   3.885  19.997  0.00  0.00    +0.000 HD
ENDBRANCH   4   7
BRANCH   1  12
ATOM     12  O   UNL     1      46.583   4.822  15.194  0.00  0.00    +0.000 OA
BRANCH  12  14
ATOM     13  C   UNL     1      47.155   5.841  13.055  0.00  0.00    +0.000 C 
ATOM     14  C   UNL     1      46.599   4.605  13.772  0.00  0.00    +0.000 C 
BRANCH  14  15
ATOM     15  C   UNL     1      45.159   4.295  13.291  0.00  0.00    +0.000 C 
ATOM     16  C   UNL     1      45.098   3.280  12.136  0.00  0.00    +0.000 C 
ATOM     17  C   UNL     1      43.668   3.109  11.631  0.00  0.00    +0.000 C 
ATOM     18  C   UNL     1      43.045   4.461  11.320  0.00  0.00    +0.000 C 
ATOM     19  O   UNL     1      43.083   5.296  12.478  0.00  0.00    +0.000 OA
ATOM     20  C   UNL     1      44.423   5.580  12.889  0.00  0.00    +0.000 C 
ENDBRANCH  14  15
ENDBRANCH  12  14
ENDBRANCH   1  12
TORSDOF 4
ENDMDL
MODEL 8
REMARK VINA RESULT:    -5.035      4.115      6.651
REMARK INTER + INTRA:          -6.686
REMARK INTER:                  -6.222
REMARK INTRA:                  -0.464
REMARK UNBOUND:                -0.474
REMARK  Name = 
REMARK  5 active torsions:
REMARK  status: ('A' for Active; 'I' for Inactive)
REMARK    1  A    between atoms: C_1  and  C_2
REMARK    2  A    between atoms: C_2  and  O_3
REMARK    3  A    between atoms: C_2  and  C_13
REMARK    4  A    between atoms: O_3  and  C_4
REMARK    5  A    between atoms: C_7  and  C_8
REMARK                            x       y       z     vdW  Elec       q    Type
REMARK                         _______ _______ _______ _____ _____    ______ ____
ROOT
ATOM      1  C   UNL     1      47.762   7.130  12.978  0.00  0.00    +0.000 A 
ATOM      2  C   UNL     1      48.213   7.682  11.780  0.00  0.00    +0.000 A 
ATOM      3  C   UNL     1      49.528   8.132  11.670  0.00  0.00    +0.000 A 
ATOM      4  C   UNL     1      50.351   8.031  12.783  0.00  0.00    +0.000 A 
ATOM      5  N   UNL     1      49.942   7.528  13.982  0.00  0.00    +0.000 NA
ATOM      6  C   UNL     1      48.655   7.098  14.043  0.00  0.00    +0.000 A 
ENDROOT
BRANCH   4   7
ATOM      7  C   UNL     1      51.774   8.495  12.699  0.00  0.00    +0.000 C 
ATOM      8  N   UNL     1      52.604   8.032  13.682  0.00  0.00    +0.000 N 
ATOM      9  O   UNL     1      52.176   9.241  11.813  0.00  0.00    +0.000 OA
ATOM     10  H   UNL     1      52.236   7.426  14.406  0.00  0.00    +0.000 HD
ATOM     11  H   UNL     1      53.572   8.320  13.695  0.00  0.00    +0.000 HD
ENDBRANCH   4   7
BRANCH   1  12
ATOM     12  O   UNL     1      46.469   6.688  12.981  0.00  0.00    +0.000 OA
BRANCH  12  14
ATOM     13  C   UNL     1      44.615   7.379  11.557  0.00  0.00    +0.000 C 
ATOM     14  C   UNL     1      45.826   6.453  11.716  0.00  0.00    +0.000 C 
BRANCH  14  15
ATOM     15  C   UNL     1      45.392   4.967  11.638  0.00  0.00    +0.000 C 
ATOM     16  C   UNL     1      44.586   4.625  10.373  0.00  0.00    +0.000 C 
ATOM     17  C   UNL     1      44.088   3.182  10.414  0.00  0.00    +0.000 C 
ATOM     18  C   UNL     1      43.365   2.902  11.722  0.00  0.00    +0.000 C 
ATOM     19  O   UNL     1      44.226   3.179  12.826  0.00  0.00    +0.000 OA
ATOM     20  C   UNL     1      44.596   4.559  12.885  0.00  0.00    +0.000 C 
ENDBRANCH  14  15
ENDBRANCH  12  14
ENDBRANCH   1  12
TORSDOF 4
ENDMDL
MODEL 9
REMARK VINA RESULT:    -4.951      4.957      7.403
REMARK INTER + INTRA:          -6.583
REMARK INTER:                  -6.054
REMARK INTRA:                  -0.529
REMARK UNBOUND:                -0.474
REMARK  Name = 
REMARK  5 active torsions:
REMARK  status: ('A' for Active; 'I' for Inactive)
REMARK    1  A    between atoms: C_1  and  C_2
REMARK    2  A    between atoms: C_2  and  O_3
REMARK    3  A    between atoms: C_2  and  C_13
REMARK    4  A    between atoms: O_3  and  C_4
REMARK    5  A    between atoms: C_7  and  C_8
REMARK                            x       y       z     vdW  Elec       q    Type
REMARK                         _______ _______ _______ _____ _____    ______ ____
ROOT
ATOM      1  C   UNL     1      47.892   5.518  14.965  0.00  0.00    +0.000 A 
ATOM      2  C   UNL     1      46.922   4.560  14.674  0.00  0.00    +0.000 A 
ATOM      3  C   UNL     1      46.048   4.753  13.605  0.00  0.00    +0.000 A 
ATOM      4  C   UNL     1      46.162   5.924  12.869  0.00  0.00    +0.000 A 
ATOM      5  N   UNL     1      47.074   6.900  13.137  0.00  0.00    +0.000 NA
ATOM      6  C   UNL     1      47.908   6.668  14.184  0.00  0.00    +0.000 A 
ENDROOT
BRANCH   4   7
ATOM      7  C   UNL     1      45.246   6.161  11.706  0.00  0.00    +0.000 C 
ATOM      8  N   UNL     1      44.001   6.633  12.023  0.00  0.00    +0.000 N 
ATOM      9  O   UNL     1      45.579   5.949  10.546  0.00  0.00    +0.000 OA
ATOM     10  H   UNL     1      43.755   6.788  12.994  0.00  0.00    +0.000 HD
ATOM     11  H   UNL     1      43.329   6.798  11.288  0.00  0.00    +0.000 HD
ENDBRANCH   4   7
BRANCH   1  12
ATOM     12  O   UNL     1      48.723   5.227  16.009  0.00  0.00    +0.000 OA
BRANCH  12  14
ATOM     13  C   UNL     1      47.673   5.378  18.205  0.00  0.00    +0.000 C 
ATOM     14  C   UNL     1      48.199   4.452  17.102  0.00  0.00    +0.000 C 
BRANCH  14  15
ATOM     15  C   UNL     1      49.318   3.529  17.650  0.00  0.00    +0.000 C 
ATOM     16  C   UNL     1      50.704   4.197  17.691  0.00  0.00    +0.000 C 
ATOM     17  C   UNL     1      51.779   3.204  18.125  0.00  0.00    +0.000 C 
ATOM     18  C   UNL     1      51.709   1.939  17.283  0.00  0.00    +0.000 C 
ATOM     19  O   UNL     1      50.408   1.360  17.376  0.00  0.00    +0.000 OA
ATOM     20  C   UNL     1      49.398   2.223  16.848  0.00  0.00    +0.000 C 
ENDBRANCH  14  15
ENDBRANCH  12  14
ENDBRANCH   1  12
TORSDOF 4
ENDMDL
