MODEL 1
REMARK VINA RESULT:    -8.044      0.000      0.000
REMARK INTER + INTRA:         -11.855
REMARK INTER:                 -10.630
REMARK INTRA:                  -1.225
REMARK UNBOUND:                -1.225
REMARK  Name = 
REMARK  6 active torsions:
REMARK  status: ('A' for Active; 'I' for Inactive)
REMARK    1  A    between atoms: C_2  and  C_20
REMARK    2  A    between atoms: N_3  and  C_4
REMARK    3  A    between atoms: C_4  and  C_5
REMARK    4  A    between atoms: C_8  and  C_9
REMARK    5  A    between atoms: C_9  and  O_10
REMARK    6  A    between atoms: C_9  and  C_11
REMARK                            x       y       z     vdW  Elec       q    Type
REMARK                         _______ _______ _______ _____ _____    ______ ____
ROOT
ATOM      1  C   UNL     1      47.174   8.117  13.556  0.00  0.00    +0.000 C 
ENDROOT
BRANCH   1   2
ATOM      2  C   UNL     1      46.534   7.154  12.595  0.00  0.00    +0.000 A 
ATOM      3  C   UNL     1      47.110   6.908  11.340  0.00  0.00    +0.000 A 
ATOM      4  C   UNL     1      46.486   6.056  10.428  0.00  0.00    +0.000 A 
ATOM      5  C   UNL     1      45.240   5.484  10.732  0.00  0.00    +0.000 A 
ATOM      6  C   UNL     1      44.686   5.705  12.000  0.00  0.00    +0.000 A 
ATOM      7  C   UNL     1      45.323   6.531  12.924  0.00  0.00    +0.000 A 
BRANCH   5   8
ATOM      8  C   UNL     1      44.436   4.791   9.652  0.00  0.00    +0.000 C 
BRANCH   8   9
ATOM      9  C   UNL     1      44.766   3.290   9.434  0.00  0.00    +0.000 C 
ATOM     10  O   UNL     1      44.223   2.417  10.121  0.00  0.00    +0.000 OA
ATOM     11  N   UNL     1      45.658   2.966   8.426  0.00  0.00    +0.000 N 
ATOM     12  C   UNL     1      46.386   3.866   7.551  0.00  0.00    +0.000 C 
ATOM     13  C   UNL     1      46.706   3.002   6.349  0.00  0.00    +0.000 C 
ATOM     14  C   UNL     1      46.976   1.636   6.966  0.00  0.00    +0.000 C 
ATOM     15  C   UNL     1      46.140   1.608   8.249  0.00  0.00    +0.000 C 
ENDBRANCH   8   9
BRANCH   8  16
ATOM     16  O   UNL     1      43.062   5.054   9.933  0.00  0.00    +0.000 OA
ATOM     17  H   UNL     1      43.005   5.238  10.889  0.00  0.00    +0.000 HD
ENDBRANCH   8  16
ENDBRANCH   5   8
ENDBRANCH   1   2
BRANCH   1  20
ATOM     18  O   UNL     1      49.705   7.015  13.903  0.00  0.00    +0.000 OA
ATOM     19  C   UNL     1      48.893   6.950  14.832  0.00  0.00    +0.000 C 
ATOM     20  N   UNL     1      47.618   7.452  14.751  0.00  0.00    +0.000 N 
ATOM     21  H   UNL     1      47.127   7.634  15.616  0.00  0.00    +0.000 HD
BRANCH  19  22
ATOM     22  C   UNL     1      49.201   6.309  16.101  0.00  0.00    +0.000 A 
ATOM     23  C   UNL     1      50.127   6.814  17.004  0.00  0.00    +0.000 A 
ATOM     24  S   UNL     1      50.252   5.871  18.422  0.00  0.00    +0.000 S 
ATOM     25  C   UNL     1      49.078   4.770  17.865  0.00  0.00    +0.000 A 
ATOM     26  N   UNL     1      48.708   3.695  18.610  0.00  0.00    +0.000 NA
ATOM     27  C   UNL     1      47.804   2.954  18.055  0.00  0.00    +0.000 A 
ATOM     28  N   UNL     1      47.244   3.189  16.825  0.00  0.00    +0.000 N 
ATOM     29  C   UNL     1      47.637   4.220  16.002  0.00  0.00    +0.000 A 
ATOM     30  O   UNL     1      47.225   4.298  14.852  0.00  0.00    +0.000 OA
ATOM     31  C   UNL     1      48.606   5.110  16.613  0.00  0.00    +0.000 A 
ATOM     32  H   UNL     1      46.576   2.545  16.427  0.00  0.00    +0.000 HD
ENDBRANCH  19  22
ENDBRANCH   1  20
TORSDOF 6
ENDMDL
MODEL 2
REMARK VINA RESULT:    -7.841      1.660      2.052
REMARK INTER + INTRA:         -11.587
REMARK INTER:                 -10.878
REMARK INTRA:                  -0.709
REMARK UNBOUND:                -1.225
REMARK  Name = 
REMARK  6 active torsions:
REMARK  status: ('A' for Active; 'I' for Inactive)
REMARK    1  A    between atoms: C_2  and  C_20
REMARK    2  A    between atoms: N_3  and  C_4
REMARK    3  A    between atoms: C_4  and  C_5
REMARK    4  A    between atoms: C_8  and  C_9
REMARK    5  A    between atoms: C_9  and  O_10
REMARK    6  A    between atoms: C_9  and  C_11
REMARK                            x       y       z     vdW  Elec       q    Type
REMARK                         _______ _______ _______ _____ _____    ______ ____
ROOT
ATOM      1  C   UNL     1      48.193   7.088  13.731  0.00  0.00    +0.000 C 
ENDROOT
BRANCH   1   2
ATOM      2  C   UNL     1      46.905   6.589  13.139  0.00  0.00    +0.000 A 
ATOM      3  C   UNL     1      46.370   5.353  13.532  0.00  0.00    +0.000 A 
ATOM      4  C   UNL     1      45.203   4.866  12.942  0.00  0.00    +0.000 A 
ATOM      5  C   UNL     1      44.584   5.579  11.903  0.00  0.00    +0.000 A 
ATOM      6  C   UNL     1      45.102   6.830  11.539  0.00  0.00    +0.000 A 
ATOM      7  C   UNL     1      46.250   7.332  12.148  0.00  0.00    +0.000 A 
BRANCH   5   8
ATOM      8  C   UNL     1      43.491   4.931  11.080  0.00  0.00    +0.000 C 
BRANCH   8   9
ATOM      9  C   UNL     1      43.778   3.479  10.613  0.00  0.00    +0.000 C 
ATOM     10  O   UNL     1      43.205   2.520  11.143  0.00  0.00    +0.000 OA
ATOM     11  N   UNL     1      44.667   3.301   9.567  0.00  0.00    +0.000 N 
ATOM     12  C   UNL     1      45.427   4.314   8.856  0.00  0.00    +0.000 C 
ATOM     13  C   UNL     1      45.731   3.654   7.527  0.00  0.00    +0.000 C 
ATOM     14  C   UNL     1      45.955   2.197   7.907  0.00  0.00    +0.000 C 
ATOM     15  C   UNL     1      45.110   1.979   9.165  0.00  0.00    +0.000 C 
ENDBRANCH   8   9
BRANCH   8  16
ATOM     16  O   UNL     1      42.279   5.080  11.818  0.00  0.00    +0.000 OA
ATOM     17  H   UNL     1      41.593   4.595  11.324  0.00  0.00    +0.000 HD
ENDBRANCH   8  16
ENDBRANCH   5   8
ENDBRANCH   1   2
BRANCH   1  20
ATOM     18  O   UNL     1      50.350   6.657  15.435  0.00  0.00    +0.000 OA
ATOM     19  C   UNL     1      49.250   6.934  15.923  0.00  0.00    +0.000 C 
ATOM     20  N   UNL     1      48.125   7.152  15.166  0.00  0.00    +0.000 N 
ATOM     21  H   UNL     1      47.360   7.658  15.591  0.00  0.00    +0.000 HD
BRANCH  19  22
ATOM     22  C   UNL     1      49.030   7.035  17.357  0.00  0.00    +0.000 A 
ATOM     23  C   UNL     1      48.810   8.240  18.012  0.00  0.00    +0.000 A 
ATOM     24  S   UNL     1      48.546   8.047  19.687  0.00  0.00    +0.000 S 
ATOM     25  C   UNL     1      48.721   6.356  19.580  0.00  0.00    +0.000 A 
ATOM     26  N   UNL     1      48.616   5.563  20.679  0.00  0.00    +0.000 NA
ATOM     27  C   UNL     1      48.768   4.302  20.437  0.00  0.00    +0.000 A 
ATOM     28  N   UNL     1      49.021   3.765  19.200  0.00  0.00    +0.000 N 
ATOM     29  C   UNL     1      49.209   4.530  18.071  0.00  0.00    +0.000 A 
ATOM     30  O   UNL     1      49.588   4.021  17.024  0.00  0.00    +0.000 OA
ATOM     31  C   UNL     1      48.987   5.946  18.288  0.00  0.00    +0.000 A 
ATOM     32  H   UNL     1      49.177   2.774  19.085  0.00  0.00    +0.000 HD
ENDBRANCH  19  22
ENDBRANCH   1  20
TORSDOF 6
ENDMDL
MODEL 3
REMARK VINA RESULT:    -7.433      1.986      2.400
REMARK INTER + INTRA:         -11.048
REMARK INTER:                 -10.132
REMARK INTRA:                  -0.916
REMARK UNBOUND:                -1.225
REMARK  Name = 
REMARK  6 active torsions:
REMARK  status: ('A' for Active; 'I' for Inactive)
REMARK    1  A    between atoms: C_2  and  C_20
REMARK    2  A    between atoms: N_3  and  C_4
REMARK    3  A    between atoms: C_4  and  C_5
REMARK    4  A    between atoms: C_8  and  C_9
REMARK    5  A    between atoms: C_9  and  O_10
REMARK    6  A    between atoms: C_9  and  C_11
REMARK                            x       y       z     vdW  Elec       q    Type
REMARK                         _______ _______ _______ _____ _____    ______ ____
ROOT
ATOM      1  C   UNL     1      47.983   7.331  13.935  0.00  0.00    +0.000 C 
ENDROOT
BRANCH   1   2
ATOM      2  C   UNL     1      47.138   6.562  12.958  0.00  0.00    +0.000 A 
ATOM      3  C   UNL     1      47.030   6.980  11.624  0.00  0.00    +0.000 A 
ATOM      4  C   UNL     1      46.202   6.297  10.732  0.00  0.00    +0.000 A 
ATOM      5  C   UNL     1      45.419   5.220  11.176  0.00  0.00    +0.000 A 
ATOM      6  C   UNL     1      45.558   4.784  12.501  0.00  0.00    +0.000 A 
ATOM      7  C   UNL     1      46.407   5.446  13.385  0.00  0.00    +0.000 A 
BRANCH   5   8
ATOM      8  C   UNL     1      44.325   4.657  10.293  0.00  0.00    +0.000 C 
BRANCH   8   9
ATOM      9  C   UNL     1      44.528   3.188   9.834  0.00  0.00    +0.000 C 
ATOM     10  O   UNL     1      43.909   2.266  10.376  0.00  0.00    +0.000 OA
ATOM     11  N   UNL     1      45.395   2.956   8.779  0.00  0.00    +0.000 N 
ATOM     12  C   UNL     1      46.200   3.921   8.053  0.00  0.00    +0.000 C 
ATOM     13  C   UNL     1      46.452   3.237   6.726  0.00  0.00    +0.000 C 
ATOM     14  C   UNL     1      46.602   1.772   7.113  0.00  0.00    +0.000 C 
ATOM     15  C   UNL     1      45.760   1.609   8.381  0.00  0.00    +0.000 C 
ENDBRANCH   8   9
BRANCH   8  16
ATOM     16  O   UNL     1      43.092   4.894  10.968  0.00  0.00    +0.000 OA
ATOM     17  H   UNL     1      42.555   4.088  10.857  0.00  0.00    +0.000 HD
ENDBRANCH   8  16
ENDBRANCH   5   8
ENDBRANCH   1   2
BRANCH   1  20
ATOM     18  O   UNL     1      50.189   6.671  15.498  0.00  0.00    +0.000 OA
ATOM     19  C   UNL     1      49.056   6.484  15.955  0.00  0.00    +0.000 C 
ATOM     20  N   UNL     1      47.908   6.767  15.256  0.00  0.00    +0.000 N 
ATOM     21  H   UNL     1      47.051   6.877  15.781  0.00  0.00    +0.000 HD
BRANCH  19  22
ATOM     22  C   UNL     1      48.824   5.922  17.276  0.00  0.00    +0.000 A 
ATOM     23  C   UNL     1      49.029   4.583  17.581  0.00  0.00    +0.000 A 
ATOM     24  S   UNL     1      48.712   4.220  19.219  0.00  0.00    +0.000 S 
ATOM     25  C   UNL     1      48.294   5.836  19.558  0.00  0.00    +0.000 A 
ATOM     26  N   UNL     1      47.909   6.220  20.804  0.00  0.00    +0.000 NA
ATOM     27  C   UNL     1      47.627   7.478  20.906  0.00  0.00    +0.000 A 
ATOM     28  N   UNL     1      47.691   8.382  19.876  0.00  0.00    +0.000 N 
ATOM     29  C   UNL     1      48.003   8.030  18.583  0.00  0.00    +0.000 A 
ATOM     30  O   UNL     1      47.894   8.836  17.668  0.00  0.00    +0.000 OA
ATOM     31  C   UNL     1      48.384   6.638  18.438  0.00  0.00    +0.000 A 
ATOM     32  H   UNL     1      47.412   9.343  20.010  0.00  0.00    +0.000 HD
ENDBRANCH  19  22
ENDBRANCH   1  20
TORSDOF 6
ENDMDL
MODEL 4
REMARK VINA RESULT:    -7.056      2.071      3.628
REMARK INTER + INTRA:         -10.550
REMARK INTER:                  -9.778
REMARK INTRA:                  -0.772
REMARK UNBOUND:                -1.225
REMARK  Name = 
REMARK  6 active torsions:
REMARK  status: ('A' for Active; 'I' for Inactive)
REMARK    1  A    between atoms: C_2  and  C_20
REMARK    2  A    between atoms: N_3  and  C_4
REMARK    3  A    between atoms: C_4  and  C_5
REMARK    4  A    between atoms: C_8  and  C_9
REMARK    5  A    between atoms: C_9  and  O_10
REMARK    6  A    between atoms: C_9  and  C_11
REMARK                            x       y       z     vdW  Elec       q    Type
REMARK                         _______ _______ _______ _____ _____    ______ ____
ROOT
ATOM      1  C   UNL     1      47.015   4.572  14.812  0.00  0.00    +0.000 C 
ENDROOT
BRANCH   1   2
ATOM      2  C   UNL     1      46.342   4.553  13.467  0.00  0.00    +0.000 A 
ATOM      3  C   UNL     1      45.617   3.429  13.047  0.00  0.00    +0.000 A 
ATOM      4  C   UNL     1      45.039   3.391  11.778  0.00  0.00    +0.000 A 
ATOM      5  C   UNL     1      45.231   4.454  10.881  0.00  0.00    +0.000 A 
ATOM      6  C   UNL     1      45.926   5.590  11.318  0.00  0.00    +0.000 A 
ATOM      7  C   UNL     1      46.478   5.642  12.597  0.00  0.00    +0.000 A 
BRANCH   5   8
ATOM      8  C   UNL     1      44.847   4.302   9.424  0.00  0.00    +0.000 C 
BRANCH   8   9
ATOM      9  C   UNL     1      45.129   2.908   8.802  0.00  0.00    +0.000 C 
ATOM     10  O   UNL     1      44.520   1.906   9.193  0.00  0.00    +0.000 OA
ATOM     11  N   UNL     1      46.058   2.835   7.777  0.00  0.00    +0.000 N 
ATOM     12  C   UNL     1      46.862   3.908   7.220  0.00  0.00    +0.000 C 
ATOM     13  C   UNL     1      47.209   3.401   5.836  0.00  0.00    +0.000 C 
ATOM     14  C   UNL     1      47.394   1.905   6.050  0.00  0.00    +0.000 C 
ATOM     15  C   UNL     1      46.495   1.560   7.240  0.00  0.00    +0.000 C 
ENDBRANCH   8   9
BRANCH   8  16
ATOM     16  O   UNL     1      43.491   4.729   9.311  0.00  0.00    +0.000 OA
ATOM     17  H   UNL     1      43.068   4.139   8.662  0.00  0.00    +0.000 HD
ENDBRANCH   8  16
ENDBRANCH   5   8
ENDBRANCH   1   2
BRANCH   1  20
ATOM     18  O   UNL     1      49.202   5.048  16.465  0.00  0.00    +0.000 OA
ATOM     19  C   UNL     1      48.628   6.009  15.942  0.00  0.00    +0.000 C 
ATOM     20  N   UNL     1      47.535   5.877  15.123  0.00  0.00    +0.000 N 
ATOM     21  H   UNL     1      47.311   6.645  14.506  0.00  0.00    +0.000 HD
BRANCH  19  22
ATOM     22  C   UNL     1      49.042   7.386  16.163  0.00  0.00    +0.000 A 
ATOM     23  C   UNL     1      48.856   8.054  17.366  0.00  0.00    +0.000 A 
ATOM     24  S   UNL     1      49.475   9.645  17.344  0.00  0.00    +0.000 S 
ATOM     25  C   UNL     1      50.004   9.480  15.733  0.00  0.00    +0.000 A 
ATOM     26  N   UNL     1      50.628  10.500  15.087  0.00  0.00    +0.000 NA
ATOM     27  C   UNL     1      50.973  10.223  13.872  0.00  0.00    +0.000 A 
ATOM     28  N   UNL     1      50.747   9.022  13.246  0.00  0.00    +0.000 N 
ATOM     29  C   UNL     1      50.056   7.987  13.832  0.00  0.00    +0.000 A 
ATOM     30  O   UNL     1      49.740   6.996  13.185  0.00  0.00    +0.000 OA
ATOM     31  C   UNL     1      49.704   8.236  15.217  0.00  0.00    +0.000 A 
ATOM     32  H   UNL     1      51.000   8.885  12.279  0.00  0.00    +0.000 HD
ENDBRANCH  19  22
ENDBRANCH   1  20
TORSDOF 6
ENDMDL
MODEL 5
REMARK VINA RESULT:    -6.947      3.924      9.423
REMARK INTER + INTRA:         -10.406
REMARK INTER:                  -9.533
REMARK INTRA:                  -0.874
REMARK UNBOUND:                -1.225
REMARK  Name = 
REMARK  6 active torsions:
REMARK  status: ('A' for Active; 'I' for Inactive)
REMARK    1  A    between atoms: C_2  and  C_20
REMARK    2  A    between atoms: N_3  and  C_4
REMARK    3  A    between atoms: C_4  and  C_5
REMARK    4  A    between atoms: C_8  and  C_9
REMARK    5  A    between atoms: C_9  and  O_10
REMARK    6  A    between atoms: C_9  and  C_11
REMARK                            x       y       z     vdW  Elec       q    Type
REMARK                         _______ _______ _______ _____ _____    ______ ____
ROOT
ATOM      1  C   UNL     1      47.141   3.398  16.780  0.00  0.00    +0.000 C 
ENDROOT
BRANCH   1   2
ATOM      2  C   UNL     1      48.622   3.337  17.031  0.00  0.00    +0.000 A 
ATOM      3  C   UNL     1      49.316   2.123  16.922  0.00  0.00    +0.000 A 
ATOM      4  C   UNL     1      50.680   2.057  17.209  0.00  0.00    +0.000 A 
ATOM      5  C   UNL     1      51.361   3.194  17.671  0.00  0.00    +0.000 A 
ATOM      6  C   UNL     1      50.672   4.413  17.745  0.00  0.00    +0.000 A 
ATOM      7  C   UNL     1      49.317   4.486  17.429  0.00  0.00    +0.000 A 
BRANCH   5   8
ATOM      8  C   UNL     1      52.758   3.067  18.242  0.00  0.00    +0.000 C 
BRANCH   8   9
ATOM      9  C   UNL     1      53.144   4.132  19.304  0.00  0.00    +0.000 C 
ATOM     10  O   UNL     1      52.801   4.002  20.484  0.00  0.00    +0.000 OA
ATOM     11  N   UNL     1      53.912   5.207  18.888  0.00  0.00    +0.000 N 
ATOM     12  C   UNL     1      54.379   5.509  17.548  0.00  0.00    +0.000 C 
ATOM     13  C   UNL     1      55.583   6.396  17.788  0.00  0.00    +0.000 C 
ATOM     14  C   UNL     1      55.173   7.215  19.004  0.00  0.00    +0.000 C 
ATOM     15  C   UNL     1      54.194   6.323  19.772  0.00  0.00    +0.000 C 
ENDBRANCH   8   9
BRANCH   8  16
ATOM     16  O   UNL     1      52.896   1.719  18.688  0.00  0.00    +0.000 OA
ATOM     17  H   UNL     1      52.049   1.477  19.106  0.00  0.00    +0.000 HD
ENDBRANCH   8  16
ENDBRANCH   5   8
ENDBRANCH   1   2
BRANCH   1  20
ATOM     18  O   UNL     1      47.144   3.085  14.015  0.00  0.00    +0.000 OA
ATOM     19  C   UNL     1      46.827   4.180  14.492  0.00  0.00    +0.000 C 
ATOM     20  N   UNL     1      46.808   4.435  15.840  0.00  0.00    +0.000 N 
ATOM     21  H   UNL     1      46.264   5.224  16.164  0.00  0.00    +0.000 HD
BRANCH  19  22
ATOM     22  C   UNL     1      46.464   5.321  13.665  0.00  0.00    +0.000 A 
ATOM     23  C   UNL     1      47.306   6.403  13.446  0.00  0.00    +0.000 A 
ATOM     24  S   UNL     1      46.627   7.573  12.405  0.00  0.00    +0.000 S 
ATOM     25  C   UNL     1      45.196   6.667  12.224  0.00  0.00    +0.000 A 
ATOM     26  N   UNL     1      44.172   7.111  11.449  0.00  0.00    +0.000 NA
ATOM     27  C   UNL     1      43.155   6.313  11.408  0.00  0.00    +0.000 A 
ATOM     28  N   UNL     1      43.070   5.115  12.073  0.00  0.00    +0.000 N 
ATOM     29  C   UNL     1      44.048   4.658  12.927  0.00  0.00    +0.000 A 
ATOM     30  O   UNL     1      43.863   3.665  13.620  0.00  0.00    +0.000 OA
ATOM     31  C   UNL     1      45.231   5.496  12.954  0.00  0.00    +0.000 A 
ATOM     32  H   UNL     1      42.229   4.560  12.037  0.00  0.00    +0.000 HD
ENDBRANCH  19  22
ENDBRANCH   1  20
TORSDOF 6
ENDMDL
MODEL 6
REMARK VINA RESULT:    -6.864      3.454      8.269
REMARK INTER + INTRA:         -10.296
REMARK INTER:                  -9.289
REMARK INTRA:                  -1.008
REMARK UNBOUND:                -1.225
REMARK  Name = 
REMARK  6 active torsions:
REMARK  status: ('A' for Active; 'I' for Inactive)
REMARK    1  A    between atoms: C_2  and  C_20
REMARK    2  A    between atoms: N_3  and  C_4
REMARK    3  A    between atoms: C_4  and  C_5
REMARK    4  A    between atoms: C_8  and  C_9
REMARK    5  A    between atoms: C_9  and  O_10
REMARK    6  A    between atoms: C_9  and  C_11
REMARK                            x       y       z     vdW  Elec       q    Type
REMARK                         _______ _______ _______ _____ _____    ______ ____
ROOT
ATOM      1  C   UNL     1      48.055   6.880  13.366  0.00  0.00    +0.000 C 
ENDROOT
BRANCH   1   2
ATOM      2  C   UNL     1      48.154   6.276  14.739  0.00  0.00    +0.000 A 
ATOM      3  C   UNL     1      48.933   6.884  15.734  0.00  0.00    +0.000 A 
ATOM      4  C   UNL     1      49.068   6.294  16.991  0.00  0.00    +0.000 A 
ATOM      5  C   UNL     1      48.474   5.049  17.255  0.00  0.00    +0.000 A 
ATOM      6  C   UNL     1      47.667   4.462  16.270  0.00  0.00    +0.000 A 
ATOM      7  C   UNL     1      47.508   5.066  15.025  0.00  0.00    +0.000 A 
BRANCH   5   8
ATOM      8  C   UNL     1      48.841   4.280  18.506  0.00  0.00    +0.000 C 
BRANCH   8   9
ATOM      9  C   UNL     1      50.350   4.274  18.868  0.00  0.00    +0.000 C 
ATOM     10  O   UNL     1      50.810   5.091  19.674  0.00  0.00    +0.000 OA
ATOM     11  N   UNL     1      51.150   3.305  18.285  0.00  0.00    +0.000 N 
ATOM     12  C   UNL     1      50.768   2.294  17.316  0.00  0.00    +0.000 C 
ATOM     13  C   UNL     1      51.825   1.223  17.494  0.00  0.00    +0.000 C 
ATOM     14  C   UNL     1      53.086   2.025  17.785  0.00  0.00    +0.000 C 
ATOM     15  C   UNL     1      52.592   3.315  18.446  0.00  0.00    +0.000 C 
ENDBRANCH   8   9
BRANCH   8  16
ATOM     16  O   UNL     1      47.991   4.761  19.546  0.00  0.00    +0.000 OA
ATOM     17  H   UNL     1      47.469   3.997  19.853  0.00  0.00    +0.000 HD
ENDBRANCH   8  16
ENDBRANCH   5   8
ENDBRANCH   1   2
BRANCH   1  20
ATOM     18  O   UNL     1      45.794   7.596  11.911  0.00  0.00    +0.000 OA
ATOM     19  C   UNL     1      46.258   6.459  11.773  0.00  0.00    +0.000 C 
ATOM     20  N   UNL     1      47.361   6.009  12.456  0.00  0.00    +0.000 N 
ATOM     21  H   UNL     1      47.853   5.209  12.083  0.00  0.00    +0.000 HD
BRANCH  19  22
ATOM     22  C   UNL     1      45.665   5.471  10.886  0.00  0.00    +0.000 A 
ATOM     23  C   UNL     1      45.793   5.512   9.504  0.00  0.00    +0.000 A 
ATOM     24  S   UNL     1      45.023   4.202   8.726  0.00  0.00    +0.000 S 
ATOM     25  C   UNL     1      44.498   3.552  10.211  0.00  0.00    +0.000 A 
ATOM     26  N   UNL     1      43.764   2.409  10.263  0.00  0.00    +0.000 NA
ATOM     27  C   UNL     1      43.445   2.040  11.460  0.00  0.00    +0.000 A 
ATOM     28  N   UNL     1      43.789   2.711  12.607  0.00  0.00    +0.000 N 
ATOM     29  C   UNL     1      44.467   3.909  12.603  0.00  0.00    +0.000 A 
ATOM     30  O   UNL     1      44.614   4.551  13.635  0.00  0.00    +0.000 OA
ATOM     31  C   UNL     1      44.896   4.327  11.282  0.00  0.00    +0.000 A 
ATOM     32  H   UNL     1      43.468   2.396  13.509  0.00  0.00    +0.000 HD
ENDBRANCH  19  22
ENDBRANCH   1  20
TORSDOF 6
ENDMDL
MODEL 7
REMARK VINA RESULT:    -6.834      4.478      9.011
REMARK INTER + INTRA:         -10.257
REMARK INTER:                  -9.386
REMARK INTRA:                  -0.871
REMARK UNBOUND:                -1.225
REMARK  Name = 
REMARK  6 active torsions:
REMARK  status: ('A' for Active; 'I' for Inactive)
REMARK    1  A    between atoms: C_2  and  C_20
REMARK    2  A    between atoms: N_3  and  C_4
REMARK    3  A    between atoms: C_4  and  C_5
REMARK    4  A    between atoms: C_8  and  C_9
REMARK    5  A    between atoms: C_9  and  O_10
REMARK    6  A    between atoms: C_9  and  C_11
REMARK                            x       y       z     vdW  Elec       q    Type
REMARK                         _______ _______ _______ _____ _____    ______ ____
ROOT
ATOM      1  C   UNL     1      47.359   3.612  16.956  0.00  0.00    +0.000 C 
ENDROOT
BRANCH   1   2
ATOM      2  C   UNL     1      48.822   3.441  17.257  0.00  0.00    +0.000 A 
ATOM      3  C   UNL     1      49.474   2.234  16.969  0.00  0.00    +0.000 A 
ATOM      4  C   UNL     1      50.819   2.058  17.299  0.00  0.00    +0.000 A 
ATOM      5  C   UNL     1      51.518   3.066  17.982  0.00  0.00    +0.000 A 
ATOM      6  C   UNL     1      50.871   4.284  18.236  0.00  0.00    +0.000 A 
ATOM      7  C   UNL     1      49.538   4.472  17.879  0.00  0.00    +0.000 A 
BRANCH   5   8
ATOM      8  C   UNL     1      52.878   2.779  18.582  0.00  0.00    +0.000 C 
BRANCH   8   9
ATOM      9  C   UNL     1      54.053   2.712  17.570  0.00  0.00    +0.000 C 
ATOM     10  O   UNL     1      54.618   3.744  17.188  0.00  0.00    +0.000 OA
ATOM     11  N   UNL     1      54.465   1.462  17.141  0.00  0.00    +0.000 N 
ATOM     12  C   UNL     1      53.901   0.168  17.481  0.00  0.00    +0.000 C 
ATOM     13  C   UNL     1      55.046  -0.790  17.229  0.00  0.00    +0.000 C 
ATOM     14  C   UNL     1      55.735  -0.194  16.009  0.00  0.00    +0.000 C 
ATOM     15  C   UNL     1      55.450   1.308  16.087  0.00  0.00    +0.000 C 
ENDBRANCH   8   9
BRANCH   8  16
ATOM     16  O   UNL     1      53.066   3.720  19.637  0.00  0.00    +0.000 OA
ATOM     17  H   UNL     1      53.856   3.428  20.130  0.00  0.00    +0.000 HD
ENDBRANCH   8  16
ENDBRANCH   5   8
ENDBRANCH   1   2
BRANCH   1  20
ATOM     18  O   UNL     1      47.327   3.109  14.219  0.00  0.00    +0.000 OA
ATOM     19  C   UNL     1      47.133   4.262  14.617  0.00  0.00    +0.000 C 
ATOM     20  N   UNL     1      47.142   4.611  15.944  0.00  0.00    +0.000 N 
ATOM     21  H   UNL     1      46.688   5.475  16.208  0.00  0.00    +0.000 HD
BRANCH  19  22
ATOM     22  C   UNL     1      46.897   5.375  13.711  0.00  0.00    +0.000 A 
ATOM     23  C   UNL     1      47.836   6.368  13.462  0.00  0.00    +0.000 A 
ATOM     24  S   UNL     1      47.296   7.523  12.327  0.00  0.00    +0.000 S 
ATOM     25  C   UNL     1      45.799   6.730  12.143  0.00  0.00    +0.000 A 
ATOM     26  N   UNL     1      44.844   7.209  11.303  0.00  0.00    +0.000 NA
ATOM     27  C   UNL     1      43.765   6.497  11.268  0.00  0.00    +0.000 A 
ATOM     28  N   UNL     1      43.555   5.354  12.000  0.00  0.00    +0.000 N 
ATOM     29  C   UNL     1      44.460   4.871  12.917  0.00  0.00    +0.000 A 
ATOM     30  O   UNL     1      44.167   3.942  13.659  0.00  0.00    +0.000 OA
ATOM     31  C   UNL     1      45.709   5.608  12.942  0.00  0.00    +0.000 A 
ATOM     32  H   UNL     1      42.672   4.869  11.963  0.00  0.00    +0.000 HD
ENDBRANCH  19  22
ENDBRANCH   1  20
TORSDOF 6
ENDMDL
MODEL 8
REMARK VINA RESULT:    -6.479      1.814      2.513
REMARK INTER + INTRA:          -9.787
REMARK INTER:                 -10.095
REMARK INTRA:                   0.308
REMARK UNBOUND:                -1.225
REMARK  Name = 
REMARK  6 active torsions:
REMARK  status: ('A' for Active; 'I' for Inactive)
REMARK    1  A    between atoms: C_2  and  C_20
REMARK    2  A    between atoms: N_3  and  C_4
REMARK    3  A    between atoms: C_4  and  C_5
REMARK    4  A    between atoms: C_8  and  C_9
REMARK    5  A    between atoms: C_9  and  O_10
REMARK    6  A    between atoms: C_9  and  C_11
REMARK                            x       y       z     vdW  Elec       q    Type
REMARK                         _______ _______ _______ _____ _____    ______ ____
ROOT
ATOM      1  C   UNL     1      47.621   7.926  13.964  0.00  0.00    +0.000 C 
ENDROOT
BRANCH   1   2
ATOM      2  C   UNL     1      46.658   7.197  13.069  0.00  0.00    +0.000 A 
ATOM      3  C   UNL     1      45.790   7.906  12.226  0.00  0.00    +0.000 A 
ATOM      4  C   UNL     1      44.860   7.230  11.435  0.00  0.00    +0.000 A 
ATOM      5  C   UNL     1      44.739   5.834  11.522  0.00  0.00    +0.000 A 
ATOM      6  C   UNL     1      45.633   5.127  12.339  0.00  0.00    +0.000 A 
ATOM      7  C   UNL     1      46.583   5.799  13.106  0.00  0.00    +0.000 A 
BRANCH   5   8
ATOM      8  C   UNL     1      43.560   5.129  10.884  0.00  0.00    +0.000 C 
BRANCH   8   9
ATOM      9  C   UNL     1      43.789   3.635  10.528  0.00  0.00    +0.000 C 
ATOM     10  O   UNL     1      43.186   2.742  11.132  0.00  0.00    +0.000 OA
ATOM     11  N   UNL     1      44.661   3.346   9.492  0.00  0.00    +0.000 N 
ATOM     12  C   UNL     1      45.452   4.272   8.702  0.00  0.00    +0.000 C 
ATOM     13  C   UNL     1      45.718   3.502   7.425  0.00  0.00    +0.000 C 
ATOM     14  C   UNL     1      45.892   2.070   7.912  0.00  0.00    +0.000 C 
ATOM     15  C   UNL     1      45.051   1.981   9.189  0.00  0.00    +0.000 C 
ENDBRANCH   8   9
BRANCH   8  16
ATOM     16  O   UNL     1      42.436   5.363  11.730  0.00  0.00    +0.000 OA
ATOM     17  H   UNL     1      42.754   5.266  12.647  0.00  0.00    +0.000 HD
ENDBRANCH   8  16
ENDBRANCH   5   8
ENDBRANCH   1   2
BRANCH   1  20
ATOM     18  O   UNL     1      50.169   7.017  14.618  0.00  0.00    +0.000 OA
ATOM     19  C   UNL     1      49.230   6.762  15.380  0.00  0.00    +0.000 C 
ATOM     20  N   UNL     1      47.937   7.155  15.137  0.00  0.00    +0.000 N 
ATOM     21  H   UNL     1      47.297   7.181  15.919  0.00  0.00    +0.000 HD
BRANCH  19  22
ATOM     22  C   UNL     1      49.398   5.994  16.603  0.00  0.00    +0.000 A 
ATOM     23  C   UNL     1      48.335   5.484  17.336  0.00  0.00    +0.000 A 
ATOM     24  S   UNL     1      48.836   4.594  18.704  0.00  0.00    +0.000 S 
ATOM     25  C   UNL     1      50.481   4.869  18.353  0.00  0.00    +0.000 A 
ATOM     26  N   UNL     1      51.465   4.376  19.150  0.00  0.00    +0.000 NA
ATOM     27  C   UNL     1      52.662   4.666  18.752  0.00  0.00    +0.000 A 
ATOM     28  N   UNL     1      52.960   5.405  17.635  0.00  0.00    +0.000 N 
ATOM     29  C   UNL     1      51.999   5.987  16.839  0.00  0.00    +0.000 A 
ATOM     30  O   UNL     1      52.311   6.767  15.948  0.00  0.00    +0.000 OA
ATOM     31  C   UNL     1      50.644   5.636  17.217  0.00  0.00    +0.000 A 
ATOM     32  H   UNL     1      53.914   5.636  17.404  0.00  0.00    +0.000 HD
ENDBRANCH  19  22
ENDBRANCH   1  20
TORSDOF 6
ENDMDL
MODEL 9
REMARK VINA RESULT:    -6.389      3.656      8.387
REMARK INTER + INTRA:          -9.668
REMARK INTER:                  -8.615
REMARK INTRA:                  -1.054
REMARK UNBOUND:                -1.225
REMARK  Name = 
REMARK  6 active torsions:
REMARK  status: ('A' for Active; 'I' for Inactive)
REMARK    1  A    between atoms: C_2  and  C_20
REMARK    2  A    between atoms: N_3  and  C_4
REMARK    3  A    between atoms: C_4  and  C_5
REMARK    4  A    between atoms: C_8  and  C_9
REMARK    5  A    between atoms: C_9  and  O_10
REMARK    6  A    between atoms: C_9  and  C_11
REMARK                            x       y       z     vdW  Elec       q    Type
REMARK                         _______ _______ _______ _____ _____    ______ ____
ROOT
ATOM      1  C   UNL     1      48.509   7.762  14.451  0.00  0.00    +0.000 C 
ENDROOT
BRANCH   1   2
ATOM      2  C   UNL     1      49.096   6.819  15.464  0.00  0.00    +0.000 A 
ATOM      3  C   UNL     1      48.299   5.840  16.075  0.00  0.00    +0.000 A 
ATOM      4  C   UNL     1      48.831   5.001  17.055  0.00  0.00    +0.000 A 
ATOM      5  C   UNL     1      50.157   5.169  17.485  0.00  0.00    +0.000 A 
ATOM      6  C   UNL     1      50.960   6.124  16.847  0.00  0.00    +0.000 A 
ATOM      7  C   UNL     1      50.438   6.942  15.847  0.00  0.00    +0.000 A 
BRANCH   5   8
ATOM      8  C   UNL     1      50.652   4.456  18.726  0.00  0.00    +0.000 C 
BRANCH   8   9
ATOM      9  C   UNL     1      52.159   4.082  18.725  0.00  0.00    +0.000 C 
ATOM     10  O   UNL     1      52.997   4.833  19.235  0.00  0.00    +0.000 OA
ATOM     11  N   UNL     1      52.521   2.868  18.165  0.00  0.00    +0.000 N 
ATOM     12  C   UNL     1      51.666   1.890  17.518  0.00  0.00    +0.000 C 
ATOM     13  C   UNL     1      52.451   0.601  17.645  0.00  0.00    +0.000 C 
ATOM     14  C   UNL     1      53.894   1.056  17.481  0.00  0.00    +0.000 C 
ATOM     15  C   UNL     1      53.913   2.502  17.984  0.00  0.00    +0.000 C 
ENDBRANCH   8   9
BRANCH   8  16
ATOM     16  O   UNL     1      50.247   5.247  19.842  0.00  0.00    +0.000 OA
ATOM     17  H   UNL     1      49.298   5.072  19.976  0.00  0.00    +0.000 HD
ENDBRANCH   8  16
ENDBRANCH   5   8
ENDBRANCH   1   2
BRANCH   1  20
ATOM     18  O   UNL     1      48.017   7.164  11.778  0.00  0.00    +0.000 OA
ATOM     19  C   UNL     1      47.113   6.996  12.604  0.00  0.00    +0.000 C 
ATOM     20  N   UNL     1      47.256   7.275  13.941  0.00  0.00    +0.000 N 
ATOM     21  H   UNL     1      46.608   6.842  14.585  0.00  0.00    +0.000 HD
BRANCH  19  22
ATOM     22  C   UNL     1      45.794   6.508  12.235  0.00  0.00    +0.000 A 
ATOM     23  C   UNL     1      44.800   7.321  11.707  0.00  0.00    +0.000 A 
ATOM     24  S   UNL     1      43.370   6.466  11.336  0.00  0.00    +0.000 S 
ATOM     25  C   UNL     1      44.041   4.994  11.871  0.00  0.00    +0.000 A 
ATOM     26  N   UNL     1      43.328   3.838  11.833  0.00  0.00    +0.000 NA
ATOM     27  C   UNL     1      43.973   2.805  12.269  0.00  0.00    +0.000 A 
ATOM     28  N   UNL     1      45.261   2.827  12.743  0.00  0.00    +0.000 N 
ATOM     29  C   UNL     1      45.997   3.983  12.870  0.00  0.00    +0.000 A 
ATOM     30  O   UNL     1      47.079   3.978  13.443  0.00  0.00    +0.000 OA
ATOM     31  C   UNL     1      45.331   5.155  12.336  0.00  0.00    +0.000 A 
ATOM     32  H   UNL     1      45.692   1.993  13.113  0.00  0.00    +0.000 HD
ENDBRANCH  19  22
ENDBRANCH   1  20
TORSDOF 6
ENDMDL
