MODEL 1
REMARK VINA RESULT:    -7.790      0.000      0.000
REMARK INTER + INTRA:         -11.612
REMARK INTER:                 -10.522
REMARK INTRA:                  -1.090
REMARK UNBOUND:                -1.090
REMARK  Name = 
REMARK  7 active torsions:
REMARK  status: ('A' for Active; 'I' for Inactive)
REMARK    1  A    between atoms: C_1  and  N_2
REMARK    2  A    between atoms: N_2  and  C_3
REMARK    3  A    between atoms: C_3  and  C_4
REMARK    4  A    between atoms: C_7  and  C_8
REMARK    5  A    between atoms: C_8  and  N_9
REMARK    6  A    between atoms: C_10  and  C_12
REMARK    7  A    between atoms: C_24  and  C_26
REMARK                            x       y       z     vdW  Elec       q    Type
REMARK                         _______ _______ _______ _____ _____    ______ ____
ROOT
ATOM      1  C   UNL     1      48.081   7.577  14.436  0.00  0.00    +0.000 A 
ATOM      2  C   UNL     1      47.932   6.269  13.955  0.00  0.00    +0.000 A 
ATOM      3  C   UNL     1      47.014   5.984  12.941  0.00  0.00    +0.000 A 
ATOM      4  C   UNL     1      46.232   7.003  12.382  0.00  0.00    +0.000 A 
ATOM      5  C   UNL     1      46.337   8.298  12.907  0.00  0.00    +0.000 A 
ATOM      6  C   UNL     1      47.260   8.587  13.915  0.00  0.00    +0.000 A 
ENDROOT
BRANCH   1   7
ATOM      7  C   UNL     1      49.096   7.881  15.508  0.00  0.00    +0.000 C 
BRANCH   7   9
ATOM      8  C   UNL     1      48.494   9.540  17.343  0.00  0.00    +0.000 C 
ATOM      9  N   UNL     1      48.624   8.167  16.866  0.00  0.00    +0.000 N 
ATOM     10  C   UNL     1      48.301   7.162  17.794  0.00  0.00    +0.000 C 
ATOM     11  O   UNL     1      47.845   7.455  18.902  0.00  0.00    +0.000 OA
BRANCH  10  12
ATOM     12  C   UNL     1      48.437   5.765  17.442  0.00  0.00    +0.000 A 
ATOM     13  C   UNL     1      49.490   4.880  17.309  0.00  0.00    +0.000 A 
ATOM     14  N   UNL     1      49.064   3.638  16.912  0.00  0.00    +0.000 NA
ATOM     15  C   UNL     1      47.758   3.727  16.862  0.00  0.00    +0.000 A 
ATOM     16  N   UNL     1      47.331   4.970  17.217  0.00  0.00    +0.000 N 
ATOM     17  H   UNL     1      46.372   5.284  17.288  0.00  0.00    +0.000 HD
ENDBRANCH  10  12
ENDBRANCH   7   9
ENDBRANCH   1   7
BRANCH   4  18
ATOM     18  C   UNL     1      45.299   6.719  11.232  0.00  0.00    +0.000 C 
BRANCH  18  19
ATOM     19  N   UNL     1      45.545   5.435  10.634  0.00  0.00    +0.000 N 
ATOM     20  C   UNL     1      44.523   4.665  10.138  0.00  0.00    +0.000 C 
ATOM     21  O   UNL     1      43.342   5.001  10.243  0.00  0.00    +0.000 OA
ATOM     22  H   UNL     1      46.512   5.136  10.536  0.00  0.00    +0.000 HD
BRANCH  20  23
ATOM     23  C   UNL     1      44.912   3.416   9.479  0.00  0.00    +0.000 A 
ATOM     24  C   UNL     1      44.355   2.179   9.793  0.00  0.00    +0.000 A 
ATOM     25  N   UNL     1      44.915   1.211   8.997  0.00  0.00    +0.000 N 
ATOM     26  C   UNL     1      45.835   1.791   8.177  0.00  0.00    +0.000 A 
ATOM     27  N   UNL     1      46.573   1.100   7.278  0.00  0.00    +0.000 NA
ATOM     28  C   UNL     1      47.396   1.854   6.616  0.00  0.00    +0.000 A 
ATOM     29  N   UNL     1      47.528   3.215   6.776  0.00  0.00    +0.000 N 
ATOM     30  C   UNL     1      46.776   3.948   7.669  0.00  0.00    +0.000 A 
ATOM     31  O   UNL     1      46.896   5.163   7.784  0.00  0.00    +0.000 OA
ATOM     32  C   UNL     1      45.858   3.144   8.444  0.00  0.00    +0.000 A 
ATOM     33  H   UNL     1      44.695   0.225   9.006  0.00  0.00    +0.000 HD
ATOM     34  H   UNL     1      48.192   3.740   6.227  0.00  0.00    +0.000 HD
ENDBRANCH  20  23
ENDBRANCH  18  19
ENDBRANCH   4  18
TORSDOF 6
ENDMDL
MODEL 2
REMARK VINA RESULT:    -7.713      3.394      4.230
REMARK INTER + INTRA:         -11.508
REMARK INTER:                 -10.505
REMARK INTRA:                  -1.003
REMARK UNBOUND:                -1.090
REMARK  Name = 
REMARK  7 active torsions:
REMARK  status: ('A' for Active; 'I' for Inactive)
REMARK    1  A    between atoms: C_1  and  N_2
REMARK    2  A    between atoms: N_2  and  C_3
REMARK    3  A    between atoms: C_3  and  C_4
REMARK    4  A    between atoms: C_7  and  C_8
REMARK    5  A    between atoms: C_8  and  N_9
REMARK    6  A    between atoms: C_10  and  C_12
REMARK    7  A    between atoms: C_24  and  C_26
REMARK                            x       y       z     vdW  Elec       q    Type
REMARK                         _______ _______ _______ _____ _____    ______ ____
ROOT
ATOM      1  C   UNL     1      50.189   6.541  16.361  0.00  0.00    +0.000 A 
ATOM      2  C   UNL     1      48.850   6.253  16.063  0.00  0.00    +0.000 A 
ATOM      3  C   UNL     1      48.276   6.697  14.869  0.00  0.00    +0.000 A 
ATOM      4  C   UNL     1      49.032   7.431  13.946  0.00  0.00    +0.000 A 
ATOM      5  C   UNL     1      50.351   7.772  14.275  0.00  0.00    +0.000 A 
ATOM      6  C   UNL     1      50.929   7.322  15.465  0.00  0.00    +0.000 A 
ENDROOT
BRANCH   1   7
ATOM      7  C   UNL     1      50.808   6.031  17.638  0.00  0.00    +0.000 C 
BRANCH   7   9
ATOM      8  C   UNL     1      49.592   6.654  19.786  0.00  0.00    +0.000 C 
ATOM      9  N   UNL     1      49.929   5.677  18.756  0.00  0.00    +0.000 N 
ATOM     10  C   UNL     1      49.387   4.392  18.929  0.00  0.00    +0.000 C 
ATOM     11  O   UNL     1      48.600   4.162  19.850  0.00  0.00    +0.000 OA
BRANCH  10  12
ATOM     12  C   UNL     1      49.693   3.333  17.992  0.00  0.00    +0.000 A 
ATOM     13  C   UNL     1      49.049   2.753  16.915  0.00  0.00    +0.000 A 
ATOM     14  N   UNL     1      49.786   1.732  16.371  0.00  0.00    +0.000 NA
ATOM     15  C   UNL     1      50.903   1.717  17.056  0.00  0.00    +0.000 A 
ATOM     16  N   UNL     1      50.914   2.689  18.009  0.00  0.00    +0.000 N 
ATOM     17  H   UNL     1      51.670   2.905  18.645  0.00  0.00    +0.000 HD
ENDBRANCH  10  12
ENDBRANCH   7   9
ENDBRANCH   1   7
BRANCH   4  18
ATOM     18  C   UNL     1      48.446   7.843  12.619  0.00  0.00    +0.000 C 
BRANCH  18  19
ATOM     19  N   UNL     1      47.307   7.045  12.255  0.00  0.00    +0.000 N 
ATOM     20  C   UNL     1      46.024   7.465  12.506  0.00  0.00    +0.000 C 
ATOM     21  O   UNL     1      45.788   8.509  13.117  0.00  0.00    +0.000 OA
ATOM     22  H   UNL     1      47.477   6.180  11.748  0.00  0.00    +0.000 HD
BRANCH  20  23
ATOM     23  C   UNL     1      44.950   6.601  12.011  0.00  0.00    +0.000 A 
ATOM     24  C   UNL     1      43.862   7.076  11.281  0.00  0.00    +0.000 A 
ATOM     25  N   UNL     1      43.042   6.025  10.951  0.00  0.00    +0.000 N 
ATOM     26  C   UNL     1      43.568   4.877  11.461  0.00  0.00    +0.000 A 
ATOM     27  N   UNL     1      42.986   3.664  11.319  0.00  0.00    +0.000 NA
ATOM     28  C   UNL     1      43.654   2.714  11.898  0.00  0.00    +0.000 A 
ATOM     29  N   UNL     1      44.836   2.880  12.585  0.00  0.00    +0.000 N 
ATOM     30  C   UNL     1      45.461   4.100  12.729  0.00  0.00    +0.000 A 
ATOM     31  O   UNL     1      46.523   4.225  13.329  0.00  0.00    +0.000 OA
ATOM     32  C   UNL     1      44.741   5.192  12.115  0.00  0.00    +0.000 A 
ATOM     33  H   UNL     1      42.184   6.078  10.422  0.00  0.00    +0.000 HD
ATOM     34  H   UNL     1      45.302   2.095  13.014  0.00  0.00    +0.000 HD
ENDBRANCH  20  23
ENDBRANCH  18  19
ENDBRANCH   4  18
TORSDOF 6
ENDMDL
MODEL 3
REMARK VINA RESULT:    -7.546      2.761      9.143
REMARK INTER + INTRA:         -11.282
REMARK INTER:                 -10.266
REMARK INTRA:                  -1.016
REMARK UNBOUND:                -1.090
REMARK  Name = 
REMARK  7 active torsions:
REMARK  status: ('A' for Active; 'I' for Inactive)
REMARK    1  A    between atoms: C_1  and  N_2
REMARK    2  A    between atoms: N_2  and  C_3
REMARK    3  A    between atoms: C_3  and  C_4
REMARK    4  A    between atoms: C_7  and  C_8
REMARK    5  A    between atoms: C_8  and  N_9
REMARK    6  A    between atoms: C_10  and  C_12
REMARK    7  A    between atoms: C_24  and  C_26
REMARK                            x       y       z     vdW  Elec       q    Type
REMARK                         _______ _______ _______ _____ _____    ______ ____
ROOT
ATOM      1  C   UNL     1      46.529   4.718  13.478  0.00  0.00    +0.000 A 
ATOM      2  C   UNL     1      47.134   5.915  13.071  0.00  0.00    +0.000 A 
ATOM      3  C   UNL     1      48.002   6.601  13.925  0.00  0.00    +0.000 A 
ATOM      4  C   UNL     1      48.289   6.098  15.200  0.00  0.00    +0.000 A 
ATOM      5  C   UNL     1      47.635   4.935  15.629  0.00  0.00    +0.000 A 
ATOM      6  C   UNL     1      46.773   4.244  14.774  0.00  0.00    +0.000 A 
ENDROOT
BRANCH   1   7
ATOM      7  C   UNL     1      45.619   3.970  12.538  0.00  0.00    +0.000 C 
BRANCH   7   9
ATOM      8  C   UNL     1      43.477   5.173  13.207  0.00  0.00    +0.000 C 
ATOM      9  N   UNL     1      44.324   4.563  12.188  0.00  0.00    +0.000 N 
ATOM     10  C   UNL     1      43.806   4.557  10.882  0.00  0.00    +0.000 C 
ATOM     11  O   UNL     1      42.743   5.128  10.627  0.00  0.00    +0.000 OA
BRANCH  10  12
ATOM     12  C   UNL     1      44.542   3.938   9.801  0.00  0.00    +0.000 A 
ATOM     13  C   UNL     1      44.740   2.645   9.357  0.00  0.00    +0.000 A 
ATOM     14  N   UNL     1      45.578   2.601   8.271  0.00  0.00    +0.000 NA
ATOM     15  C   UNL     1      45.847   3.855   8.000  0.00  0.00    +0.000 A 
ATOM     16  N   UNL     1      45.212   4.696   8.862  0.00  0.00    +0.000 N 
ATOM     17  H   UNL     1      45.232   5.707   8.845  0.00  0.00    +0.000 HD
ENDBRANCH  10  12
ENDBRANCH   7   9
ENDBRANCH   1   7
BRANCH   4  18
ATOM     18  C   UNL     1      49.287   6.786  16.097  0.00  0.00    +0.000 C 
BRANCH  18  19
ATOM     19  N   UNL     1      50.308   5.889  16.566  0.00  0.00    +0.000 N 
ATOM     20  C   UNL     1      50.460   5.605  17.900  0.00  0.00    +0.000 C 
ATOM     21  O   UNL     1      49.778   6.155  18.765  0.00  0.00    +0.000 OA
ATOM     22  H   UNL     1      50.883   5.421  15.869  0.00  0.00    +0.000 HD
BRANCH  20  23
ATOM     23  C   UNL     1      51.481   4.611  18.239  0.00  0.00    +0.000 A 
ATOM     24  C   UNL     1      52.611   4.905  18.999  0.00  0.00    +0.000 A 
ATOM     25  N   UNL     1      53.363   3.767  19.155  0.00  0.00    +0.000 N 
ATOM     26  C   UNL     1      52.752   2.740  18.502  0.00  0.00    +0.000 A 
ATOM     27  N   UNL     1      53.253   1.484  18.456  0.00  0.00    +0.000 NA
ATOM     28  C   UNL     1      52.511   0.671  17.766  0.00  0.00    +0.000 A 
ATOM     29  N   UNL     1      51.332   1.011  17.142  0.00  0.00    +0.000 N 
ATOM     30  C   UNL     1      50.789   2.277  17.188  0.00  0.00    +0.000 A 
ATOM     31  O   UNL     1      49.728   2.555  16.641  0.00  0.00    +0.000 OA
ATOM     32  C   UNL     1      51.592   3.221  17.931  0.00  0.00    +0.000 A 
ATOM     33  H   UNL     1      54.232   3.687  19.664  0.00  0.00    +0.000 HD
ATOM     34  H   UNL     1      50.806   0.327  16.619  0.00  0.00    +0.000 HD
ENDBRANCH  20  23
ENDBRANCH  18  19
ENDBRANCH   4  18
TORSDOF 6
ENDMDL
MODEL 4
REMARK VINA RESULT:    -7.459      2.071      9.019
REMARK INTER + INTRA:         -11.166
REMARK INTER:                 -10.552
REMARK INTRA:                  -0.614
REMARK UNBOUND:                -1.090
REMARK  Name = 
REMARK  7 active torsions:
REMARK  status: ('A' for Active; 'I' for Inactive)
REMARK    1  A    between atoms: C_1  and  N_2
REMARK    2  A    between atoms: N_2  and  C_3
REMARK    3  A    between atoms: C_3  and  C_4
REMARK    4  A    between atoms: C_7  and  C_8
REMARK    5  A    between atoms: C_8  and  N_9
REMARK    6  A    between atoms: C_10  and  C_12
REMARK    7  A    between atoms: C_24  and  C_26
REMARK                            x       y       z     vdW  Elec       q    Type
REMARK                         _______ _______ _______ _____ _____    ______ ____
ROOT
ATOM      1  C   UNL     1      45.403   6.578  11.798  0.00  0.00    +0.000 A 
ATOM      2  C   UNL     1      46.568   5.880  12.146  0.00  0.00    +0.000 A 
ATOM      3  C   UNL     1      47.574   6.500  12.890  0.00  0.00    +0.000 A 
ATOM      4  C   UNL     1      47.433   7.829  13.309  0.00  0.00    +0.000 A 
ATOM      5  C   UNL     1      46.297   8.545  12.907  0.00  0.00    +0.000 A 
ATOM      6  C   UNL     1      45.286   7.924  12.170  0.00  0.00    +0.000 A 
ENDROOT
BRANCH   1   7
ATOM      7  C   UNL     1      44.309   5.891  11.021  0.00  0.00    +0.000 C 
BRANCH   7   9
ATOM      8  C   UNL     1      42.945   4.837  12.894  0.00  0.00    +0.000 C 
ATOM      9  N   UNL     1      43.643   4.730  11.618  0.00  0.00    +0.000 N 
ATOM     10  C   UNL     1      43.656   3.453  11.030  0.00  0.00    +0.000 C 
ATOM     11  O   UNL     1      43.024   2.523  11.537  0.00  0.00    +0.000 OA
BRANCH  10  12
ATOM     12  C   UNL     1      44.357   3.223   9.786  0.00  0.00    +0.000 A 
ATOM     13  C   UNL     1      44.489   3.901   8.589  0.00  0.00    +0.000 A 
ATOM     14  N   UNL     1      45.269   3.211   7.695  0.00  0.00    +0.000 NA
ATOM     15  C   UNL     1      45.673   2.149   8.348  0.00  0.00    +0.000 A 
ATOM     16  N   UNL     1      45.190   2.135   9.621  0.00  0.00    +0.000 N 
ATOM     17  H   UNL     1      45.380   1.442  10.334  0.00  0.00    +0.000 HD
ENDBRANCH  10  12
ENDBRANCH   7   9
ENDBRANCH   1   7
BRANCH   4  18
ATOM     18  C   UNL     1      48.476   8.481  14.182  0.00  0.00    +0.000 C 
BRANCH  18  19
ATOM     19  N   UNL     1      48.356   8.088  15.560  0.00  0.00    +0.000 N 
ATOM     20  C   UNL     1      49.201   7.163  16.121  0.00  0.00    +0.000 C 
ATOM     21  O   UNL     1      50.056   6.574  15.458  0.00  0.00    +0.000 OA
ATOM     22  H   UNL     1      47.657   8.561  16.128  0.00  0.00    +0.000 HD
BRANCH  20  23
ATOM     23  C   UNL     1      49.029   6.912  17.554  0.00  0.00    +0.000 A 
ATOM     24  C   UNL     1      48.925   7.928  18.501  0.00  0.00    +0.000 A 
ATOM     25  N   UNL     1      48.758   7.375  19.746  0.00  0.00    +0.000 N 
ATOM     26  C   UNL     1      48.763   6.018  19.631  0.00  0.00    +0.000 A 
ATOM     27  N   UNL     1      48.632   5.180  20.685  0.00  0.00    +0.000 NA
ATOM     28  C   UNL     1      48.679   3.929  20.344  0.00  0.00    +0.000 A 
ATOM     29  N   UNL     1      48.836   3.463  19.057  0.00  0.00    +0.000 N 
ATOM     30  C   UNL     1      48.953   4.293  17.962  0.00  0.00    +0.000 A 
ATOM     31  O   UNL     1      49.073   3.859  16.822  0.00  0.00    +0.000 OA
ATOM     32  C   UNL     1      48.924   5.698  18.299  0.00  0.00    +0.000 A 
ATOM     33  H   UNL     1      48.652   7.876  20.616  0.00  0.00    +0.000 HD
ATOM     34  H   UNL     1      48.867   2.474  18.863  0.00  0.00    +0.000 HD
ENDBRANCH  20  23
ENDBRANCH  18  19
ENDBRANCH   4  18
TORSDOF 6
ENDMDL
MODEL 5
REMARK VINA RESULT:    -7.398      4.137      6.746
REMARK INTER + INTRA:         -11.083
REMARK INTER:                 -10.072
REMARK INTRA:                  -1.011
REMARK UNBOUND:                -1.090
REMARK  Name = 
REMARK  7 active torsions:
REMARK  status: ('A' for Active; 'I' for Inactive)
REMARK    1  A    between atoms: C_1  and  N_2
REMARK    2  A    between atoms: N_2  and  C_3
REMARK    3  A    between atoms: C_3  and  C_4
REMARK    4  A    between atoms: C_7  and  C_8
REMARK    5  A    between atoms: C_8  and  N_9
REMARK    6  A    between atoms: C_10  and  C_12
REMARK    7  A    between atoms: C_24  and  C_26
REMARK                            x       y       z     vdW  Elec       q    Type
REMARK                         _______ _______ _______ _____ _____    ______ ____
ROOT
ATOM      1  C   UNL     1      51.424   3.715  17.716  0.00  0.00    +0.000 A 
ATOM      2  C   UNL     1      50.858   2.470  17.408  0.00  0.00    +0.000 A 
ATOM      3  C   UNL     1      49.489   2.355  17.153  0.00  0.00    +0.000 A 
ATOM      4  C   UNL     1      48.660   3.483  17.192  0.00  0.00    +0.000 A 
ATOM      5  C   UNL     1      49.216   4.715  17.562  0.00  0.00    +0.000 A 
ATOM      6  C   UNL     1      50.586   4.834  17.810  0.00  0.00    +0.000 A 
ENDROOT
BRANCH   1   7
ATOM      7  C   UNL     1      52.907   3.835  17.959  0.00  0.00    +0.000 C 
BRANCH   7   9
ATOM      8  C   UNL     1      53.258   3.984  20.476  0.00  0.00    +0.000 C 
ATOM      9  N   UNL     1      53.463   3.299  19.205  0.00  0.00    +0.000 N 
ATOM     10  C   UNL     1      54.242   2.129  19.256  0.00  0.00    +0.000 C 
ATOM     11  O   UNL     1      54.631   1.683  20.337  0.00  0.00    +0.000 OA
BRANCH  10  12
ATOM     12  C   UNL     1      54.545   1.395  18.047  0.00  0.00    +0.000 A 
ATOM     13  C   UNL     1      55.539   1.442  17.088  0.00  0.00    +0.000 A 
ATOM     14  N   UNL     1      55.338   0.513  16.099  0.00  0.00    +0.000 NA
ATOM     15  C   UNL     1      54.270  -0.151  16.470  0.00  0.00    +0.000 A 
ATOM     16  N   UNL     1      53.786   0.310  17.656  0.00  0.00    +0.000 N 
ATOM     17  H   UNL     1      52.993  -0.052  18.168  0.00  0.00    +0.000 HD
ENDBRANCH  10  12
ENDBRANCH   7   9
ENDBRANCH   1   7
BRANCH   4  18
ATOM     18  C   UNL     1      47.198   3.383  16.838  0.00  0.00    +0.000 C 
BRANCH  18  19
ATOM     19  N   UNL     1      46.800   4.378  15.879  0.00  0.00    +0.000 N 
ATOM     20  C   UNL     1      46.802   4.120  14.531  0.00  0.00    +0.000 C 
ATOM     21  O   UNL     1      47.209   3.053  14.072  0.00  0.00    +0.000 OA
ATOM     22  H   UNL     1      46.458   5.267  16.235  0.00  0.00    +0.000 HD
BRANCH  20  23
ATOM     23  C   UNL     1      46.294   5.188  13.666  0.00  0.00    +0.000 A 
ATOM     24  C   UNL     1      47.005   6.354  13.392  0.00  0.00    +0.000 A 
ATOM     25  N   UNL     1      46.273   7.145  12.543  0.00  0.00    +0.000 N 
ATOM     26  C   UNL     1      45.092   6.525  12.268  0.00  0.00    +0.000 A 
ATOM     27  N   UNL     1      44.139   7.056  11.467  0.00  0.00    +0.000 NA
ATOM     28  C   UNL     1      43.092   6.297  11.358  0.00  0.00    +0.000 A 
ATOM     29  N   UNL     1      42.933   5.072  11.968  0.00  0.00    +0.000 N 
ATOM     30  C   UNL     1      43.894   4.498  12.772  0.00  0.00    +0.000 A 
ATOM     31  O   UNL     1      43.741   3.398  13.291  0.00  0.00    +0.000 OA
ATOM     32  C   UNL     1      45.072   5.319  12.937  0.00  0.00    +0.000 A 
ATOM     33  H   UNL     1      46.546   8.046  12.176  0.00  0.00    +0.000 HD
ATOM     34  H   UNL     1      42.089   4.535  11.841  0.00  0.00    +0.000 HD
ENDBRANCH  20  23
ENDBRANCH  18  19
ENDBRANCH   4  18
TORSDOF 6
ENDMDL
MODEL 6
REMARK VINA RESULT:    -7.202      3.061      8.765
REMARK INTER + INTRA:         -10.818
REMARK INTER:                  -9.754
REMARK INTRA:                  -1.064
REMARK UNBOUND:                -1.090
REMARK  Name = 
REMARK  7 active torsions:
REMARK  status: ('A' for Active; 'I' for Inactive)
REMARK    1  A    between atoms: C_1  and  N_2
REMARK    2  A    between atoms: N_2  and  C_3
REMARK    3  A    between atoms: C_3  and  C_4
REMARK    4  A    between atoms: C_7  and  C_8
REMARK    5  A    between atoms: C_8  and  N_9
REMARK    6  A    between atoms: C_10  and  C_12
REMARK    7  A    between atoms: C_24  and  C_26
REMARK                            x       y       z     vdW  Elec       q    Type
REMARK                         _______ _______ _______ _____ _____    ______ ____
ROOT
ATOM      1  C   UNL     1      47.413   5.855  13.546  0.00  0.00    +0.000 A 
ATOM      2  C   UNL     1      46.838   4.577  13.575  0.00  0.00    +0.000 A 
ATOM      3  C   UNL     1      46.912   3.789  14.726  0.00  0.00    +0.000 A 
ATOM      4  C   UNL     1      47.555   4.267  15.875  0.00  0.00    +0.000 A 
ATOM      5  C   UNL     1      48.184   5.519  15.824  0.00  0.00    +0.000 A 
ATOM      6  C   UNL     1      48.104   6.311  14.676  0.00  0.00    +0.000 A 
ENDROOT
BRANCH   1   7
ATOM      7  C   UNL     1      47.302   6.710  12.309  0.00  0.00    +0.000 C 
BRANCH   7   9
ATOM      8  C   UNL     1      46.127   8.910  12.818  0.00  0.00    +0.000 C 
ATOM      9  N   UNL     1      46.148   7.603  12.170  0.00  0.00    +0.000 N 
ATOM     10  C   UNL     1      44.994   7.259  11.445  0.00  0.00    +0.000 C 
ATOM     11  O   UNL     1      44.078   8.072  11.302  0.00  0.00    +0.000 OA
BRANCH  10  12
ATOM     12  C   UNL     1      44.889   5.968  10.800  0.00  0.00    +0.000 A 
ATOM     13  C   UNL     1      44.250   4.775  11.079  0.00  0.00    +0.000 A 
ATOM     14  N   UNL     1      44.508   3.823  10.125  0.00  0.00    +0.000 NA
ATOM     15  C   UNL     1      45.243   4.433   9.228  0.00  0.00    +0.000 A 
ATOM     16  N   UNL     1      45.460   5.734   9.565  0.00  0.00    +0.000 N 
ATOM     17  H   UNL     1      45.970   6.422   9.026  0.00  0.00    +0.000 HD
ENDBRANCH  10  12
ENDBRANCH   7   9
ENDBRANCH   1   7
BRANCH   4  18
ATOM     18  C   UNL     1      47.568   3.459  17.148  0.00  0.00    +0.000 C 
BRANCH  18  19
ATOM     19  N   UNL     1      48.903   3.184  17.606  0.00  0.00    +0.000 N 
ATOM     20  C   UNL     1      49.726   2.310  16.941  0.00  0.00    +0.000 C 
ATOM     21  O   UNL     1      49.342   1.667  15.964  0.00  0.00    +0.000 OA
ATOM     22  H   UNL     1      49.243   3.704  18.411  0.00  0.00    +0.000 HD
BRANCH  20  23
ATOM     23  C   UNL     1      51.090   2.181  17.460  0.00  0.00    +0.000 A 
ATOM     24  C   UNL     1      51.692   0.955  17.734  0.00  0.00    +0.000 A 
ATOM     25  N   UNL     1      52.969   1.167  18.191  0.00  0.00    +0.000 N 
ATOM     26  C   UNL     1      53.207   2.507  18.233  0.00  0.00    +0.000 A 
ATOM     27  N   UNL     1      54.376   3.043  18.654  0.00  0.00    +0.000 NA
ATOM     28  C   UNL     1      54.376   4.341  18.623  0.00  0.00    +0.000 A 
ATOM     29  N   UNL     1      53.322   5.123  18.204  0.00  0.00    +0.000 N 
ATOM     30  C   UNL     1      52.128   4.604  17.752  0.00  0.00    +0.000 A 
ATOM     31  O   UNL     1      51.209   5.318  17.367  0.00  0.00    +0.000 OA
ATOM     32  C   UNL     1      52.077   3.160  17.788  0.00  0.00    +0.000 A 
ATOM     33  H   UNL     1      53.634   0.457  18.462  0.00  0.00    +0.000 HD
ATOM     34  H   UNL     1      53.390   6.129  18.209  0.00  0.00    +0.000 HD
ENDBRANCH  20  23
ENDBRANCH  18  19
ENDBRANCH   4  18
TORSDOF 6
ENDMDL
MODEL 7
REMARK VINA RESULT:    -6.717      4.407      5.601
REMARK INTER + INTRA:         -10.162
REMARK INTER:                  -9.180
REMARK INTRA:                  -0.982
REMARK UNBOUND:                -1.090
REMARK  Name = 
REMARK  7 active torsions:
REMARK  status: ('A' for Active; 'I' for Inactive)
REMARK    1  A    between atoms: C_1  and  N_2
REMARK    2  A    between atoms: N_2  and  C_3
REMARK    3  A    between atoms: C_3  and  C_4
REMARK    4  A    between atoms: C_7  and  C_8
REMARK    5  A    between atoms: C_8  and  N_9
REMARK    6  A    between atoms: C_10  and  C_12
REMARK    7  A    between atoms: C_24  and  C_26
REMARK                            x       y       z     vdW  Elec       q    Type
REMARK                         _______ _______ _______ _____ _____    ______ ____
ROOT
ATOM      1  C   UNL     1      50.074   8.849  11.487  0.00  0.00    +0.000 A 
ATOM      2  C   UNL     1      49.195   9.941  11.480  0.00  0.00    +0.000 A 
ATOM      3  C   UNL     1      47.885   9.802  11.945  0.00  0.00    +0.000 A 
ATOM      4  C   UNL     1      47.430   8.570  12.433  0.00  0.00    +0.000 A 
ATOM      5  C   UNL     1      48.290   7.465  12.380  0.00  0.00    +0.000 A 
ATOM      6  C   UNL     1      49.603   7.604  11.923  0.00  0.00    +0.000 A 
ENDROOT
BRANCH   1   7
ATOM      7  C   UNL     1      51.495   9.017  11.012  0.00  0.00    +0.000 C 
BRANCH   7   9
ATOM      8  C   UNL     1      52.599   9.466  13.262  0.00  0.00    +0.000 C 
ATOM      9  N   UNL     1      52.588   8.799  11.965  0.00  0.00    +0.000 N 
ATOM     10  C   UNL     1      53.693   7.975  11.690  0.00  0.00    +0.000 C 
ATOM     11  O   UNL     1      54.553   7.771  12.550  0.00  0.00    +0.000 OA
BRANCH  10  12
ATOM     12  C   UNL     1      53.807   7.299  10.415  0.00  0.00    +0.000 A 
ATOM     13  C   UNL     1      54.262   7.641   9.156  0.00  0.00    +0.000 A 
ATOM     14  N   UNL     1      54.118   6.609   8.264  0.00  0.00    +0.000 NA
ATOM     15  C   UNL     1      53.641   5.614   8.972  0.00  0.00    +0.000 A 
ATOM     16  N   UNL     1      53.481   5.965  10.278  0.00  0.00    +0.000 N 
ATOM     17  H   UNL     1      53.159   5.370  11.029  0.00  0.00    +0.000 HD
ENDBRANCH  10  12
ENDBRANCH   7   9
ENDBRANCH   1   7
BRANCH   4  18
ATOM     18  C   UNL     1      46.045   8.431  13.012  0.00  0.00    +0.000 C 
BRANCH  18  19
ATOM     19  N   UNL     1      45.480   7.131  12.769  0.00  0.00    +0.000 N 
ATOM     20  C   UNL     1      44.600   6.910  11.739  0.00  0.00    +0.000 C 
ATOM     21  O   UNL     1      44.198   7.824  11.017  0.00  0.00    +0.000 OA
ATOM     22  H   UNL     1      45.798   6.361  13.352  0.00  0.00    +0.000 HD
BRANCH  20  23
ATOM     23  C   UNL     1      44.163   5.526  11.546  0.00  0.00    +0.000 A 
ATOM     24  C   UNL     1      43.265   4.881  12.394  0.00  0.00    +0.000 A 
ATOM     25  N   UNL     1      43.046   3.605  11.940  0.00  0.00    +0.000 N 
ATOM     26  C   UNL     1      43.792   3.399  10.820  0.00  0.00    +0.000 A 
ATOM     27  N   UNL     1      43.806   2.230  10.138  0.00  0.00    +0.000 NA
ATOM     28  C   UNL     1      44.600   2.256   9.111  0.00  0.00    +0.000 A 
ATOM     29  N   UNL     1      45.354   3.340   8.719  0.00  0.00    +0.000 N 
ATOM     30  C   UNL     1      45.344   4.548   9.382  0.00  0.00    +0.000 A 
ATOM     31  O   UNL     1      46.009   5.506   9.006  0.00  0.00    +0.000 OA
ATOM     32  C   UNL     1      44.487   4.559  10.546  0.00  0.00    +0.000 A 
ATOM     33  H   UNL     1      42.438   2.915  12.359  0.00  0.00    +0.000 HD
ATOM     34  H   UNL     1      45.953   3.289   7.909  0.00  0.00    +0.000 HD
ENDBRANCH  20  23
ENDBRANCH  18  19
ENDBRANCH   4  18
TORSDOF 6
ENDMDL
MODEL 8
REMARK VINA RESULT:    -6.504      2.466      3.694
REMARK INTER + INTRA:          -9.876
REMARK INTER:                  -9.011
REMARK INTRA:                  -0.865
REMARK UNBOUND:                -1.090
REMARK  Name = 
REMARK  7 active torsions:
REMARK  status: ('A' for Active; 'I' for Inactive)
REMARK    1  A    between atoms: C_1  and  N_2
REMARK    2  A    between atoms: N_2  and  C_3
REMARK    3  A    between atoms: C_3  and  C_4
REMARK    4  A    between atoms: C_7  and  C_8
REMARK    5  A    between atoms: C_8  and  N_9
REMARK    6  A    between atoms: C_10  and  C_12
REMARK    7  A    between atoms: C_24  and  C_26
REMARK                            x       y       z     vdW  Elec       q    Type
REMARK                         _______ _______ _______ _____ _____    ______ ____
ROOT
ATOM      1  C   UNL     1      47.708   7.181  13.904  0.00  0.00    +0.000 A 
ATOM      2  C   UNL     1      47.581   5.796  14.076  0.00  0.00    +0.000 A 
ATOM      3  C   UNL     1      46.476   5.113  13.561  0.00  0.00    +0.000 A 
ATOM      4  C   UNL     1      45.480   5.801  12.857  0.00  0.00    +0.000 A 
ATOM      5  C   UNL     1      45.577   7.194  12.740  0.00  0.00    +0.000 A 
ATOM      6  C   UNL     1      46.685   7.877  13.247  0.00  0.00    +0.000 A 
ENDROOT
BRANCH   1   7
ATOM      7  C   UNL     1      48.919   7.904  14.436  0.00  0.00    +0.000 C 
BRANCH   7   9
ATOM      8  C   UNL     1      48.186   9.370  16.384  0.00  0.00    +0.000 C 
ATOM      9  N   UNL     1      48.741   9.226  15.043  0.00  0.00    +0.000 N 
ATOM     10  C   UNL     1      49.057  10.424  14.377  0.00  0.00    +0.000 C 
ATOM     11  O   UNL     1      48.952  11.508  14.955  0.00  0.00    +0.000 OA
BRANCH  10  12
ATOM     12  C   UNL     1      49.572  10.400  13.026  0.00  0.00    +0.000 A 
ATOM     13  C   UNL     1      50.722   9.934  12.417  0.00  0.00    +0.000 A 
ATOM     14  N   UNL     1      50.729  10.198  11.070  0.00  0.00    +0.000 NA
ATOM     15  C   UNL     1      49.570  10.762  10.830  0.00  0.00    +0.000 A 
ATOM     16  N   UNL     1      48.822  10.863  11.963  0.00  0.00    +0.000 N 
ATOM     17  H   UNL     1      47.883  11.232  12.038  0.00  0.00    +0.000 HD
ENDBRANCH  10  12
ENDBRANCH   7   9
ENDBRANCH   1   7
BRANCH   4  18
ATOM     18  C   UNL     1      44.326   5.061  12.226  0.00  0.00    +0.000 C 
BRANCH  18  19
ATOM     19  N   UNL     1      44.766   3.995  11.368  0.00  0.00    +0.000 N 
ATOM     20  C   UNL     1      44.454   3.972  10.032  0.00  0.00    +0.000 C 
ATOM     21  O   UNL     1      43.727   4.822   9.517  0.00  0.00    +0.000 OA
ATOM     22  H   UNL     1      45.369   3.282  11.771  0.00  0.00    +0.000 HD
BRANCH  20  23
ATOM     23  C   UNL     1      45.033   2.877   9.250  0.00  0.00    +0.000 A 
ATOM     24  C   UNL     1      44.651   1.545   9.399  0.00  0.00    +0.000 A 
ATOM     25  N   UNL     1      45.361   0.767   8.519  0.00  0.00    +0.000 N 
ATOM     26  C   UNL     1      46.207   1.562   7.807  0.00  0.00    +0.000 A 
ATOM     27  N   UNL     1      47.055   1.092   6.864  0.00  0.00    +0.000 NA
ATOM     28  C   UNL     1      47.777   2.026   6.325  0.00  0.00    +0.000 A 
ATOM     29  N   UNL     1      47.709   3.364   6.644  0.00  0.00    +0.000 N 
ATOM     30  C   UNL     1      46.841   3.874   7.586  0.00  0.00    +0.000 A 
ATOM     31  O   UNL     1      46.783   5.071   7.842  0.00  0.00    +0.000 OA
ATOM     32  C   UNL     1      46.030   2.864   8.227  0.00  0.00    +0.000 A 
ATOM     33  H   UNL     1      45.285  -0.235   8.407  0.00  0.00    +0.000 HD
ATOM     34  H   UNL     1      48.303   4.038   6.185  0.00  0.00    +0.000 HD
ENDBRANCH  20  23
ENDBRANCH  18  19
ENDBRANCH   4  18
TORSDOF 6
ENDMDL
MODEL 9
REMARK VINA RESULT:    -6.480      2.254      9.546
REMARK INTER + INTRA:          -9.842
REMARK INTER:                  -9.190
REMARK INTRA:                  -0.652
REMARK UNBOUND:                -1.090
REMARK  Name = 
REMARK  7 active torsions:
REMARK  status: ('A' for Active; 'I' for Inactive)
REMARK    1  A    between atoms: C_1  and  N_2
REMARK    2  A    between atoms: N_2  and  C_3
REMARK    3  A    between atoms: C_3  and  C_4
REMARK    4  A    between atoms: C_7  and  C_8
REMARK    5  A    between atoms: C_8  and  N_9
REMARK    6  A    between atoms: C_10  and  C_12
REMARK    7  A    between atoms: C_24  and  C_26
REMARK                            x       y       z     vdW  Elec       q    Type
REMARK                         _______ _______ _______ _____ _____    ______ ____
ROOT
ATOM      1  C   UNL     1      45.410   6.660  11.742  0.00  0.00    +0.000 A 
ATOM      2  C   UNL     1      45.180   7.790  12.540  0.00  0.00    +0.000 A 
ATOM      3  C   UNL     1      46.229   8.397  13.234  0.00  0.00    +0.000 A 
ATOM      4  C   UNL     1      47.532   7.891  13.139  0.00  0.00    +0.000 A 
ATOM      5  C   UNL     1      47.749   6.725  12.392  0.00  0.00    +0.000 A 
ATOM      6  C   UNL     1      46.702   6.121  11.691  0.00  0.00    +0.000 A 
ENDROOT
BRANCH   1   7
ATOM      7  C   UNL     1      44.277   6.031  10.972  0.00  0.00    +0.000 C 
BRANCH   7   9
ATOM      8  C   UNL     1      42.815   5.014  12.792  0.00  0.00    +0.000 C 
ATOM      9  N   UNL     1      43.580   4.881  11.556  0.00  0.00    +0.000 N 
ATOM     10  C   UNL     1      43.624   3.593  10.997  0.00  0.00    +0.000 C 
ATOM     11  O   UNL     1      42.966   2.673  11.490  0.00  0.00    +0.000 OA
BRANCH  10  12
ATOM     12  C   UNL     1      44.390   3.337   9.797  0.00  0.00    +0.000 A 
ATOM     13  C   UNL     1      44.654   4.029   8.630  0.00  0.00    +0.000 A 
ATOM     14  N   UNL     1      45.440   3.301   7.773  0.00  0.00    +0.000 NA
ATOM     15  C   UNL     1      45.719   2.198   8.423  0.00  0.00    +0.000 A 
ATOM     16  N   UNL     1      45.150   2.193   9.660  0.00  0.00    +0.000 N 
ATOM     17  H   UNL     1      45.238   1.473  10.364  0.00  0.00    +0.000 HD
ENDBRANCH  10  12
ENDBRANCH   7   9
ENDBRANCH   1   7
BRANCH   4  18
ATOM     18  C   UNL     1      48.684   8.587  13.818  0.00  0.00    +0.000 C 
BRANCH  18  19
ATOM     19  N   UNL     1      48.582   8.540  15.251  0.00  0.00    +0.000 N 
ATOM     20  C   UNL     1      49.018   7.453  15.968  0.00  0.00    +0.000 C 
ATOM     21  O   UNL     1      49.452   6.440  15.418  0.00  0.00    +0.000 OA
ATOM     22  H   UNL     1      48.227   9.365  15.728  0.00  0.00    +0.000 HD
BRANCH  20  23
ATOM     23  C   UNL     1      48.936   7.563  17.426  0.00  0.00    +0.000 A 
ATOM     24  C   UNL     1      48.441   6.549  18.243  0.00  0.00    +0.000 A 
ATOM     25  N   UNL     1      48.509   6.948  19.555  0.00  0.00    +0.000 N 
ATOM     26  C   UNL     1      49.027   8.206  19.609  0.00  0.00    +0.000 A 
ATOM     27  N   UNL     1      49.209   8.888  20.764  0.00  0.00    +0.000 NA
ATOM     28  C   UNL     1      49.702  10.074  20.576  0.00  0.00    +0.000 A 
ATOM     29  N   UNL     1      50.026  10.613  19.350  0.00  0.00    +0.000 N 
ATOM     30  C   UNL     1      49.869   9.935  18.160  0.00  0.00    +0.000 A 
ATOM     31  O   UNL     1      50.180  10.426  17.082  0.00  0.00    +0.000 OA
ATOM     32  C   UNL     1      49.304   8.614  18.321  0.00  0.00    +0.000 A 
ATOM     33  H   UNL     1      48.222   6.410  20.361  0.00  0.00    +0.000 HD
ATOM     34  H   UNL     1      50.404  11.545  19.277  0.00  0.00    +0.000 HD
ENDBRANCH  20  23
ENDBRANCH  18  19
ENDBRANCH   4  18
TORSDOF 6
ENDMDL
