MODEL 1
REMARK VINA RESULT:    -8.153      0.000      0.000
REMARK INTER + INTRA:         -12.021
REMARK INTER:                 -11.251
REMARK INTRA:                  -0.770
REMARK UNBOUND:                -0.770
REMARK  Name = 
REMARK  7 active torsions:
REMARK  status: ('A' for Active; 'I' for Inactive)
REMARK    1  A    between atoms: C_2  and  C_3
REMARK    2  A    between atoms: N_7  and  C_8
REMARK    3  A    between atoms: C_8  and  C_9
REMARK    4  A    between atoms: C_9  and  C_10
REMARK    5  A    between atoms: C_14  and  O_15
REMARK    6  A    between atoms: O_15  and  C_16
REMARK    7  A    between atoms: C_18  and  O_19
REMARK                            x       y       z     vdW  Elec       q    Type
REMARK                         _______ _______ _______ _____ _____    ______ ____
ROOT
ATOM      1  C   UNL     1      44.943   5.422  12.612  0.00  0.00    +0.000 A 
ATOM      2  C   UNL     1      45.819   6.401  12.155  0.00  0.00    +0.000 A 
ATOM      3  N   UNL     1      47.101   6.518  12.568  0.00  0.00    +0.000 NA
ATOM      4  C   UNL     1      47.530   5.616  13.482  0.00  0.00    +0.000 A 
ATOM      5  C   UNL     1      46.743   4.597  13.997  0.00  0.00    +0.000 A 
ATOM      6  C   UNL     1      45.427   4.510  13.557  0.00  0.00    +0.000 A 
ENDROOT
BRANCH   1   7
ATOM      7  C   UNL     1      43.498   5.390  12.182  0.00  0.00    +0.000 C 
BRANCH   7   8
ATOM      8  C   UNL     1      43.399   5.033  10.699  0.00  0.00    +0.000 C 
BRANCH   8  13
ATOM      9  C   UNL     1      46.577   2.496   7.601  0.00  0.00    +0.000 A 
ATOM     10  C   UNL     1      46.295   3.850   7.726  0.00  0.00    +0.000 A 
ATOM     11  C   UNL     1      45.359   4.263   8.674  0.00  0.00    +0.000 A 
ATOM     12  C   UNL     1      44.715   3.324   9.478  0.00  0.00    +0.000 A 
ATOM     13  N   UNL     1      43.788   3.665  10.431  0.00  0.00    +0.000 N 
ATOM     14  N   UNL     1      44.980   2.008   9.360  0.00  0.00    +0.000 NA
ATOM     15  C   UNL     1      45.900   1.622   8.435  0.00  0.00    +0.000 A 
ATOM     16  H   UNL     1      43.379   2.881  10.921  0.00  0.00    +0.000 HD
BRANCH   9  18
ATOM     17  N   UNL     1      48.312   1.633   5.887  0.00  0.00    +0.000 NA
ATOM     18  C   UNL     1      47.530   2.026   6.650  0.00  0.00    +0.000 C 
ENDBRANCH   9  18
ENDBRANCH   8  13
ENDBRANCH   7   8
ENDBRANCH   1   7
BRANCH   5  19
ATOM     19  O   UNL     1      47.305   3.771  14.934  0.00  0.00    +0.000 OA
BRANCH  19  20
ATOM     20  C   UNL     1      47.252   4.186  16.319  0.00  0.00    +0.000 C 
ATOM     21  C   UNL     1      48.554   4.756  16.935  0.00  0.00    +0.000 C 
ATOM     22  C   UNL     1      48.865   3.346  17.470  0.00  0.00    +0.000 C 
ATOM     23  C   UNL     1      47.361   3.034  17.347  0.00  0.00    +0.000 C 
BRANCH  22  24
ATOM     24  O   UNL     1      49.438   3.275  18.786  0.00  0.00    +0.000 OA
ATOM     25  H   UNL     1      49.146   2.428  19.164  0.00  0.00    +0.000 HD
ENDBRANCH  22  24
ENDBRANCH  19  20
ENDBRANCH   5  19
TORSDOF 7
ENDMDL
MODEL 2
REMARK VINA RESULT:    -7.496      3.434      8.555
REMARK INTER + INTRA:         -11.114
REMARK INTER:                 -10.648
REMARK INTRA:                  -0.466
REMARK UNBOUND:                -0.770
REMARK  Name = 
REMARK  7 active torsions:
REMARK  status: ('A' for Active; 'I' for Inactive)
REMARK    1  A    between atoms: C_2  and  C_3
REMARK    2  A    between atoms: N_7  and  C_8
REMARK    3  A    between atoms: C_8  and  C_9
REMARK    4  A    between atoms: C_9  and  C_10
REMARK    5  A    between atoms: C_14  and  O_15
REMARK    6  A    between atoms: O_15  and  C_16
REMARK    7  A    between atoms: C_18  and  O_19
REMARK                            x       y       z     vdW  Elec       q    Type
REMARK                         _______ _______ _______ _____ _____    ______ ____
ROOT
ATOM      1  C   UNL     1      45.075   4.763  11.636  0.00  0.00    +0.000 A 
ATOM      2  C   UNL     1      44.035   3.844  11.734  0.00  0.00    +0.000 A 
ATOM      3  N   UNL     1      43.570   3.117  10.693  0.00  0.00    +0.000 NA
ATOM      4  C   UNL     1      44.169   3.319   9.496  0.00  0.00    +0.000 A 
ATOM      5  C   UNL     1      45.217   4.203   9.289  0.00  0.00    +0.000 A 
ATOM      6  C   UNL     1      45.666   4.940  10.380  0.00  0.00    +0.000 A 
ENDROOT
BRANCH   1   7
ATOM      7  C   UNL     1      45.497   5.609  12.811  0.00  0.00    +0.000 C 
BRANCH   7   8
ATOM      8  C   UNL     1      46.852   5.135  13.340  0.00  0.00    +0.000 C 
BRANCH   8  13
ATOM      9  C   UNL     1      48.288   4.466  18.199  0.00  0.00    +0.000 A 
ATOM     10  C   UNL     1      48.515   5.502  17.304  0.00  0.00    +0.000 A 
ATOM     11  C   UNL     1      47.995   5.410  16.014  0.00  0.00    +0.000 A 
ATOM     12  C   UNL     1      47.264   4.287  15.631  0.00  0.00    +0.000 A 
ATOM     13  N   UNL     1      46.723   4.136  14.379  0.00  0.00    +0.000 N 
ATOM     14  N   UNL     1      47.043   3.275  16.492  0.00  0.00    +0.000 NA
ATOM     15  C   UNL     1      47.551   3.383  17.750  0.00  0.00    +0.000 A 
ATOM     16  H   UNL     1      46.242   3.261  14.230  0.00  0.00    +0.000 HD
BRANCH   9  18
ATOM     17  N   UNL     1      49.197   4.546  20.620  0.00  0.00    +0.000 NA
ATOM     18  C   UNL     1      48.796   4.516  19.531  0.00  0.00    +0.000 C 
ENDBRANCH   9  18
ENDBRANCH   8  13
ENDBRANCH   7   8
ENDBRANCH   1   7
BRANCH   5  19
ATOM     19  O   UNL     1      45.711   4.320   8.017  0.00  0.00    +0.000 OA
BRANCH  19  20
ATOM     20  C   UNL     1      45.746   3.129   7.195  0.00  0.00    +0.000 C 
ATOM     21  C   UNL     1      46.715   2.001   7.629  0.00  0.00    +0.000 C 
ATOM     22  C   UNL     1      47.758   2.585   6.659  0.00  0.00    +0.000 C 
ATOM     23  C   UNL     1      46.593   3.255   5.906  0.00  0.00    +0.000 C 
BRANCH  22  24
ATOM     24  O   UNL     1      48.547   1.636   5.923  0.00  0.00    +0.000 OA
ATOM     25  H   UNL     1      48.874   0.991   6.574  0.00  0.00    +0.000 HD
ENDBRANCH  22  24
ENDBRANCH  19  20
ENDBRANCH   5  19
TORSDOF 7
ENDMDL
MODEL 3
REMARK VINA RESULT:    -7.454      2.578      3.978
REMARK INTER + INTRA:         -11.056
REMARK INTER:                 -10.225
REMARK INTRA:                  -0.831
REMARK UNBOUND:                -0.770
REMARK  Name = 
REMARK  7 active torsions:
REMARK  status: ('A' for Active; 'I' for Inactive)
REMARK    1  A    between atoms: C_2  and  C_3
REMARK    2  A    between atoms: N_7  and  C_8
REMARK    3  A    between atoms: C_8  and  C_9
REMARK    4  A    between atoms: C_9  and  C_10
REMARK    5  A    between atoms: C_14  and  O_15
REMARK    6  A    between atoms: O_15  and  C_16
REMARK    7  A    between atoms: C_18  and  O_19
REMARK                            x       y       z     vdW  Elec       q    Type
REMARK                         _______ _______ _______ _____ _____    ______ ____
ROOT
ATOM      1  C   UNL     1      44.476   5.162  12.865  0.00  0.00    +0.000 A 
ATOM      2  C   UNL     1      45.161   4.008  13.232  0.00  0.00    +0.000 A 
ATOM      3  N   UNL     1      46.454   3.992  13.629  0.00  0.00    +0.000 NA
ATOM      4  C   UNL     1      47.095   5.184  13.659  0.00  0.00    +0.000 A 
ATOM      5  C   UNL     1      46.506   6.393  13.321  0.00  0.00    +0.000 A 
ATOM      6  C   UNL     1      45.177   6.373  12.910  0.00  0.00    +0.000 A 
ENDROOT
BRANCH   1   7
ATOM      7  C   UNL     1      43.061   5.112  12.348  0.00  0.00    +0.000 C 
BRANCH   7   8
ATOM      8  C   UNL     1      43.013   4.355  11.020  0.00  0.00    +0.000 C 
BRANCH   8  13
ATOM      9  C   UNL     1      46.506   2.697   7.677  0.00  0.00    +0.000 A 
ATOM     10  C   UNL     1      45.714   2.022   8.596  0.00  0.00    +0.000 A 
ATOM     11  C   UNL     1      44.836   2.749   9.398  0.00  0.00    +0.000 A 
ATOM     12  C   UNL     1      44.762   4.136   9.278  0.00  0.00    +0.000 A 
ATOM     13  N   UNL     1      43.917   4.908  10.034  0.00  0.00    +0.000 N 
ATOM     14  N   UNL     1      45.530   4.799   8.392  0.00  0.00    +0.000 NA
ATOM     15  C   UNL     1      46.377   4.075   7.612  0.00  0.00    +0.000 A 
ATOM     16  H   UNL     1      43.987   5.902   9.864  0.00  0.00    +0.000 HD
BRANCH   9  18
ATOM     17  N   UNL     1      48.158   1.414   6.154  0.00  0.00    +0.000 NA
ATOM     18  C   UNL     1      47.417   1.997   6.831  0.00  0.00    +0.000 C 
ENDBRANCH   9  18
ENDBRANCH   8  13
ENDBRANCH   7   8
ENDBRANCH   1   7
BRANCH   5  19
ATOM     19  O   UNL     1      47.284   7.519  13.378  0.00  0.00    +0.000 OA
BRANCH  19  20
ATOM     20  C   UNL     1      47.650   8.150  12.128  0.00  0.00    +0.000 C 
ATOM     21  C   UNL     1      48.979   7.698  11.473  0.00  0.00    +0.000 C 
ATOM     22  C   UNL     1      49.671   8.887  12.165  0.00  0.00    +0.000 C 
ATOM     23  C   UNL     1      48.286   9.553  12.271  0.00  0.00    +0.000 C 
BRANCH  22  24
ATOM     24  O   UNL     1      50.669   9.580  11.396  0.00  0.00    +0.000 OA
ATOM     25  H   UNL     1      50.663  10.500  11.711  0.00  0.00    +0.000 HD
ENDBRANCH  22  24
ENDBRANCH  19  20
ENDBRANCH   5  19
TORSDOF 7
ENDMDL
MODEL 4
REMARK VINA RESULT:    -7.128      4.124      7.665
REMARK INTER + INTRA:         -10.606
REMARK INTER:                 -10.036
REMARK INTRA:                  -0.571
REMARK UNBOUND:                -0.770
REMARK  Name = 
REMARK  7 active torsions:
REMARK  status: ('A' for Active; 'I' for Inactive)
REMARK    1  A    between atoms: C_2  and  C_3
REMARK    2  A    between atoms: N_7  and  C_8
REMARK    3  A    between atoms: C_8  and  C_9
REMARK    4  A    between atoms: C_9  and  C_10
REMARK    5  A    between atoms: C_14  and  O_15
REMARK    6  A    between atoms: O_15  and  C_16
REMARK    7  A    between atoms: C_18  and  O_19
REMARK                            x       y       z     vdW  Elec       q    Type
REMARK                         _______ _______ _______ _____ _____    ______ ____
ROOT
ATOM      1  C   UNL     1      44.307   4.714  11.496  0.00  0.00    +0.000 A 
ATOM      2  C   UNL     1      43.601   3.517  11.558  0.00  0.00    +0.000 A 
ATOM      3  N   UNL     1      43.628   2.575  10.588  0.00  0.00    +0.000 NA
ATOM      4  C   UNL     1      44.393   2.841   9.503  0.00  0.00    +0.000 A 
ATOM      5  C   UNL     1      45.141   3.998   9.344  0.00  0.00    +0.000 A 
ATOM      6  C   UNL     1      45.085   4.949  10.357  0.00  0.00    +0.000 A 
ENDROOT
BRANCH   1   7
ATOM      7  C   UNL     1      44.174   5.767  12.567  0.00  0.00    +0.000 C 
BRANCH   7   8
ATOM      8  C   UNL     1      44.646   7.120  12.035  0.00  0.00    +0.000 C 
BRANCH   8  13
ATOM      9  C   UNL     1      49.536   8.229  13.025  0.00  0.00    +0.000 A 
ATOM     10  C   UNL     1      48.947   7.461  12.030  0.00  0.00    +0.000 A 
ATOM     11  C   UNL     1      47.560   7.327  12.009  0.00  0.00    +0.000 A 
ATOM     12  C   UNL     1      46.780   7.953  12.980  0.00  0.00    +0.000 A 
ATOM     13  N   UNL     1      45.411   7.864  13.012  0.00  0.00    +0.000 N 
ATOM     14  N   UNL     1      47.344   8.696  13.952  0.00  0.00    +0.000 NA
ATOM     15  C   UNL     1      48.699   8.823  13.955  0.00  0.00    +0.000 A 
ATOM     16  H   UNL     1      44.975   8.344  13.788  0.00  0.00    +0.000 HD
BRANCH   9  18
ATOM     17  N   UNL     1      52.103   8.531  13.152  0.00  0.00    +0.000 NA
ATOM     18  C   UNL     1      50.951   8.399  13.087  0.00  0.00    +0.000 C 
ENDBRANCH   9  18
ENDBRANCH   8  13
ENDBRANCH   7   8
ENDBRANCH   1   7
BRANCH   5  19
ATOM     19  O   UNL     1      45.852   4.142   8.182  0.00  0.00    +0.000 OA
BRANCH  19  20
ATOM     20  C   UNL     1      45.854   3.036   7.250  0.00  0.00    +0.000 C 
ATOM     21  C   UNL     1      46.834   1.871   7.539  0.00  0.00    +0.000 C 
ATOM     22  C   UNL     1      47.843   2.545   6.591  0.00  0.00    +0.000 C 
ATOM     23  C   UNL     1      46.653   3.284   5.948  0.00  0.00    +0.000 C 
BRANCH  22  24
ATOM     24  O   UNL     1      48.601   1.670   5.739  0.00  0.00    +0.000 OA
ATOM     25  H   UNL     1      47.964   1.041   5.360  0.00  0.00    +0.000 HD
ENDBRANCH  22  24
ENDBRANCH  19  20
ENDBRANCH   5  19
TORSDOF 7
ENDMDL
MODEL 5
REMARK VINA RESULT:    -6.742      1.528      1.949
REMARK INTER + INTRA:         -10.073
REMARK INTER:                  -9.848
REMARK INTRA:                  -0.225
REMARK UNBOUND:                -0.770
REMARK  Name = 
REMARK  7 active torsions:
REMARK  status: ('A' for Active; 'I' for Inactive)
REMARK    1  A    between atoms: C_2  and  C_3
REMARK    2  A    between atoms: N_7  and  C_8
REMARK    3  A    between atoms: C_8  and  C_9
REMARK    4  A    between atoms: C_9  and  C_10
REMARK    5  A    between atoms: C_14  and  O_15
REMARK    6  A    between atoms: O_15  and  C_16
REMARK    7  A    between atoms: C_18  and  O_19
REMARK                            x       y       z     vdW  Elec       q    Type
REMARK                         _______ _______ _______ _____ _____    ______ ____
ROOT
ATOM      1  C   UNL     1      45.057   4.953  12.744  0.00  0.00    +0.000 A 
ATOM      2  C   UNL     1      44.545   6.219  12.479  0.00  0.00    +0.000 A 
ATOM      3  N   UNL     1      45.226   7.367  12.690  0.00  0.00    +0.000 NA
ATOM      4  C   UNL     1      46.478   7.248  13.192  0.00  0.00    +0.000 A 
ATOM      5  C   UNL     1      47.086   6.037  13.485  0.00  0.00    +0.000 A 
ATOM      6  C   UNL     1      46.355   4.875  13.263  0.00  0.00    +0.000 A 
ENDROOT
BRANCH   1   7
ATOM      7  C   UNL     1      44.223   3.709  12.571  0.00  0.00    +0.000 C 
BRANCH   7   8
ATOM      8  C   UNL     1      43.491   3.750  11.229  0.00  0.00    +0.000 C 
BRANCH   8  13
ATOM      9  C   UNL     1      46.714   2.631   7.423  0.00  0.00    +0.000 A 
ATOM     10  C   UNL     1      46.073   1.828   8.356  0.00  0.00    +0.000 A 
ATOM     11  C   UNL     1      45.237   2.420   9.301  0.00  0.00    +0.000 A 
ATOM     12  C   UNL     1      45.056   3.802   9.308  0.00  0.00    +0.000 A 
ATOM     13  N   UNL     1      44.244   4.446  10.208  0.00  0.00    +0.000 N 
ATOM     14  N   UNL     1      45.678   4.589   8.409  0.00  0.00    +0.000 NA
ATOM     15  C   UNL     1      46.485   3.995   7.489  0.00  0.00    +0.000 A 
ATOM     16  H   UNL     1      44.228   5.452  10.116  0.00  0.00    +0.000 HD
BRANCH   9  18
ATOM     17  N   UNL     1      48.290   1.614   5.640  0.00  0.00    +0.000 NA
ATOM     18  C   UNL     1      47.576   2.071   6.434  0.00  0.00    +0.000 C 
ENDBRANCH   9  18
ENDBRANCH   8  13
ENDBRANCH   7   8
ENDBRANCH   1   7
BRANCH   5  19
ATOM     19  O   UNL     1      48.351   6.070  14.009  0.00  0.00    +0.000 OA
BRANCH  19  20
ATOM     20  C   UNL     1      48.519   6.633  15.332  0.00  0.00    +0.000 C 
ATOM     21  C   UNL     1      49.970   6.792  15.851  0.00  0.00    +0.000 C 
ATOM     22  C   UNL     1      49.819   5.430  16.555  0.00  0.00    +0.000 C 
ATOM     23  C   UNL     1      48.293   5.637  16.495  0.00  0.00    +0.000 C 
BRANCH  22  24
ATOM     24  O   UNL     1      50.408   5.318  17.861  0.00  0.00    +0.000 OA
ATOM     25  H   UNL     1      50.463   4.366  18.053  0.00  0.00    +0.000 HD
ENDBRANCH  22  24
ENDBRANCH  19  20
ENDBRANCH   5  19
TORSDOF 7
ENDMDL
MODEL 6
REMARK VINA RESULT:    -6.325      2.082      2.595
REMARK INTER + INTRA:          -9.498
REMARK INTER:                  -9.187
REMARK INTRA:                  -0.311
REMARK UNBOUND:                -0.770
REMARK  Name = 
REMARK  7 active torsions:
REMARK  status: ('A' for Active; 'I' for Inactive)
REMARK    1  A    between atoms: C_2  and  C_3
REMARK    2  A    between atoms: N_7  and  C_8
REMARK    3  A    between atoms: C_8  and  C_9
REMARK    4  A    between atoms: C_9  and  C_10
REMARK    5  A    between atoms: C_14  and  O_15
REMARK    6  A    between atoms: O_15  and  C_16
REMARK    7  A    between atoms: C_18  and  O_19
REMARK                            x       y       z     vdW  Elec       q    Type
REMARK                         _______ _______ _______ _____ _____    ______ ____
ROOT
ATOM      1  C   UNL     1      45.029   5.673  12.815  0.00  0.00    +0.000 A 
ATOM      2  C   UNL     1      45.065   4.527  13.602  0.00  0.00    +0.000 A 
ATOM      3  N   UNL     1      46.201   3.992  14.104  0.00  0.00    +0.000 NA
ATOM      4  C   UNL     1      47.358   4.629  13.804  0.00  0.00    +0.000 A 
ATOM      5  C   UNL     1      47.434   5.780  13.035  0.00  0.00    +0.000 A 
ATOM      6  C   UNL     1      46.247   6.300  12.528  0.00  0.00    +0.000 A 
ENDROOT
BRANCH   1   7
ATOM      7  C   UNL     1      43.744   6.178  12.210  0.00  0.00    +0.000 C 
BRANCH   7   8
ATOM      8  C   UNL     1      43.657   5.764  10.740  0.00  0.00    +0.000 C 
BRANCH   8  13
ATOM      9  C   UNL     1      46.432   2.609   7.830  0.00  0.00    +0.000 A 
ATOM     10  C   UNL     1      46.355   3.994   7.876  0.00  0.00    +0.000 A 
ATOM     11  C   UNL     1      45.488   4.596   8.787  0.00  0.00    +0.000 A 
ATOM     12  C   UNL     1      44.706   3.811   9.633  0.00  0.00    +0.000 A 
ATOM     13  N   UNL     1      43.836   4.340  10.553  0.00  0.00    +0.000 N 
ATOM     14  N   UNL     1      44.771   2.466   9.591  0.00  0.00    +0.000 NA
ATOM     15  C   UNL     1      45.627   1.895   8.702  0.00  0.00    +0.000 A 
ATOM     16  H   UNL     1      43.312   3.656  11.081  0.00  0.00    +0.000 HD
BRANCH   9  18
ATOM     17  N   UNL     1      48.006   1.407   6.166  0.00  0.00    +0.000 NA
ATOM     18  C   UNL     1      47.307   1.948   6.918  0.00  0.00    +0.000 C 
ENDBRANCH   9  18
ENDBRANCH   8  13
ENDBRANCH   7   8
ENDBRANCH   1   7
BRANCH   5  19
ATOM     19  O   UNL     1      48.676   6.304  12.794  0.00  0.00    +0.000 OA
BRANCH  19  20
ATOM     20  C   UNL     1      49.037   7.527  13.479  0.00  0.00    +0.000 C 
ATOM     21  C   UNL     1      50.167   7.437  14.534  0.00  0.00    +0.000 C 
ATOM     22  C   UNL     1      49.082   7.267  15.614  0.00  0.00    +0.000 C 
ATOM     23  C   UNL     1      48.091   7.927  14.636  0.00  0.00    +0.000 C 
BRANCH  22  24
ATOM     24  O   UNL     1      49.312   7.942  16.862  0.00  0.00    +0.000 OA
ATOM     25  H   UNL     1      49.340   8.892  16.655  0.00  0.00    +0.000 HD
ENDBRANCH  22  24
ENDBRANCH  19  20
ENDBRANCH   5  19
TORSDOF 7
ENDMDL
MODEL 7
REMARK VINA RESULT:    -6.195      4.286      7.411
REMARK INTER + INTRA:          -9.318
REMARK INTER:                  -8.803
REMARK INTRA:                  -0.515
REMARK UNBOUND:                -0.770
REMARK  Name = 
REMARK  7 active torsions:
REMARK  status: ('A' for Active; 'I' for Inactive)
REMARK    1  A    between atoms: C_2  and  C_3
REMARK    2  A    between atoms: N_7  and  C_8
REMARK    3  A    between atoms: C_8  and  C_9
REMARK    4  A    between atoms: C_9  and  C_10
REMARK    5  A    between atoms: C_14  and  O_15
REMARK    6  A    between atoms: O_15  and  C_16
REMARK    7  A    between atoms: C_18  and  O_19
REMARK                            x       y       z     vdW  Elec       q    Type
REMARK                         _______ _______ _______ _____ _____    ______ ____
ROOT
ATOM      1  C   UNL     1      44.411   6.114  11.434  0.00  0.00    +0.000 A 
ATOM      2  C   UNL     1      43.140   5.780  11.888  0.00  0.00    +0.000 A 
ATOM      3  N   UNL     1      42.612   4.538  11.807  0.00  0.00    +0.000 NA
ATOM      4  C   UNL     1      43.389   3.583  11.244  0.00  0.00    +0.000 A 
ATOM      5  C   UNL     1      44.671   3.806  10.766  0.00  0.00    +0.000 A 
ATOM      6  C   UNL     1      45.181   5.097  10.858  0.00  0.00    +0.000 A 
ENDROOT
BRANCH   1   7
ATOM      7  C   UNL     1      44.917   7.534  11.471  0.00  0.00    +0.000 C 
BRANCH   7   8
ATOM      8  C   UNL     1      45.650   7.797  12.787  0.00  0.00    +0.000 C 
BRANCH   8  13
ATOM      9  C   UNL     1      50.458   8.925  11.470  0.00  0.00    +0.000 A 
ATOM     10  C   UNL     1      49.767   7.722  11.499  0.00  0.00    +0.000 A 
ATOM     11  C   UNL     1      48.437   7.713  11.916  0.00  0.00    +0.000 A 
ATOM     12  C   UNL     1      47.816   8.899  12.304  0.00  0.00    +0.000 A 
ATOM     13  N   UNL     1      46.510   8.958  12.720  0.00  0.00    +0.000 N 
ATOM     14  N   UNL     1      48.481  10.070  12.283  0.00  0.00    +0.000 NA
ATOM     15  C   UNL     1      49.776  10.064  11.867  0.00  0.00    +0.000 A 
ATOM     16  H   UNL     1      46.198   9.878  12.999  0.00  0.00    +0.000 HD
BRANCH   9  18
ATOM     17  N   UNL     1      52.922   9.031  10.687  0.00  0.00    +0.000 NA
ATOM     18  C   UNL     1      51.819   8.986  11.047  0.00  0.00    +0.000 C 
ENDBRANCH   9  18
ENDBRANCH   8  13
ENDBRANCH   7   8
ENDBRANCH   1   7
BRANCH   5  19
ATOM     19  O   UNL     1      45.333   2.749  10.200  0.00  0.00    +0.000 OA
BRANCH  19  20
ATOM     20  C   UNL     1      45.095   2.474   8.799  0.00  0.00    +0.000 C 
ATOM     21  C   UNL     1      46.330   2.142   7.925  0.00  0.00    +0.000 C 
ATOM     22  C   UNL     1      46.389   3.628   7.525  0.00  0.00    +0.000 C 
ATOM     23  C   UNL     1      44.902   3.730   7.915  0.00  0.00    +0.000 C 
BRANCH  22  24
ATOM     24  O   UNL     1      46.722   3.907   6.154  0.00  0.00    +0.000 OA
ATOM     25  H   UNL     1      46.557   3.084   5.662  0.00  0.00    +0.000 HD
ENDBRANCH  22  24
ENDBRANCH  19  20
ENDBRANCH   5  19
TORSDOF 7
ENDMDL
MODEL 8
REMARK VINA RESULT:    -5.991      3.748      8.204
REMARK INTER + INTRA:          -9.038
REMARK INTER:                  -8.417
REMARK INTRA:                  -0.621
REMARK UNBOUND:                -0.770
REMARK  Name = 
REMARK  7 active torsions:
REMARK  status: ('A' for Active; 'I' for Inactive)
REMARK    1  A    between atoms: C_2  and  C_3
REMARK    2  A    between atoms: N_7  and  C_8
REMARK    3  A    between atoms: C_8  and  C_9
REMARK    4  A    between atoms: C_9  and  C_10
REMARK    5  A    between atoms: C_14  and  O_15
REMARK    6  A    between atoms: O_15  and  C_16
REMARK    7  A    between atoms: C_18  and  O_19
REMARK                            x       y       z     vdW  Elec       q    Type
REMARK                         _______ _______ _______ _____ _____    ______ ____
ROOT
ATOM      1  C   UNL     1      44.341   5.050  11.311  0.00  0.00    +0.000 A 
ATOM      2  C   UNL     1      43.574   4.153  12.047  0.00  0.00    +0.000 A 
ATOM      3  N   UNL     1      43.287   2.895  11.642  0.00  0.00    +0.000 NA
ATOM      4  C   UNL     1      43.787   2.514  10.442  0.00  0.00    +0.000 A 
ATOM      5  C   UNL     1      44.568   3.325   9.633  0.00  0.00    +0.000 A 
ATOM      6  C   UNL     1      44.839   4.615  10.077  0.00  0.00    +0.000 A 
ENDROOT
BRANCH   1   7
ATOM      7  C   UNL     1      44.559   6.469  11.771  0.00  0.00    +0.000 C 
BRANCH   7   8
ATOM      8  C   UNL     1      46.034   6.846  11.631  0.00  0.00    +0.000 C 
BRANCH   8  13
ATOM      9  C   UNL     1      48.916   8.092  15.665  0.00  0.00    +0.000 A 
ATOM     10  C   UNL     1      48.170   8.868  14.788  0.00  0.00    +0.000 A 
ATOM     11  C   UNL     1      47.473   8.244  13.754  0.00  0.00    +0.000 A 
ATOM     12  C   UNL     1      47.535   6.860  13.603  0.00  0.00    +0.000 A 
ATOM     13  N   UNL     1      46.870   6.185  12.610  0.00  0.00    +0.000 N 
ATOM     14  N   UNL     1      48.261   6.100  14.446  0.00  0.00    +0.000 NA
ATOM     15  C   UNL     1      48.929   6.723  15.455  0.00  0.00    +0.000 A 
ATOM     16  H   UNL     1      47.026   5.187  12.601  0.00  0.00    +0.000 HD
BRANCH   9  18
ATOM     17  N   UNL     1      50.246   9.169  17.605  0.00  0.00    +0.000 NA
ATOM     18  C   UNL     1      49.642   8.684  16.740  0.00  0.00    +0.000 C 
ENDBRANCH   9  18
ENDBRANCH   8  13
ENDBRANCH   7   8
ENDBRANCH   1   7
BRANCH   5  19
ATOM     19  O   UNL     1      44.988   2.813   8.434  0.00  0.00    +0.000 OA
BRANCH  19  20
ATOM     20  C   UNL     1      46.403   2.863   8.136  0.00  0.00    +0.000 C 
ATOM     21  C   UNL     1      46.873   3.932   7.119  0.00  0.00    +0.000 C 
ATOM     22  C   UNL     1      46.777   2.861   6.017  0.00  0.00    +0.000 C 
ATOM     23  C   UNL     1      46.893   1.797   7.126  0.00  0.00    +0.000 C 
BRANCH  22  24
ATOM     24  O   UNL     1      47.813   2.876   5.021  0.00  0.00    +0.000 OA
ATOM     25  H   UNL     1      48.653   2.959   5.504  0.00  0.00    +0.000 HD
ENDBRANCH  22  24
ENDBRANCH  19  20
ENDBRANCH   5  19
TORSDOF 7
ENDMDL
MODEL 9
REMARK VINA RESULT:    -5.889      2.865      4.818
REMARK INTER + INTRA:          -8.896
REMARK INTER:                  -7.933
REMARK INTRA:                  -0.963
REMARK UNBOUND:                -0.770
REMARK  Name = 
REMARK  7 active torsions:
REMARK  status: ('A' for Active; 'I' for Inactive)
REMARK    1  A    between atoms: C_2  and  C_3
REMARK    2  A    between atoms: N_7  and  C_8
REMARK    3  A    between atoms: C_8  and  C_9
REMARK    4  A    between atoms: C_9  and  C_10
REMARK    5  A    between atoms: C_14  and  O_15
REMARK    6  A    between atoms: O_15  and  C_16
REMARK    7  A    between atoms: C_18  and  O_19
REMARK                            x       y       z     vdW  Elec       q    Type
REMARK                         _______ _______ _______ _____ _____    ______ ____
ROOT
ATOM      1  C   UNL     1      49.919   7.865  13.893  0.00  0.00    +0.000 A 
ATOM      2  C   UNL     1      51.205   8.307  14.185  0.00  0.00    +0.000 A 
ATOM      3  N   UNL     1      51.904   7.925  15.278  0.00  0.00    +0.000 NA
ATOM      4  C   UNL     1      51.289   7.062  16.122  0.00  0.00    +0.000 A 
ATOM      5  C   UNL     1      50.014   6.555  15.922  0.00  0.00    +0.000 A 
ATOM      6  C   UNL     1      49.320   6.974  14.791  0.00  0.00    +0.000 A 
ENDROOT
BRANCH   1   7
ATOM      7  C   UNL     1      49.152   8.389  12.705  0.00  0.00    +0.000 C 
BRANCH   7   8
ATOM      8  C   UNL     1      47.652   8.187  12.917  0.00  0.00    +0.000 C 
BRANCH   8  13
ATOM      9  C   UNL     1      44.590   4.249  11.803  0.00  0.00    +0.000 A 
ATOM     10  C   UNL     1      45.164   4.663  12.997  0.00  0.00    +0.000 A 
ATOM     11  C   UNL     1      45.978   5.795  13.002  0.00  0.00    +0.000 A 
ATOM     12  C   UNL     1      46.213   6.494  11.820  0.00  0.00    +0.000 A 
ATOM     13  N   UNL     1      46.999   7.617  11.758  0.00  0.00    +0.000 N 
ATOM     14  N   UNL     1      45.663   6.097  10.656  0.00  0.00    +0.000 NA
ATOM     15  C   UNL     1      44.866   4.995  10.668  0.00  0.00    +0.000 A 
ATOM     16  H   UNL     1      47.107   8.007  10.832  0.00  0.00    +0.000 HD
BRANCH   9  18
ATOM     17  N   UNL     1      43.051   2.172  11.691  0.00  0.00    +0.000 NA
ATOM     18  C   UNL     1      43.747   3.100  11.747  0.00  0.00    +0.000 C 
ENDBRANCH   9  18
ENDBRANCH   8  13
ENDBRANCH   7   8
ENDBRANCH   1   7
BRANCH   5  19
ATOM     19  O   UNL     1      49.510   5.706  16.872  0.00  0.00    +0.000 OA
BRANCH  19  20
ATOM     20  C   UNL     1      48.075   5.526  16.923  0.00  0.00    +0.000 C 
ATOM     21  C   UNL     1      47.489   4.900  18.212  0.00  0.00    +0.000 C 
ATOM     22  C   UNL     1      47.539   3.528  17.515  0.00  0.00    +0.000 C 
ATOM     23  C   UNL     1      47.550   4.280  16.170  0.00  0.00    +0.000 C 
BRANCH  22  24
ATOM     24  O   UNL     1      46.429   2.648  17.758  0.00  0.00    +0.000 OA
ATOM     25  H   UNL     1      46.124   2.839  18.662  0.00  0.00    +0.000 HD
ENDBRANCH  22  24
ENDBRANCH  19  20
ENDBRANCH   5  19
TORSDOF 7
ENDMDL
