MODEL 1
REMARK VINA RESULT:    -7.797      0.000      0.000
REMARK INTER + INTRA:         -11.676
REMARK INTER:                 -10.760
REMARK INTRA:                  -0.916
REMARK UNBOUND:                -0.916
REMARK  Name = 
REMARK  7 active torsions:
REMARK  status: ('A' for Active; 'I' for Inactive)
REMARK    1  A    between atoms: C_2  and  C_20
REMARK    2  A    between atoms: N_3  and  C_4
REMARK    3  A    between atoms: C_4  and  C_5
REMARK    4  A    between atoms: C_8  and  C_9
REMARK    5  A    between atoms: C_9  and  C_10
REMARK    6  A    between atoms: C_10  and  O_11
REMARK    7  A    between atoms: C_10  and  C_12
REMARK                            x       y       z     vdW  Elec       q    Type
REMARK                         _______ _______ _______ _____ _____    ______ ____
ROOT
ATOM      1  C   UNL     1      47.307   4.333  15.681  0.00  0.00    +0.000 C 
ENDROOT
BRANCH   1   2
ATOM      2  C   UNL     1      46.763   4.633  14.305  0.00  0.00    +0.000 A 
ATOM      3  C   UNL     1      47.127   5.798  13.641  0.00  0.00    +0.000 A 
ATOM      4  N   UNL     1      46.705   6.096  12.386  0.00  0.00    +0.000 NA
ATOM      5  C   UNL     1      45.912   5.170  11.795  0.00  0.00    +0.000 A 
ATOM      6  C   UNL     1      45.576   3.985  12.448  0.00  0.00    +0.000 A 
ATOM      7  N   UNL     1      45.989   3.691  13.703  0.00  0.00    +0.000 NA
BRANCH   5   8
ATOM      8  C   UNL     1      45.421   5.457  10.399  0.00  0.00    +0.000 C 
BRANCH   8   9
ATOM      9  C   UNL     1      44.599   4.295   9.845  0.00  0.00    +0.000 C 
BRANCH   9  10
ATOM     10  C   UNL     1      45.439   3.525   8.836  0.00  0.00    +0.000 A 
ATOM     11  N   UNL     1      45.565   2.191   8.974  0.00  0.00    +0.000 NA
ATOM     12  C   UNL     1      46.321   1.562   8.053  0.00  0.00    +0.000 A 
ATOM     13  C   UNL     1      46.961   2.211   7.022  0.00  0.00    +0.000 A 
ATOM     14  C   UNL     1      46.778   3.571   6.970  0.00  0.00    +0.000 A 
ATOM     15  N   UNL     1      46.026   4.254   7.857  0.00  0.00    +0.000 NA
ENDBRANCH   9  10
BRANCH   9  16
ATOM     16  O   UNL     1      43.427   4.835   9.194  0.00  0.00    +0.000 OA
ATOM     17  H   UNL     1      42.755   4.914   9.900  0.00  0.00    +0.000 HD
ENDBRANCH   9  16
ENDBRANCH   8   9
ENDBRANCH   5   8
ENDBRANCH   1   2
BRANCH   1  20
ATOM     18  O   UNL     1      49.968   4.649  16.669  0.00  0.00    +0.000 OA
ATOM     19  C   UNL     1      49.133   5.536  16.826  0.00  0.00    +0.000 C 
ATOM     20  N   UNL     1      47.873   5.522  16.266  0.00  0.00    +0.000 N 
ATOM     21  H   UNL     1      47.185   6.163  16.637  0.00  0.00    +0.000 HD
BRANCH  19  22
ATOM     22  C   UNL     1      49.272   6.600  17.813  0.00  0.00    +0.000 A 
ATOM     23  C   UNL     1      49.639   6.362  19.125  0.00  0.00    +0.000 A 
ATOM     24  S   UNL     1      49.164   7.651  20.156  0.00  0.00    +0.000 S 
ATOM     25  C   UNL     1      48.603   8.575  18.837  0.00  0.00    +0.000 A 
ATOM     26  N   UNL     1      47.919   9.741  18.993  0.00  0.00    +0.000 NA
ATOM     27  C   UNL     1      47.614  10.327  17.880  0.00  0.00    +0.000 A 
ATOM     28  N   UNL     1      47.981   9.890  16.631  0.00  0.00    +0.000 N 
ATOM     29  C   UNL     1      48.687   8.730  16.427  0.00  0.00    +0.000 A 
ATOM     30  O   UNL     1      49.076   8.390  15.316  0.00  0.00    +0.000 OA
ATOM     31  C   UNL     1      48.920   7.976  17.638  0.00  0.00    +0.000 A 
ATOM     32  H   UNL     1      47.790  10.442  15.808  0.00  0.00    +0.000 HD
ENDBRANCH  19  22
ENDBRANCH   1  20
TORSDOF 7
ENDMDL
MODEL 2
REMARK VINA RESULT:    -7.787      3.510      9.053
REMARK INTER + INTRA:         -11.662
REMARK INTER:                 -10.732
REMARK INTRA:                  -0.929
REMARK UNBOUND:                -0.916
REMARK  Name = 
REMARK  7 active torsions:
REMARK  status: ('A' for Active; 'I' for Inactive)
REMARK    1  A    between atoms: C_2  and  C_20
REMARK    2  A    between atoms: N_3  and  C_4
REMARK    3  A    between atoms: C_4  and  C_5
REMARK    4  A    between atoms: C_8  and  C_9
REMARK    5  A    between atoms: C_9  and  C_10
REMARK    6  A    between atoms: C_10  and  O_11
REMARK    7  A    between atoms: C_10  and  C_12
REMARK                            x       y       z     vdW  Elec       q    Type
REMARK                         _______ _______ _______ _____ _____    ______ ____
ROOT
ATOM      1  C   UNL     1      47.185   6.622  13.086  0.00  0.00    +0.000 C 
ENDROOT
BRANCH   1   2
ATOM      2  C   UNL     1      47.568   5.853  14.326  0.00  0.00    +0.000 A 
ATOM      3  C   UNL     1      46.892   4.689  14.673  0.00  0.00    +0.000 A 
ATOM      4  N   UNL     1      47.224   3.935  15.751  0.00  0.00    +0.000 NA
ATOM      5  C   UNL     1      48.284   4.372  16.473  0.00  0.00    +0.000 A 
ATOM      6  C   UNL     1      48.985   5.519  16.105  0.00  0.00    +0.000 A 
ATOM      7  N   UNL     1      48.648   6.278  15.036  0.00  0.00    +0.000 NA
BRANCH   5   8
ATOM      8  C   UNL     1      48.691   3.563  17.678  0.00  0.00    +0.000 C 
BRANCH   8   9
ATOM      9  C   UNL     1      49.258   2.203  17.274  0.00  0.00    +0.000 C 
BRANCH   9  10
ATOM     10  C   UNL     1      50.753   2.181  17.558  0.00  0.00    +0.000 A 
ATOM     11  N   UNL     1      51.432   1.029  17.398  0.00  0.00    +0.000 NA
ATOM     12  C   UNL     1      52.752   1.068  17.664  0.00  0.00    +0.000 A 
ATOM     13  C   UNL     1      53.407   2.199  18.095  0.00  0.00    +0.000 A 
ATOM     14  C   UNL     1      52.629   3.323  18.234  0.00  0.00    +0.000 A 
ATOM     15  N   UNL     1      51.306   3.346  17.974  0.00  0.00    +0.000 NA
ENDBRANCH   9  10
BRANCH   9  16
ATOM     16  O   UNL     1      49.025   2.013  15.860  0.00  0.00    +0.000 OA
ATOM     17  H   UNL     1      49.700   1.365  15.575  0.00  0.00    +0.000 HD
ENDBRANCH   9  16
ENDBRANCH   8   9
ENDBRANCH   5   8
ENDBRANCH   1   2
BRANCH   1  20
ATOM     18  O   UNL     1      44.956   7.297  11.432  0.00  0.00    +0.000 OA
ATOM     19  C   UNL     1      45.368   6.142  11.484  0.00  0.00    +0.000 C 
ATOM     20  N   UNL     1      46.515   5.757  12.147  0.00  0.00    +0.000 N 
ATOM     21  H   UNL     1      46.643   4.772  12.335  0.00  0.00    +0.000 HD
BRANCH  19  22
ATOM     22  C   UNL     1      44.581   4.990  11.059  0.00  0.00    +0.000 A 
ATOM     23  C   UNL     1      43.516   4.500  11.793  0.00  0.00    +0.000 A 
ATOM     24  S   UNL     1      43.171   2.866  11.389  0.00  0.00    +0.000 S 
ATOM     25  C   UNL     1      44.341   2.867  10.148  0.00  0.00    +0.000 A 
ATOM     26  N   UNL     1      44.700   1.742   9.473  0.00  0.00    +0.000 NA
ATOM     27  C   UNL     1      45.568   1.942   8.535  0.00  0.00    +0.000 A 
ATOM     28  N   UNL     1      46.065   3.169   8.167  0.00  0.00    +0.000 N 
ATOM     29  C   UNL     1      45.717   4.333   8.807  0.00  0.00    +0.000 A 
ATOM     30  O   UNL     1      46.105   5.430   8.422  0.00  0.00    +0.000 OA
ATOM     31  C   UNL     1      44.860   4.128   9.953  0.00  0.00    +0.000 A 
ATOM     32  H   UNL     1      46.670   3.268   7.366  0.00  0.00    +0.000 HD
ENDBRANCH  19  22
ENDBRANCH   1  20
TORSDOF 7
ENDMDL
MODEL 3
REMARK VINA RESULT:    -7.639      2.153      2.739
REMARK INTER + INTRA:         -11.458
REMARK INTER:                 -10.532
REMARK INTRA:                  -0.926
REMARK UNBOUND:                -0.916
REMARK  Name = 
REMARK  7 active torsions:
REMARK  status: ('A' for Active; 'I' for Inactive)
REMARK    1  A    between atoms: C_2  and  C_20
REMARK    2  A    between atoms: N_3  and  C_4
REMARK    3  A    between atoms: C_4  and  C_5
REMARK    4  A    between atoms: C_8  and  C_9
REMARK    5  A    between atoms: C_9  and  C_10
REMARK    6  A    between atoms: C_10  and  O_11
REMARK    7  A    between atoms: C_10  and  C_12
REMARK                            x       y       z     vdW  Elec       q    Type
REMARK                         _______ _______ _______ _____ _____    ______ ____
ROOT
ATOM      1  C   UNL     1      46.756   4.859  14.823  0.00  0.00    +0.000 C 
ENDROOT
BRANCH   1   2
ATOM      2  C   UNL     1      45.988   4.545  13.562  0.00  0.00    +0.000 A 
ATOM      3  C   UNL     1      45.309   5.548  12.881  0.00  0.00    +0.000 A 
ATOM      4  N   UNL     1      44.641   5.331  11.720  0.00  0.00    +0.000 NA
ATOM      5  C   UNL     1      44.691   4.066  11.238  0.00  0.00    +0.000 A 
ATOM      6  C   UNL     1      45.403   3.068  11.902  0.00  0.00    +0.000 A 
ATOM      7  N   UNL     1      46.060   3.281  13.065  0.00  0.00    +0.000 NA
BRANCH   5   8
ATOM      8  C   UNL     1      43.966   3.780   9.948  0.00  0.00    +0.000 C 
BRANCH   8   9
ATOM      9  C   UNL     1      44.704   4.370   8.748  0.00  0.00    +0.000 C 
BRANCH   9  10
ATOM     10  C   UNL     1      45.642   3.318   8.171  0.00  0.00    +0.000 A 
ATOM     11  N   UNL     1      45.504   2.036   8.561  0.00  0.00    +0.000 NA
ATOM     12  C   UNL     1      46.362   1.149   8.020  0.00  0.00    +0.000 A 
ATOM     13  C   UNL     1      47.349   1.495   7.126  0.00  0.00    +0.000 A 
ATOM     14  C   UNL     1      47.414   2.827   6.795  0.00  0.00    +0.000 A 
ATOM     15  N   UNL     1      46.578   3.759   7.298  0.00  0.00    +0.000 NA
ENDBRANCH   9  10
BRANCH   9  16
ATOM     16  O   UNL     1      45.467   5.512   9.197  0.00  0.00    +0.000 OA
ATOM     17  H   UNL     1      44.802   6.192   9.423  0.00  0.00    +0.000 HD
ENDBRANCH   9  16
ENDBRANCH   8   9
ENDBRANCH   5   8
ENDBRANCH   1   2
BRANCH   1  20
ATOM     18  O   UNL     1      49.141   5.482  16.265  0.00  0.00    +0.000 OA
ATOM     19  C   UNL     1      48.679   6.274  15.449  0.00  0.00    +0.000 C 
ATOM     20  N   UNL     1      47.615   5.998  14.616  0.00  0.00    +0.000 N 
ATOM     21  H   UNL     1      47.160   6.775  14.158  0.00  0.00    +0.000 HD
BRANCH  19  22
ATOM     22  C   UNL     1      49.033   7.688  15.416  0.00  0.00    +0.000 A 
ATOM     23  C   UNL     1      49.166   8.454  16.561  0.00  0.00    +0.000 A 
ATOM     24  S   UNL     1      49.006  10.130  16.220  0.00  0.00    +0.000 S 
ATOM     25  C   UNL     1      48.903   9.837  14.543  0.00  0.00    +0.000 A 
ATOM     26  N   UNL     1      48.601  10.811  13.643  0.00  0.00    +0.000 NA
ATOM     27  C   UNL     1      48.614  10.415  12.411  0.00  0.00    +0.000 A 
ATOM     28  N   UNL     1      48.959   9.154  11.991  0.00  0.00    +0.000 N 
ATOM     29  C   UNL     1      49.289   8.144  12.862  0.00  0.00    +0.000 A 
ATOM     30  O   UNL     1      49.670   7.047  12.474  0.00  0.00    +0.000 OA
ATOM     31  C   UNL     1      49.145   8.513  14.253  0.00  0.00    +0.000 A 
ATOM     32  H   UNL     1      49.038   8.934  11.009  0.00  0.00    +0.000 HD
ENDBRANCH  19  22
ENDBRANCH   1  20
TORSDOF 7
ENDMDL
MODEL 4
REMARK VINA RESULT:    -7.612      2.138      3.715
REMARK INTER + INTRA:         -11.421
REMARK INTER:                 -10.521
REMARK INTRA:                  -0.900
REMARK UNBOUND:                -0.916
REMARK  Name = 
REMARK  7 active torsions:
REMARK  status: ('A' for Active; 'I' for Inactive)
REMARK    1  A    between atoms: C_2  and  C_20
REMARK    2  A    between atoms: N_3  and  C_4
REMARK    3  A    between atoms: C_4  and  C_5
REMARK    4  A    between atoms: C_8  and  C_9
REMARK    5  A    between atoms: C_9  and  C_10
REMARK    6  A    between atoms: C_10  and  O_11
REMARK    7  A    between atoms: C_10  and  C_12
REMARK                            x       y       z     vdW  Elec       q    Type
REMARK                         _______ _______ _______ _____ _____    ______ ____
ROOT
ATOM      1  C   UNL     1      47.841   7.311  13.980  0.00  0.00    +0.000 C 
ENDROOT
BRANCH   1   2
ATOM      2  C   UNL     1      46.985   6.512  13.030  0.00  0.00    +0.000 A 
ATOM      3  C   UNL     1      46.403   5.317  13.439  0.00  0.00    +0.000 A 
ATOM      4  N   UNL     1      45.588   4.581  12.642  0.00  0.00    +0.000 NA
ATOM      5  C   UNL     1      45.348   5.092  11.410  0.00  0.00    +0.000 A 
ATOM      6  C   UNL     1      45.903   6.308  11.013  0.00  0.00    +0.000 A 
ATOM      7  N   UNL     1      46.724   7.038  11.804  0.00  0.00    +0.000 NA
BRANCH   5   8
ATOM      8  C   UNL     1      44.446   4.310  10.491  0.00  0.00    +0.000 C 
BRANCH   8   9
ATOM      9  C   UNL     1      44.928   2.870  10.325  0.00  0.00    +0.000 C 
BRANCH   9  10
ATOM     10  C   UNL     1      45.606   2.724   8.970  0.00  0.00    +0.000 A 
ATOM     11  N   UNL     1      45.723   3.807   8.177  0.00  0.00    +0.000 NA
ATOM     12  C   UNL     1      46.330   3.617   6.990  0.00  0.00    +0.000 A 
ATOM     13  C   UNL     1      46.803   2.398   6.563  0.00  0.00    +0.000 A 
ATOM     14  C   UNL     1      46.631   1.353   7.438  0.00  0.00    +0.000 A 
ATOM     15  N   UNL     1      46.039   1.483   8.643  0.00  0.00    +0.000 NA
ENDBRANCH   9  10
BRANCH   9  16
ATOM     16  O   UNL     1      43.781   1.994  10.396  0.00  0.00    +0.000 OA
ATOM     17  H   UNL     1      43.210   2.374  11.093  0.00  0.00    +0.000 HD
ENDBRANCH   9  16
ENDBRANCH   8   9
ENDBRANCH   5   8
ENDBRANCH   1   2
BRANCH   1  20
ATOM     18  O   UNL     1      48.500   8.192  16.616  0.00  0.00    +0.000 OA
ATOM     19  C   UNL     1      48.684   7.025  16.283  0.00  0.00    +0.000 C 
ATOM     20  N   UNL     1      48.271   6.487  15.082  0.00  0.00    +0.000 N 
ATOM     21  H   UNL     1      48.670   5.602  14.800  0.00  0.00    +0.000 HD
BRANCH  19  22
ATOM     22  C   UNL     1      49.569   6.117  17.003  0.00  0.00    +0.000 A 
ATOM     23  C   UNL     1      50.803   6.506  17.494  0.00  0.00    +0.000 A 
ATOM     24  S   UNL     1      51.831   5.155  17.753  0.00  0.00    +0.000 S 
ATOM     25  C   UNL     1      50.589   4.059  17.349  0.00  0.00    +0.000 A 
ATOM     26  N   UNL     1      50.803   2.723  17.206  0.00  0.00    +0.000 NA
ATOM     27  C   UNL     1      49.735   2.042  16.944  0.00  0.00    +0.000 A 
ATOM     28  N   UNL     1      48.465   2.560  16.871  0.00  0.00    +0.000 N 
ATOM     29  C   UNL     1      48.199   3.899  17.026  0.00  0.00    +0.000 A 
ATOM     30  O   UNL     1      47.056   4.340  17.037  0.00  0.00    +0.000 OA
ATOM     31  C   UNL     1      49.387   4.709  17.178  0.00  0.00    +0.000 A 
ATOM     32  H   UNL     1      47.662   1.961  16.753  0.00  0.00    +0.000 HD
ENDBRANCH  19  22
ENDBRANCH   1  20
TORSDOF 7
ENDMDL
MODEL 5
REMARK VINA RESULT:    -7.497      1.823      2.864
REMARK INTER + INTRA:         -11.262
REMARK INTER:                 -10.544
REMARK INTRA:                  -0.718
REMARK UNBOUND:                -0.916
REMARK  Name = 
REMARK  7 active torsions:
REMARK  status: ('A' for Active; 'I' for Inactive)
REMARK    1  A    between atoms: C_2  and  C_20
REMARK    2  A    between atoms: N_3  and  C_4
REMARK    3  A    between atoms: C_4  and  C_5
REMARK    4  A    between atoms: C_8  and  C_9
REMARK    5  A    between atoms: C_9  and  C_10
REMARK    6  A    between atoms: C_10  and  O_11
REMARK    7  A    between atoms: C_10  and  C_12
REMARK                            x       y       z     vdW  Elec       q    Type
REMARK                         _______ _______ _______ _____ _____    ______ ____
ROOT
ATOM      1  C   UNL     1      48.459   6.727  13.916  0.00  0.00    +0.000 C 
ENDROOT
BRANCH   1   2
ATOM      2  C   UNL     1      47.211   5.985  13.504  0.00  0.00    +0.000 A 
ATOM      3  C   UNL     1      46.096   6.677  13.047  0.00  0.00    +0.000 A 
ATOM      4  N   UNL     1      44.966   6.060  12.622  0.00  0.00    +0.000 NA
ATOM      5  C   UNL     1      44.989   4.705  12.645  0.00  0.00    +0.000 A 
ATOM      6  C   UNL     1      46.120   4.010  13.069  0.00  0.00    +0.000 A 
ATOM      7  N   UNL     1      47.245   4.626  13.503  0.00  0.00    +0.000 NA
BRANCH   5   8
ATOM      8  C   UNL     1      43.755   3.976  12.178  0.00  0.00    +0.000 C 
BRANCH   8   9
ATOM      9  C   UNL     1      43.372   4.378  10.755  0.00  0.00    +0.000 C 
BRANCH   9  10
ATOM     10  C   UNL     1      44.320   3.706   9.773  0.00  0.00    +0.000 A 
ATOM     11  N   UNL     1      44.410   2.362   9.767  0.00  0.00    +0.000 NA
ATOM     12  C   UNL     1      45.265   1.821   8.878  0.00  0.00    +0.000 A 
ATOM     13  C   UNL     1      46.036   2.566   8.015  0.00  0.00    +0.000 A 
ATOM     14  C   UNL     1      45.879   3.929   8.100  0.00  0.00    +0.000 A 
ATOM     15  N   UNL     1      45.033   4.526   8.964  0.00  0.00    +0.000 NA
ENDBRANCH   9  10
BRANCH   9  16
ATOM     16  O   UNL     1      43.486   5.815  10.640  0.00  0.00    +0.000 OA
ATOM     17  H   UNL     1      44.273   5.965  10.078  0.00  0.00    +0.000 HD
ENDBRANCH   9  16
ENDBRANCH   8   9
ENDBRANCH   5   8
ENDBRANCH   1   2
BRANCH   1  20
ATOM     18  O   UNL     1      50.255   6.206  16.074  0.00  0.00    +0.000 OA
ATOM     19  C   UNL     1      49.193   6.789  16.272  0.00  0.00    +0.000 C 
ATOM     20  N   UNL     1      48.336   7.199  15.272  0.00  0.00    +0.000 N 
ATOM     21  H   UNL     1      47.393   7.451  15.534  0.00  0.00    +0.000 HD
BRANCH  19  22
ATOM     22  C   UNL     1      48.582   6.915  17.590  0.00  0.00    +0.000 A 
ATOM     23  C   UNL     1      48.247   8.137  18.146  0.00  0.00    +0.000 A 
ATOM     24  S   UNL     1      48.108   8.034  19.855  0.00  0.00    +0.000 S 
ATOM     25  C   UNL     1      48.354   6.347  19.831  0.00  0.00    +0.000 A 
ATOM     26  N   UNL     1      48.516   5.610  20.963  0.00  0.00    +0.000 NA
ATOM     27  C   UNL     1      48.645   4.340  20.753  0.00  0.00    +0.000 A 
ATOM     28  N   UNL     1      48.565   3.731  19.524  0.00  0.00    +0.000 N 
ATOM     29  C   UNL     1      48.384   4.432  18.357  0.00  0.00    +0.000 A 
ATOM     30  O   UNL     1      48.237   3.873  17.277  0.00  0.00    +0.000 OA
ATOM     31  C   UNL     1      48.381   5.866  18.540  0.00  0.00    +0.000 A 
ATOM     32  H   UNL     1      48.582   2.725  19.438  0.00  0.00    +0.000 HD
ENDBRANCH  19  22
ENDBRANCH   1  20
TORSDOF 7
ENDMDL
MODEL 6
REMARK VINA RESULT:    -7.406      1.602      2.343
REMARK INTER + INTRA:         -11.137
REMARK INTER:                 -10.189
REMARK INTRA:                  -0.947
REMARK UNBOUND:                -0.916
REMARK  Name = 
REMARK  7 active torsions:
REMARK  status: ('A' for Active; 'I' for Inactive)
REMARK    1  A    between atoms: C_2  and  C_20
REMARK    2  A    between atoms: N_3  and  C_4
REMARK    3  A    between atoms: C_4  and  C_5
REMARK    4  A    between atoms: C_8  and  C_9
REMARK    5  A    between atoms: C_9  and  C_10
REMARK    6  A    between atoms: C_10  and  O_11
REMARK    7  A    between atoms: C_10  and  C_12
REMARK                            x       y       z     vdW  Elec       q    Type
REMARK                         _______ _______ _______ _____ _____    ______ ____
ROOT
ATOM      1  C   UNL     1      47.649   4.494  15.186  0.00  0.00    +0.000 C 
ENDROOT
BRANCH   1   2
ATOM      2  C   UNL     1      46.599   4.360  14.111  0.00  0.00    +0.000 A 
ATOM      3  C   UNL     1      45.828   5.455  13.737  0.00  0.00    +0.000 A 
ATOM      4  N   UNL     1      44.902   5.403  12.748  0.00  0.00    +0.000 NA
ATOM      5  C   UNL     1      44.780   4.211  12.114  0.00  0.00    +0.000 A 
ATOM      6  C   UNL     1      45.578   3.124  12.465  0.00  0.00    +0.000 A 
ATOM      7  N   UNL     1      46.496   3.172  13.459  0.00  0.00    +0.000 NA
BRANCH   5   8
ATOM      8  C   UNL     1      43.765   4.108  11.005  0.00  0.00    +0.000 C 
BRANCH   8   9
ATOM      9  C   UNL     1      44.236   4.834   9.746  0.00  0.00    +0.000 C 
BRANCH   9  10
ATOM     10  C   UNL     1      45.108   3.896   8.925  0.00  0.00    +0.000 A 
ATOM     11  N   UNL     1      45.940   4.416   8.002  0.00  0.00    +0.000 NA
ATOM     12  C   UNL     1      46.687   3.539   7.304  0.00  0.00    +0.000 A 
ATOM     13  C   UNL     1      46.622   2.176   7.482  0.00  0.00    +0.000 A 
ATOM     14  C   UNL     1      45.740   1.741   8.441  0.00  0.00    +0.000 A 
ATOM     15  N   UNL     1      44.973   2.571   9.176  0.00  0.00    +0.000 NA
ENDBRANCH   9  10
BRANCH   9  16
ATOM     16  O   UNL     1      45.004   5.991  10.146  0.00  0.00    +0.000 OA
ATOM     17  H   UNL     1      45.678   6.106   9.447  0.00  0.00    +0.000 HD
ENDBRANCH   9  16
ENDBRANCH   8   9
ENDBRANCH   5   8
ENDBRANCH   1   2
BRANCH   1  20
ATOM     18  O   UNL     1      49.957   5.830  16.208  0.00  0.00    +0.000 OA
ATOM     19  C   UNL     1      48.856   6.371  16.241  0.00  0.00    +0.000 C 
ATOM     20  N   UNL     1      47.721   5.857  15.650  0.00  0.00    +0.000 N 
ATOM     21  H   UNL     1      46.829   6.242  15.927  0.00  0.00    +0.000 HD
BRANCH  19  22
ATOM     22  C   UNL     1      48.546   7.504  17.105  0.00  0.00    +0.000 A 
ATOM     23  C   UNL     1      48.856   8.809  16.769  0.00  0.00    +0.000 A 
ATOM     24  S   UNL     1      48.919   9.819  18.157  0.00  0.00    +0.000 S 
ATOM     25  C   UNL     1      48.398   8.552  19.173  0.00  0.00    +0.000 A 
ATOM     26  N   UNL     1      48.373   8.658  20.529  0.00  0.00    +0.000 NA
ATOM     27  C   UNL     1      47.904   7.614  21.132  0.00  0.00    +0.000 A 
ATOM     28  N   UNL     1      47.401   6.499  20.506  0.00  0.00    +0.000 N 
ATOM     29  C   UNL     1      47.389   6.356  19.140  0.00  0.00    +0.000 A 
ATOM     30  O   UNL     1      46.868   5.393  18.590  0.00  0.00    +0.000 OA
ATOM     31  C   UNL     1      48.037   7.443  18.441  0.00  0.00    +0.000 A 
ATOM     32  H   UNL     1      46.966   5.756  21.033  0.00  0.00    +0.000 HD
ENDBRANCH  19  22
ENDBRANCH   1  20
TORSDOF 7
ENDMDL
MODEL 7
REMARK VINA RESULT:    -7.366      3.418      8.647
REMARK INTER + INTRA:         -11.080
REMARK INTER:                  -9.707
REMARK INTRA:                  -1.374
REMARK UNBOUND:                -0.916
REMARK  Name = 
REMARK  7 active torsions:
REMARK  status: ('A' for Active; 'I' for Inactive)
REMARK    1  A    between atoms: C_2  and  C_20
REMARK    2  A    between atoms: N_3  and  C_4
REMARK    3  A    between atoms: C_4  and  C_5
REMARK    4  A    between atoms: C_8  and  C_9
REMARK    5  A    between atoms: C_9  and  C_10
REMARK    6  A    between atoms: C_10  and  O_11
REMARK    7  A    between atoms: C_10  and  C_12
REMARK                            x       y       z     vdW  Elec       q    Type
REMARK                         _______ _______ _______ _____ _____    ______ ____
ROOT
ATOM      1  C   UNL     1      46.713   8.389  12.922  0.00  0.00    +0.000 C 
ENDROOT
BRANCH   1   2
ATOM      2  C   UNL     1      47.654   7.920  14.003  0.00  0.00    +0.000 A 
ATOM      3  C   UNL     1      48.161   6.626  13.985  0.00  0.00    +0.000 A 
ATOM      4  N   UNL     1      49.045   6.166  14.906  0.00  0.00    +0.000 NA
ATOM      5  C   UNL     1      49.431   7.057  15.850  0.00  0.00    +0.000 A 
ATOM      6  C   UNL     1      48.950   8.365  15.848  0.00  0.00    +0.000 A 
ATOM      7  N   UNL     1      48.061   8.822  14.935  0.00  0.00    +0.000 NA
BRANCH   5   8
ATOM      8  C   UNL     1      50.415   6.590  16.892  0.00  0.00    +0.000 C 
BRANCH   8   9
ATOM      9  C   UNL     1      49.762   5.636  17.891  0.00  0.00    +0.000 C 
BRANCH   9  10
ATOM     10  C   UNL     1      50.324   4.236  17.684  0.00  0.00    +0.000 A 
ATOM     11  N   UNL     1      51.590   3.977  18.064  0.00  0.00    +0.000 NA
ATOM     12  C   UNL     1      52.034   2.722  17.856  0.00  0.00    +0.000 A 
ATOM     13  C   UNL     1      51.273   1.733  17.275  0.00  0.00    +0.000 A 
ATOM     14  C   UNL     1      49.997   2.095  16.917  0.00  0.00    +0.000 A 
ATOM     15  N   UNL     1      49.495   3.333  17.107  0.00  0.00    +0.000 NA
ENDBRANCH   9  10
BRANCH   9  16
ATOM     16  O   UNL     1      48.337   5.631  17.653  0.00  0.00    +0.000 OA
ATOM     17  H   UNL     1      48.234   5.375  16.715  0.00  0.00    +0.000 HD
ENDBRANCH   9  16
ENDBRANCH   8   9
ENDBRANCH   5   8
ENDBRANCH   1   2
BRANCH   1  20
ATOM     18  O   UNL     1      44.415   7.830  11.320  0.00  0.00    +0.000 OA
ATOM     19  C   UNL     1      45.414   7.120  11.250  0.00  0.00    +0.000 C 
ATOM     20  N   UNL     1      46.608   7.396  11.883  0.00  0.00    +0.000 N 
ATOM     21  H   UNL     1      47.284   6.648  11.962  0.00  0.00    +0.000 HD
BRANCH  19  22
ATOM     22  C   UNL     1      45.402   5.774  10.687  0.00  0.00    +0.000 A 
ATOM     23  C   UNL     1      45.740   5.510   9.372  0.00  0.00    +0.000 A 
ATOM     24  S   UNL     1      45.094   4.008   8.846  0.00  0.00    +0.000 S 
ATOM     25  C   UNL     1      44.492   3.656  10.402  0.00  0.00    +0.000 A 
ATOM     26  N   UNL     1      43.686   2.590  10.657  0.00  0.00    +0.000 NA
ATOM     27  C   UNL     1      43.366   2.455  11.903  0.00  0.00    +0.000 A 
ATOM     28  N   UNL     1      43.826   3.247  12.927  0.00  0.00    +0.000 N 
ATOM     29  C   UNL     1      44.656   4.322  12.719  0.00  0.00    +0.000 A 
ATOM     30  O   UNL     1      45.121   4.975  13.646  0.00  0.00    +0.000 OA
ATOM     31  C   UNL     1      44.917   4.588  11.323  0.00  0.00    +0.000 A 
ATOM     32  H   UNL     1      43.611   3.033  13.889  0.00  0.00    +0.000 HD
ENDBRANCH  19  22
ENDBRANCH   1  20
TORSDOF 7
ENDMDL
MODEL 8
REMARK VINA RESULT:    -7.231      1.894      3.506
REMARK INTER + INTRA:         -10.894
REMARK INTER:                  -9.665
REMARK INTRA:                  -1.229
REMARK UNBOUND:                -0.916
REMARK  Name = 
REMARK  7 active torsions:
REMARK  status: ('A' for Active; 'I' for Inactive)
REMARK    1  A    between atoms: C_2  and  C_20
REMARK    2  A    between atoms: N_3  and  C_4
REMARK    3  A    between atoms: C_4  and  C_5
REMARK    4  A    between atoms: C_8  and  C_9
REMARK    5  A    between atoms: C_9  and  C_10
REMARK    6  A    between atoms: C_10  and  O_11
REMARK    7  A    between atoms: C_10  and  C_12
REMARK                            x       y       z     vdW  Elec       q    Type
REMARK                         _______ _______ _______ _____ _____    ______ ____
ROOT
ATOM      1  C   UNL     1      48.336   8.884  13.840  0.00  0.00    +0.000 C 
ENDROOT
BRANCH   1   2
ATOM      2  C   UNL     1      47.289   8.163  13.027  0.00  0.00    +0.000 A 
ATOM      3  C   UNL     1      47.658   7.207  12.088  0.00  0.00    +0.000 A 
ATOM      4  N   UNL     1      46.758   6.497  11.363  0.00  0.00    +0.000 NA
ATOM      5  C   UNL     1      45.454   6.758  11.622  0.00  0.00    +0.000 A 
ATOM      6  C   UNL     1      45.083   7.691  12.589  0.00  0.00    +0.000 A 
ATOM      7  N   UNL     1      45.981   8.407  13.306  0.00  0.00    +0.000 NA
BRANCH   5   8
ATOM      8  C   UNL     1      44.419   5.990  10.842  0.00  0.00    +0.000 C 
BRANCH   8   9
ATOM      9  C   UNL     1      44.540   4.485  11.080  0.00  0.00    +0.000 C 
BRANCH   9  10
ATOM     10  C   UNL     1      45.087   3.823   9.824  0.00  0.00    +0.000 A 
ATOM     11  N   UNL     1      45.500   4.598   8.803  0.00  0.00    +0.000 NA
ATOM     12  C   UNL     1      45.974   3.958   7.717  0.00  0.00    +0.000 A 
ATOM     13  C   UNL     1      46.033   2.587   7.608  0.00  0.00    +0.000 A 
ATOM     14  C   UNL     1      45.582   1.883   8.698  0.00  0.00    +0.000 A 
ATOM     15  N   UNL     1      45.105   2.468   9.815  0.00  0.00    +0.000 NA
ENDBRANCH   9  10
BRANCH   9  16
ATOM     16  O   UNL     1      43.225   3.963  11.376  0.00  0.00    +0.000 OA
ATOM     17  H   UNL     1      42.801   4.640  11.940  0.00  0.00    +0.000 HD
ENDBRANCH   9  16
ENDBRANCH   8   9
ENDBRANCH   5   8
ENDBRANCH   1   2
BRANCH   1  20
ATOM     18  O   UNL     1      50.083   6.891  14.902  0.00  0.00    +0.000 OA
ATOM     19  C   UNL     1      49.156   7.331  15.574  0.00  0.00    +0.000 C 
ATOM     20  N   UNL     1      48.352   8.385  15.192  0.00  0.00    +0.000 N 
ATOM     21  H   UNL     1      47.482   8.519  15.688  0.00  0.00    +0.000 HD
BRANCH  19  22
ATOM     22  C   UNL     1      48.627   6.652  16.752  0.00  0.00    +0.000 A 
ATOM     23  C   UNL     1      48.765   7.158  18.032  0.00  0.00    +0.000 A 
ATOM     24  S   UNL     1      48.589   5.927  19.218  0.00  0.00    +0.000 S 
ATOM     25  C   UNL     1      48.193   4.764  18.035  0.00  0.00    +0.000 A 
ATOM     26  N   UNL     1      48.065   3.440  18.317  0.00  0.00    +0.000 NA
ATOM     27  C   UNL     1      47.715   2.715  17.305  0.00  0.00    +0.000 A 
ATOM     28  N   UNL     1      47.422   3.196  16.052  0.00  0.00    +0.000 N 
ATOM     29  C   UNL     1      47.520   4.527  15.726  0.00  0.00    +0.000 A 
ATOM     30  O   UNL     1      47.182   4.956  14.629  0.00  0.00    +0.000 OA
ATOM     31  C   UNL     1      48.046   5.346  16.794  0.00  0.00    +0.000 A 
ATOM     32  H   UNL     1      47.066   2.589  15.329  0.00  0.00    +0.000 HD
ENDBRANCH  19  22
ENDBRANCH   1  20
TORSDOF 7
ENDMDL
MODEL 9
REMARK VINA RESULT:    -6.458      2.747      4.195
REMARK INTER + INTRA:          -9.828
REMARK INTER:                  -8.460
REMARK INTRA:                  -1.368
REMARK UNBOUND:                -0.916
REMARK  Name = 
REMARK  7 active torsions:
REMARK  status: ('A' for Active; 'I' for Inactive)
REMARK    1  A    between atoms: C_2  and  C_20
REMARK    2  A    between atoms: N_3  and  C_4
REMARK    3  A    between atoms: C_4  and  C_5
REMARK    4  A    between atoms: C_8  and  C_9
REMARK    5  A    between atoms: C_9  and  C_10
REMARK    6  A    between atoms: C_10  and  O_11
REMARK    7  A    between atoms: C_10  and  C_12
REMARK                            x       y       z     vdW  Elec       q    Type
REMARK                         _______ _______ _______ _____ _____    ______ ____
ROOT
ATOM      1  C   UNL     1      49.921   8.722  14.890  0.00  0.00    +0.000 C 
ENDROOT
BRANCH   1   2
ATOM      2  C   UNL     1      48.865   8.267  13.913  0.00  0.00    +0.000 A 
ATOM      3  C   UNL     1      47.528   8.590  14.118  0.00  0.00    +0.000 A 
ATOM      4  N   UNL     1      46.544   8.246  13.250  0.00  0.00    +0.000 NA
ATOM      5  C   UNL     1      46.942   7.578  12.140  0.00  0.00    +0.000 A 
ATOM      6  C   UNL     1      48.287   7.286  11.917  0.00  0.00    +0.000 A 
ATOM      7  N   UNL     1      49.268   7.619  12.788  0.00  0.00    +0.000 NA
BRANCH   5   8
ATOM      8  C   UNL     1      45.882   7.178  11.146  0.00  0.00    +0.000 C 
BRANCH   8   9
ATOM      9  C   UNL     1      44.516   7.028  11.813  0.00  0.00    +0.000 C 
BRANCH   9  10
ATOM     10  C   UNL     1      44.129   5.556  11.835  0.00  0.00    +0.000 A 
ATOM     11  N   UNL     1      43.810   4.982  13.011  0.00  0.00    +0.000 NA
ATOM     12  C   UNL     1      43.477   3.677  12.971  0.00  0.00    +0.000 A 
ATOM     13  C   UNL     1      43.468   2.931  11.815  0.00  0.00    +0.000 A 
ATOM     14  C   UNL     1      43.815   3.603  10.668  0.00  0.00    +0.000 A 
ATOM     15  N   UNL     1      44.149   4.909  10.645  0.00  0.00    +0.000 NA
ENDBRANCH   9  10
BRANCH   9  16
ATOM     16  O   UNL     1      43.548   7.777  11.044  0.00  0.00    +0.000 OA
ATOM     17  H   UNL     1      44.076   8.379  10.483  0.00  0.00    +0.000 HD
ENDBRANCH   9  16
ENDBRANCH   8   9
ENDBRANCH   5   8
ENDBRANCH   1   2
BRANCH   1  20
ATOM     18  O   UNL     1      51.143   6.345  15.897  0.00  0.00    +0.000 OA
ATOM     19  C   UNL     1      50.249   6.902  16.526  0.00  0.00    +0.000 C 
ATOM     20  N   UNL     1      49.702   8.120  16.181  0.00  0.00    +0.000 N 
ATOM     21  H   UNL     1      48.825   8.382  16.610  0.00  0.00    +0.000 HD
BRANCH  19  22
ATOM     22  C   UNL     1      49.482   6.247  17.578  0.00  0.00    +0.000 A 
ATOM     23  C   UNL     1      49.660   6.528  18.921  0.00  0.00    +0.000 A 
ATOM     24  S   UNL     1      49.086   5.250  19.915  0.00  0.00    +0.000 S 
ATOM     25  C   UNL     1      48.479   4.399  18.568  0.00  0.00    +0.000 A 
ATOM     26  N   UNL     1      47.988   3.134  18.656  0.00  0.00    +0.000 NA
ATOM     27  C   UNL     1      47.528   2.666  17.541  0.00  0.00    +0.000 A 
ATOM     28  N   UNL     1      47.458   3.364  16.361  0.00  0.00    +0.000 N 
ATOM     29  C   UNL     1      47.925   4.649  16.229  0.00  0.00    +0.000 A 
ATOM     30  O   UNL     1      47.788   5.290  15.193  0.00  0.00    +0.000 OA
ATOM     31  C   UNL     1      48.575   5.152  17.418  0.00  0.00    +0.000 A 
ATOM     32  H   UNL     1      47.005   2.973  15.548  0.00  0.00    +0.000 HD
ENDBRANCH  19  22
ENDBRANCH   1  20
TORSDOF 7
ENDMDL
