MODEL 1
REMARK VINA RESULT:    -9.349      0.000      0.000
REMARK INTER + INTRA:         -12.614
REMARK INTER:                 -12.082
REMARK INTRA:                  -0.532
REMARK UNBOUND:                -0.532
REMARK  Name = 
REMARK  6 active torsions:
REMARK  status: ('A' for Active; 'I' for Inactive)
REMARK    1  A    between atoms: C_1  and  C_2
REMARK    2  A    between atoms: C_2  and  N_3
REMARK    3  A    between atoms: C_2  and  C_16
REMARK    4  A    between atoms: C_4  and  C_6
REMARK    5  A    between atoms: C_19  and  O_20
REMARK    6  A    between atoms: O_20  and  C_21
REMARK                            x       y       z     vdW  Elec       q    Type
REMARK                         _______ _______ _______ _____ _____    ______ ____
ROOT
ATOM      1  C   UNL     1      42.876   5.138  13.246  0.00  0.00    +0.000 C 
ATOM      2  C   UNL     1      44.226   4.470  12.964  0.00  0.00    +0.000 C 
ENDROOT
BRANCH   2   3
ATOM      3  C   UNL     1      44.549   4.325  11.485  0.00  0.00    +0.000 A 
ATOM      4  C   UNL     1      44.076   3.192  10.802  0.00  0.00    +0.000 A 
ATOM      5  C   UNL     1      44.309   3.028   9.434  0.00  0.00    +0.000 A 
ATOM      6  C   UNL     1      44.969   4.023   8.712  0.00  0.00    +0.000 A 
ATOM      7  C   UNL     1      45.495   5.121   9.389  0.00  0.00    +0.000 A 
ATOM      8  C   UNL     1      45.301   5.266  10.767  0.00  0.00    +0.000 A 
BRANCH   6   9
ATOM      9  O   UNL     1      45.203   3.978   7.355  0.00  0.00    +0.000 OA
BRANCH   9  10
ATOM     10  C   UNL     1      46.213   3.186   6.853  0.00  0.00    +0.000 A 
ATOM     11  C   UNL     1      46.896   3.435   5.666  0.00  0.00    +0.000 A 
ATOM     12  C   UNL     1      47.860   2.526   5.266  0.00  0.00    +0.000 A 
ATOM     13  N   UNL     1      48.218   1.444   5.989  0.00  0.00    +0.000 NA
ATOM     14  C   UNL     1      47.588   1.268   7.170  0.00  0.00    +0.000 A 
ATOM     15  C   UNL     1      46.588   2.102   7.641  0.00  0.00    +0.000 A 
ENDBRANCH   9  10
ENDBRANCH   6   9
ENDBRANCH   2   3
BRANCH   2  16
ATOM     16  N   UNL     1      45.301   5.156  13.656  0.00  0.00    +0.000 N 
ATOM     17  C   UNL     1      46.420   4.478  14.078  0.00  0.00    +0.000 C 
ATOM     18  O   UNL     1      46.581   3.283  13.841  0.00  0.00    +0.000 OA
ATOM     19  H   UNL     1      45.118   6.095  14.003  0.00  0.00    +0.000 HD
BRANCH  17  20
ATOM     20  C   UNL     1      47.453   5.249  14.778  0.00  0.00    +0.000 A 
ATOM     21  C   UNL     1      48.111   6.269  14.104  0.00  0.00    +0.000 A 
ATOM     22  S   UNL     1      49.311   7.043  15.034  0.00  0.00    +0.000 S 
ATOM     23  C   UNL     1      49.015   6.019  16.360  0.00  0.00    +0.000 A 
ATOM     24  N   UNL     1      49.757   6.118  17.497  0.00  0.00    +0.000 NA
ATOM     25  C   UNL     1      49.449   5.263  18.410  0.00  0.00    +0.000 A 
ATOM     26  N   UNL     1      48.453   4.324  18.298  0.00  0.00    +0.000 N 
ATOM     27  C   UNL     1      47.648   4.219  17.188  0.00  0.00    +0.000 A 
ATOM     28  O   UNL     1      46.707   3.428  17.149  0.00  0.00    +0.000 OA
ATOM     29  C   UNL     1      47.985   5.129  16.112  0.00  0.00    +0.000 A 
ATOM     30  H   UNL     1      48.243   3.703  19.064  0.00  0.00    +0.000 HD
ENDBRANCH  17  20
ENDBRANCH   2  16
TORSDOF 5
ENDMDL
MODEL 2
REMARK VINA RESULT:    -7.897      1.860      2.396
REMARK INTER + INTRA:         -10.738
REMARK INTER:                 -10.424
REMARK INTRA:                  -0.314
REMARK UNBOUND:                -0.532
REMARK  Name = 
REMARK  6 active torsions:
REMARK  status: ('A' for Active; 'I' for Inactive)
REMARK    1  A    between atoms: C_1  and  C_2
REMARK    2  A    between atoms: C_2  and  N_3
REMARK    3  A    between atoms: C_2  and  C_16
REMARK    4  A    between atoms: C_4  and  C_6
REMARK    5  A    between atoms: C_19  and  O_20
REMARK    6  A    between atoms: O_20  and  C_21
REMARK                            x       y       z     vdW  Elec       q    Type
REMARK                         _______ _______ _______ _____ _____    ______ ____
ROOT
ATOM      1  C   UNL     1      47.013   8.218  12.159  0.00  0.00    +0.000 C 
ATOM      2  C   UNL     1      45.953   7.173  12.525  0.00  0.00    +0.000 C 
ENDROOT
BRANCH   2   3
ATOM      3  C   UNL     1      45.665   6.170  11.420  0.00  0.00    +0.000 A 
ATOM      4  C   UNL     1      44.702   5.172  11.652  0.00  0.00    +0.000 A 
ATOM      5  C   UNL     1      44.369   4.250  10.657  0.00  0.00    +0.000 A 
ATOM      6  C   UNL     1      44.950   4.343   9.392  0.00  0.00    +0.000 A 
ATOM      7  C   UNL     1      45.950   5.288   9.170  0.00  0.00    +0.000 A 
ATOM      8  C   UNL     1      46.316   6.186  10.179  0.00  0.00    +0.000 A 
BRANCH   6   9
ATOM      9  O   UNL     1      44.652   3.514   8.333  0.00  0.00    +0.000 OA
BRANCH   9  10
ATOM     10  C   UNL     1      45.658   2.828   7.687  0.00  0.00    +0.000 A 
ATOM     11  C   UNL     1      46.346   3.300   6.572  0.00  0.00    +0.000 A 
ATOM     12  C   UNL     1      47.305   2.481   6.003  0.00  0.00    +0.000 A 
ATOM     13  N   UNL     1      47.654   1.276   6.500  0.00  0.00    +0.000 NA
ATOM     14  C   UNL     1      47.021   0.877   7.624  0.00  0.00    +0.000 A 
ATOM     15  C   UNL     1      46.025   1.609   8.248  0.00  0.00    +0.000 A 
ENDBRANCH   9  10
ENDBRANCH   6   9
ENDBRANCH   2   3
BRANCH   2  16
ATOM     16  N   UNL     1      46.299   6.491  13.758  0.00  0.00    +0.000 N 
ATOM     17  C   UNL     1      47.505   5.847  13.897  0.00  0.00    +0.000 C 
ATOM     18  O   UNL     1      48.357   5.867  13.012  0.00  0.00    +0.000 OA
ATOM     19  H   UNL     1      45.556   6.323  14.431  0.00  0.00    +0.000 HD
BRANCH  17  20
ATOM     20  C   UNL     1      47.768   5.176  15.175  0.00  0.00    +0.000 A 
ATOM     21  C   UNL     1      47.131   3.974  15.454  0.00  0.00    +0.000 A 
ATOM     22  S   UNL     1      47.504   3.340  16.991  0.00  0.00    +0.000 S 
ATOM     23  C   UNL     1      48.506   4.667  17.351  0.00  0.00    +0.000 A 
ATOM     24  N   UNL     1      49.113   4.774  18.564  0.00  0.00    +0.000 NA
ATOM     25  C   UNL     1      49.819   5.841  18.714  0.00  0.00    +0.000 A 
ATOM     26  N   UNL     1      49.987   6.810  17.755  0.00  0.00    +0.000 N 
ATOM     27  C   UNL     1      49.432   6.720  16.500  0.00  0.00    +0.000 A 
ATOM     28  O   UNL     1      49.670   7.557  15.630  0.00  0.00    +0.000 OA
ATOM     29  C   UNL     1      48.590   5.559  16.296  0.00  0.00    +0.000 A 
ATOM     30  H   UNL     1      50.577   7.608  17.927  0.00  0.00    +0.000 HD
ENDBRANCH  17  20
ENDBRANCH   2  16
TORSDOF 5
ENDMDL
MODEL 3
REMARK VINA RESULT:    -7.437      2.309      3.550
REMARK INTER + INTRA:         -10.143
REMARK INTER:                  -8.923
REMARK INTRA:                  -1.220
REMARK UNBOUND:                -0.532
REMARK  Name = 
REMARK  6 active torsions:
REMARK  status: ('A' for Active; 'I' for Inactive)
REMARK    1  A    between atoms: C_1  and  C_2
REMARK    2  A    between atoms: C_2  and  N_3
REMARK    3  A    between atoms: C_2  and  C_16
REMARK    4  A    between atoms: C_4  and  C_6
REMARK    5  A    between atoms: C_19  and  O_20
REMARK    6  A    between atoms: O_20  and  C_21
REMARK                            x       y       z     vdW  Elec       q    Type
REMARK                         _______ _______ _______ _____ _____    ______ ____
ROOT
ATOM      1  C   UNL     1      48.131   9.144  12.973  0.00  0.00    +0.000 C 
ATOM      2  C   UNL     1      47.351   8.089  13.765  0.00  0.00    +0.000 C 
ENDROOT
BRANCH   2   3
ATOM      3  C   UNL     1      46.462   7.203  12.906  0.00  0.00    +0.000 A 
ATOM      4  C   UNL     1      45.558   7.815  12.021  0.00  0.00    +0.000 A 
ATOM      5  C   UNL     1      44.746   7.049  11.180  0.00  0.00    +0.000 A 
ATOM      6  C   UNL     1      44.864   5.659  11.168  0.00  0.00    +0.000 A 
ATOM      7  C   UNL     1      45.712   5.038  12.085  0.00  0.00    +0.000 A 
ATOM      8  C   UNL     1      46.494   5.802  12.958  0.00  0.00    +0.000 A 
BRANCH   6   9
ATOM      9  O   UNL     1      44.146   4.821  10.343  0.00  0.00    +0.000 OA
BRANCH   9  10
ATOM     10  C   UNL     1      44.801   3.994   9.456  0.00  0.00    +0.000 A 
ATOM     11  C   UNL     1      45.619   4.436   8.421  0.00  0.00    +0.000 A 
ATOM     12  C   UNL     1      46.178   3.488   7.582  0.00  0.00    +0.000 A 
ATOM     13  N   UNL     1      46.024   2.157   7.744  0.00  0.00    +0.000 NA
ATOM     14  C   UNL     1      45.284   1.757   8.800  0.00  0.00    +0.000 A 
ATOM     15  C   UNL     1      44.657   2.628   9.675  0.00  0.00    +0.000 A 
ENDBRANCH   9  10
ENDBRANCH   6   9
ENDBRANCH   2   3
BRANCH   2  16
ATOM     16  N   UNL     1      48.243   7.283  14.577  0.00  0.00    +0.000 N 
ATOM     17  C   UNL     1      48.629   7.697  15.830  0.00  0.00    +0.000 C 
ATOM     18  O   UNL     1      48.197   8.732  16.332  0.00  0.00    +0.000 OA
ATOM     19  H   UNL     1      48.735   6.517  14.124  0.00  0.00    +0.000 HD
BRANCH  17  20
ATOM     20  C   UNL     1      49.540   6.824  16.579  0.00  0.00    +0.000 A 
ATOM     21  C   UNL     1      50.749   7.334  17.032  0.00  0.00    +0.000 A 
ATOM     22  S   UNL     1      51.714   6.190  17.846  0.00  0.00    +0.000 S 
ATOM     23  C   UNL     1      50.563   4.963  17.591  0.00  0.00    +0.000 A 
ATOM     24  N   UNL     1      50.799   3.688  18.007  0.00  0.00    +0.000 NA
ATOM     25  C   UNL     1      49.859   2.854  17.723  0.00  0.00    +0.000 A 
ATOM     26  N   UNL     1      48.693   3.179  17.074  0.00  0.00    +0.000 N 
ATOM     27  C   UNL     1      48.392   4.462  16.680  0.00  0.00    +0.000 A 
ATOM     28  O   UNL     1      47.304   4.742  16.179  0.00  0.00    +0.000 OA
ATOM     29  C   UNL     1      49.439   5.430  16.934  0.00  0.00    +0.000 A 
ATOM     30  H   UNL     1      47.984   2.482  16.909  0.00  0.00    +0.000 HD
ENDBRANCH  17  20
ENDBRANCH   2  16
TORSDOF 5
ENDMDL
MODEL 4
REMARK VINA RESULT:    -7.166      4.177      8.638
REMARK INTER + INTRA:          -9.793
REMARK INTER:                  -8.540
REMARK INTRA:                  -1.253
REMARK UNBOUND:                -0.532
REMARK  Name = 
REMARK  6 active torsions:
REMARK  status: ('A' for Active; 'I' for Inactive)
REMARK    1  A    between atoms: C_1  and  C_2
REMARK    2  A    between atoms: C_2  and  N_3
REMARK    3  A    between atoms: C_2  and  C_16
REMARK    4  A    between atoms: C_4  and  C_6
REMARK    5  A    between atoms: C_19  and  O_20
REMARK    6  A    between atoms: O_20  and  C_21
REMARK                            x       y       z     vdW  Elec       q    Type
REMARK                         _______ _______ _______ _____ _____    ______ ____
ROOT
ATOM      1  C   UNL     1      48.200   9.073  15.023  0.00  0.00    +0.000 C 
ATOM      2  C   UNL     1      48.434   7.647  14.514  0.00  0.00    +0.000 C 
ENDROOT
BRANCH   2   3
ATOM      3  C   UNL     1      49.046   6.714  15.546  0.00  0.00    +0.000 A 
ATOM      4  C   UNL     1      50.412   6.851  15.851  0.00  0.00    +0.000 A 
ATOM      5  C   UNL     1      51.016   6.047  16.821  0.00  0.00    +0.000 A 
ATOM      6  C   UNL     1      50.254   5.130  17.545  0.00  0.00    +0.000 A 
ATOM      7  C   UNL     1      48.914   4.942  17.210  0.00  0.00    +0.000 A 
ATOM      8  C   UNL     1      48.317   5.716  16.208  0.00  0.00    +0.000 A 
BRANCH   6   9
ATOM      9  O   UNL     1      50.746   4.329  18.552  0.00  0.00    +0.000 OA
BRANCH   9  10
ATOM     10  C   UNL     1      51.524   3.234  18.247  0.00  0.00    +0.000 A 
ATOM     11  C   UNL     1      51.095   2.145  17.493  0.00  0.00    +0.000 A 
ATOM     12  C   UNL     1      51.976   1.095  17.303  0.00  0.00    +0.000 A 
ATOM     13  N   UNL     1      53.248   1.091  17.756  0.00  0.00    +0.000 NA
ATOM     14  C   UNL     1      53.658   2.192  18.422  0.00  0.00    +0.000 A 
ATOM     15  C   UNL     1      52.842   3.277  18.691  0.00  0.00    +0.000 A 
ENDBRANCH   9  10
ENDBRANCH   6   9
ENDBRANCH   2   3
BRANCH   2  16
ATOM     16  N   UNL     1      47.212   7.080  13.974  0.00  0.00    +0.000 N 
ATOM     17  C   UNL     1      46.946   7.124  12.626  0.00  0.00    +0.000 C 
ATOM     18  O   UNL     1      47.748   7.592  11.822  0.00  0.00    +0.000 OA
ATOM     19  H   UNL     1      46.472   6.839  14.628  0.00  0.00    +0.000 HD
BRANCH  17  20
ATOM     20  C   UNL     1      45.683   6.534  12.168  0.00  0.00    +0.000 A 
ATOM     21  C   UNL     1      44.735   7.347  11.561  0.00  0.00    +0.000 A 
ATOM     22  S   UNL     1      43.307   6.527  11.124  0.00  0.00    +0.000 S 
ATOM     23  C   UNL     1      43.893   5.062  11.761  0.00  0.00    +0.000 A 
ATOM     24  N   UNL     1      43.122   3.940  11.754  0.00  0.00    +0.000 NA
ATOM     25  C   UNL     1      43.676   2.910  12.295  0.00  0.00    +0.000 A 
ATOM     26  N   UNL     1      44.941   2.893  12.830  0.00  0.00    +0.000 N 
ATOM     27  C   UNL     1      45.772   3.988  12.816  0.00  0.00    +0.000 A 
ATOM     28  O   UNL     1      46.931   3.921  13.223  0.00  0.00    +0.000 OA
ATOM     29  C   UNL     1      45.177   5.187  12.260  0.00  0.00    +0.000 A 
ATOM     30  H   UNL     1      45.326   2.044  13.213  0.00  0.00    +0.000 HD
ENDBRANCH  17  20
ENDBRANCH   2  16
TORSDOF 5
ENDMDL
MODEL 5
REMARK VINA RESULT:    -7.125      2.604      4.024
REMARK INTER + INTRA:          -9.740
REMARK INTER:                  -8.784
REMARK INTRA:                  -0.956
REMARK UNBOUND:                -0.532
REMARK  Name = 
REMARK  6 active torsions:
REMARK  status: ('A' for Active; 'I' for Inactive)
REMARK    1  A    between atoms: C_1  and  C_2
REMARK    2  A    between atoms: C_2  and  N_3
REMARK    3  A    between atoms: C_2  and  C_16
REMARK    4  A    between atoms: C_4  and  C_6
REMARK    5  A    between atoms: C_19  and  O_20
REMARK    6  A    between atoms: O_20  and  C_21
REMARK                            x       y       z     vdW  Elec       q    Type
REMARK                         _______ _______ _______ _____ _____    ______ ____
ROOT
ATOM      1  C   UNL     1      49.400   7.808  13.180  0.00  0.00    +0.000 C 
ATOM      2  C   UNL     1      47.974   7.892  13.735  0.00  0.00    +0.000 C 
ENDROOT
BRANCH   2   3
ATOM      3  C   UNL     1      46.959   7.065  12.963  0.00  0.00    +0.000 A 
ATOM      4  C   UNL     1      46.081   7.725  12.086  0.00  0.00    +0.000 A 
ATOM      5  C   UNL     1      45.156   7.009  11.321  0.00  0.00    +0.000 A 
ATOM      6  C   UNL     1      45.130   5.615  11.377  0.00  0.00    +0.000 A 
ATOM      7  C   UNL     1      45.953   4.954  12.288  0.00  0.00    +0.000 A 
ATOM      8  C   UNL     1      46.850   5.672  13.086  0.00  0.00    +0.000 A 
BRANCH   6   9
ATOM      9  O   UNL     1      44.291   4.819  10.628  0.00  0.00    +0.000 OA
BRANCH   9  10
ATOM     10  C   UNL     1      44.815   3.919   9.726  0.00  0.00    +0.000 A 
ATOM     11  C   UNL     1      44.633   2.540   9.790  0.00  0.00    +0.000 A 
ATOM     12  C   UNL     1      45.256   1.756   8.835  0.00  0.00    +0.000 A 
ATOM     13  N   UNL     1      45.980   2.253   7.811  0.00  0.00    +0.000 NA
ATOM     14  C   UNL     1      46.080   3.598   7.734  0.00  0.00    +0.000 A 
ATOM     15  C   UNL     1      45.521   4.464   8.659  0.00  0.00    +0.000 A 
ENDBRANCH   9  10
ENDBRANCH   6   9
ENDBRANCH   2   3
BRANCH   2  16
ATOM     16  N   UNL     1      47.943   7.553  15.145  0.00  0.00    +0.000 N 
ATOM     17  C   UNL     1      48.472   8.400  16.091  0.00  0.00    +0.000 C 
ATOM     18  O   UNL     1      48.939   9.495  15.790  0.00  0.00    +0.000 OA
ATOM     19  H   UNL     1      47.714   6.594  15.397  0.00  0.00    +0.000 HD
BRANCH  17  20
ATOM     20  C   UNL     1      48.405   7.972  17.492  0.00  0.00    +0.000 A 
ATOM     21  C   UNL     1      48.122   8.911  18.475  0.00  0.00    +0.000 A 
ATOM     22  S   UNL     1      48.122   8.272  20.055  0.00  0.00    +0.000 S 
ATOM     23  C   UNL     1      48.533   6.724  19.483  0.00  0.00    +0.000 A 
ATOM     24  N   UNL     1      48.742   5.694  20.348  0.00  0.00    +0.000 NA
ATOM     25  C   UNL     1      49.077   4.585  19.783  0.00  0.00    +0.000 A 
ATOM     26  N   UNL     1      49.208   4.404  18.428  0.00  0.00    +0.000 N 
ATOM     27  C   UNL     1      48.960   5.403  17.516  0.00  0.00    +0.000 A 
ATOM     28  O   UNL     1      49.000   5.192  16.305  0.00  0.00    +0.000 OA
ATOM     29  C   UNL     1      48.625   6.685  18.103  0.00  0.00    +0.000 A 
ATOM     30  H   UNL     1      49.445   3.501  18.049  0.00  0.00    +0.000 HD
ENDBRANCH  17  20
ENDBRANCH   2  16
TORSDOF 5
ENDMDL
MODEL 6
REMARK VINA RESULT:    -6.991      3.164      4.913
REMARK INTER + INTRA:          -9.566
REMARK INTER:                  -8.178
REMARK INTRA:                  -1.388
REMARK UNBOUND:                -0.532
REMARK  Name = 
REMARK  6 active torsions:
REMARK  status: ('A' for Active; 'I' for Inactive)
REMARK    1  A    between atoms: C_1  and  C_2
REMARK    2  A    between atoms: C_2  and  N_3
REMARK    3  A    between atoms: C_2  and  C_16
REMARK    4  A    between atoms: C_4  and  C_6
REMARK    5  A    between atoms: C_19  and  O_20
REMARK    6  A    between atoms: O_20  and  C_21
REMARK                            x       y       z     vdW  Elec       q    Type
REMARK                         _______ _______ _______ _____ _____    ______ ____
ROOT
ATOM      1  C   UNL     1      50.215   8.781  13.101  0.00  0.00    +0.000 C 
ATOM      2  C   UNL     1      48.926   8.670  13.922  0.00  0.00    +0.000 C 
ENDROOT
BRANCH   2   3
ATOM      3  C   UNL     1      47.727   8.177  13.127  0.00  0.00    +0.000 A 
ATOM      4  C   UNL     1      47.895   7.076  12.270  0.00  0.00    +0.000 A 
ATOM      5  C   UNL     1      46.817   6.556  11.547  0.00  0.00    +0.000 A 
ATOM      6  C   UNL     1      45.540   7.092  11.712  0.00  0.00    +0.000 A 
ATOM      7  C   UNL     1      45.373   8.222  12.511  0.00  0.00    +0.000 A 
ATOM      8  C   UNL     1      46.459   8.771  13.202  0.00  0.00    +0.000 A 
BRANCH   6   9
ATOM      9  O   UNL     1      44.408   6.621  11.084  0.00  0.00    +0.000 OA
BRANCH   9  10
ATOM     10  C   UNL     1      44.160   5.266  11.031  0.00  0.00    +0.000 A 
ATOM     11  C   UNL     1      44.446   4.452   9.939  0.00  0.00    +0.000 A 
ATOM     12  C   UNL     1      44.100   3.115  10.015  0.00  0.00    +0.000 A 
ATOM     13  N   UNL     1      43.556   2.540  11.108  0.00  0.00    +0.000 NA
ATOM     14  C   UNL     1      43.357   3.340  12.178  0.00  0.00    +0.000 A 
ATOM     15  C   UNL     1      43.638   4.696  12.188  0.00  0.00    +0.000 A 
ENDBRANCH   9  10
ENDBRANCH   6   9
ENDBRANCH   2   3
BRANCH   2  16
ATOM     16  N   UNL     1      49.129   7.851  15.102  0.00  0.00    +0.000 N 
ATOM     17  C   UNL     1      48.620   8.227  16.322  0.00  0.00    +0.000 C 
ATOM     18  O   UNL     1      47.932   9.235  16.454  0.00  0.00    +0.000 OA
ATOM     19  H   UNL     1      49.823   7.109  15.050  0.00  0.00    +0.000 HD
BRANCH  17  20
ATOM     20  C   UNL     1      48.880   7.343  17.463  0.00  0.00    +0.000 A 
ATOM     21  C   UNL     1      49.359   7.887  18.648  0.00  0.00    +0.000 A 
ATOM     22  S   UNL     1      49.653   6.731  19.865  0.00  0.00    +0.000 S 
ATOM     23  C   UNL     1      49.181   5.457  18.839  0.00  0.00    +0.000 A 
ATOM     24  N   UNL     1      49.246   4.164  19.258  0.00  0.00    +0.000 NA
ATOM     25  C   UNL     1      48.889   3.299  18.372  0.00  0.00    +0.000 A 
ATOM     26  N   UNL     1      48.456   3.609  17.106  0.00  0.00    +0.000 N 
ATOM     27  C   UNL     1      48.329   4.902  16.657  0.00  0.00    +0.000 A 
ATOM     28  O   UNL     1      47.856   5.155  15.550  0.00  0.00    +0.000 OA
ATOM     29  C   UNL     1      48.763   5.912  17.601  0.00  0.00    +0.000 A 
ATOM     30  H   UNL     1      48.162   2.884  16.471  0.00  0.00    +0.000 HD
ENDBRANCH  17  20
ENDBRANCH   2  16
TORSDOF 5
ENDMDL
MODEL 7
REMARK VINA RESULT:    -6.989      3.563      5.599
REMARK INTER + INTRA:          -9.565
REMARK INTER:                  -8.490
REMARK INTRA:                  -1.074
REMARK UNBOUND:                -0.532
REMARK  Name = 
REMARK  6 active torsions:
REMARK  status: ('A' for Active; 'I' for Inactive)
REMARK    1  A    between atoms: C_1  and  C_2
REMARK    2  A    between atoms: C_2  and  N_3
REMARK    3  A    between atoms: C_2  and  C_16
REMARK    4  A    between atoms: C_4  and  C_6
REMARK    5  A    between atoms: C_19  and  O_20
REMARK    6  A    between atoms: O_20  and  C_21
REMARK                            x       y       z     vdW  Elec       q    Type
REMARK                         _______ _______ _______ _____ _____    ______ ____
ROOT
ATOM      1  C   UNL     1      49.934   9.001  15.567  0.00  0.00    +0.000 C 
ATOM      2  C   UNL     1      49.271   7.626  15.707  0.00  0.00    +0.000 C 
ENDROOT
BRANCH   2   3
ATOM      3  C   UNL     1      48.560   7.150  14.450  0.00  0.00    +0.000 A 
ATOM      4  C   UNL     1      47.793   5.975  14.516  0.00  0.00    +0.000 A 
ATOM      5  C   UNL     1      47.086   5.515  13.402  0.00  0.00    +0.000 A 
ATOM      6  C   UNL     1      47.087   6.252  12.218  0.00  0.00    +0.000 A 
ATOM      7  C   UNL     1      47.893   7.386  12.121  0.00  0.00    +0.000 A 
ATOM      8  C   UNL     1      48.636   7.824  13.223  0.00  0.00    +0.000 A 
BRANCH   6   9
ATOM      9  O   UNL     1      46.385   5.909  11.083  0.00  0.00    +0.000 OA
BRANCH   9  10
ATOM     10  C   UNL     1      45.188   5.234  11.187  0.00  0.00    +0.000 A 
ATOM     11  C   UNL     1      45.048   3.854  11.083  0.00  0.00    +0.000 A 
ATOM     12  C   UNL     1      43.774   3.320  11.167  0.00  0.00    +0.000 A 
ATOM     13  N   UNL     1      42.666   4.053  11.404  0.00  0.00    +0.000 NA
ATOM     14  C   UNL     1      42.843   5.382  11.572  0.00  0.00    +0.000 A 
ATOM     15  C   UNL     1      44.071   6.013  11.473  0.00  0.00    +0.000 A 
ENDBRANCH   9  10
ENDBRANCH   6   9
ENDBRANCH   2   3
BRANCH   2  16
ATOM     16  N   UNL     1      50.225   6.632  16.161  0.00  0.00    +0.000 N 
ATOM     17  C   UNL     1      50.148   6.101  17.427  0.00  0.00    +0.000 C 
ATOM     18  O   UNL     1      49.244   6.403  18.202  0.00  0.00    +0.000 OA
ATOM     19  H   UNL     1      51.065   6.492  15.605  0.00  0.00    +0.000 HD
BRANCH  17  20
ATOM     20  C   UNL     1      51.159   5.108  17.806  0.00  0.00    +0.000 A 
ATOM     21  C   UNL     1      52.350   5.536  18.377  0.00  0.00    +0.000 A 
ATOM     22  S   UNL     1      53.439   4.272  18.722  0.00  0.00    +0.000 S 
ATOM     23  C   UNL     1      52.369   3.110  18.088  0.00  0.00    +0.000 A 
ATOM     24  N   UNL     1      52.721   1.796  18.032  0.00  0.00    +0.000 NA
ATOM     25  C   UNL     1      51.831   1.030  17.502  0.00  0.00    +0.000 A 
ATOM     26  N   UNL     1      50.610   1.454  17.035  0.00  0.00    +0.000 N 
ATOM     27  C   UNL     1      50.195   2.763  17.114  0.00  0.00    +0.000 A 
ATOM     28  O   UNL     1      49.064   3.101  16.769  0.00  0.00    +0.000 OA
ATOM     29  C   UNL     1      51.180   3.674  17.661  0.00  0.00    +0.000 A 
ATOM     30  H   UNL     1      49.947   0.796  16.657  0.00  0.00    +0.000 HD
ENDBRANCH  17  20
ENDBRANCH   2  16
TORSDOF 5
ENDMDL
MODEL 8
REMARK VINA RESULT:    -6.940      3.026      4.142
REMARK INTER + INTRA:          -9.501
REMARK INTER:                  -8.323
REMARK INTRA:                  -1.178
REMARK UNBOUND:                -0.532
REMARK  Name = 
REMARK  6 active torsions:
REMARK  status: ('A' for Active; 'I' for Inactive)
REMARK    1  A    between atoms: C_1  and  C_2
REMARK    2  A    between atoms: C_2  and  N_3
REMARK    3  A    between atoms: C_2  and  C_16
REMARK    4  A    between atoms: C_4  and  C_6
REMARK    5  A    between atoms: C_19  and  O_20
REMARK    6  A    between atoms: O_20  and  C_21
REMARK                            x       y       z     vdW  Elec       q    Type
REMARK                         _______ _______ _______ _____ _____    ______ ____
ROOT
ATOM      1  C   UNL     1      47.572   4.207  16.379  0.00  0.00    +0.000 C 
ATOM      2  C   UNL     1      47.868   5.070  15.148  0.00  0.00    +0.000 C 
ENDROOT
BRANCH   2   3
ATOM      3  C   UNL     1      46.950   4.799  13.967  0.00  0.00    +0.000 A 
ATOM      4  C   UNL     1      46.520   5.886  13.186  0.00  0.00    +0.000 A 
ATOM      5  C   UNL     1      45.708   5.690  12.066  0.00  0.00    +0.000 A 
ATOM      6  C   UNL     1      45.358   4.399  11.672  0.00  0.00    +0.000 A 
ATOM      7  C   UNL     1      45.726   3.318  12.472  0.00  0.00    +0.000 A 
ATOM      8  C   UNL     1      46.503   3.516  13.619  0.00  0.00    +0.000 A 
BRANCH   6   9
ATOM      9  O   UNL     1      44.605   4.100  10.558  0.00  0.00    +0.000 OA
BRANCH   9  10
ATOM     10  C   UNL     1      45.195   3.511   9.461  0.00  0.00    +0.000 A 
ATOM     11  C   UNL     1      45.227   2.140   9.221  0.00  0.00    +0.000 A 
ATOM     12  C   UNL     1      45.895   1.691   8.095  0.00  0.00    +0.000 A 
ATOM     13  N   UNL     1      46.466   2.507   7.185  0.00  0.00    +0.000 NA
ATOM     14  C   UNL     1      46.357   3.835   7.408  0.00  0.00    +0.000 A 
ATOM     15  C   UNL     1      45.738   4.380   8.520  0.00  0.00    +0.000 A 
ENDBRANCH   9  10
ENDBRANCH   6   9
ENDBRANCH   2   3
BRANCH   2  16
ATOM     16  N   UNL     1      47.863   6.480  15.487  0.00  0.00    +0.000 N 
ATOM     17  C   UNL     1      49.037   7.185  15.609  0.00  0.00    +0.000 C 
ATOM     18  O   UNL     1      50.129   6.668  15.387  0.00  0.00    +0.000 OA
ATOM     19  H   UNL     1      46.994   6.882  15.831  0.00  0.00    +0.000 HD
BRANCH  17  20
ATOM     20  C   UNL     1      48.939   8.605  15.963  0.00  0.00    +0.000 A 
ATOM     21  C   UNL     1      49.407   9.560  15.071  0.00  0.00    +0.000 A 
ATOM     22  S   UNL     1      49.263  11.160  15.640  0.00  0.00    +0.000 S 
ATOM     23  C   UNL     1      48.600  10.629  17.115  0.00  0.00    +0.000 A 
ATOM     24  N   UNL     1      48.289  11.516  18.099  0.00  0.00    +0.000 NA
ATOM     25  C   UNL     1      47.823  10.977  19.173  0.00  0.00    +0.000 A 
ATOM     26  N   UNL     1      47.624   9.630  19.350  0.00  0.00    +0.000 N 
ATOM     27  C   UNL     1      47.879   8.703  18.366  0.00  0.00    +0.000 A 
ATOM     28  O   UNL     1      47.610   7.513  18.519  0.00  0.00    +0.000 OA
ATOM     29  C   UNL     1      48.449   9.254  17.154  0.00  0.00    +0.000 A 
ATOM     30  H   UNL     1      47.228   9.276  20.206  0.00  0.00    +0.000 HD
ENDBRANCH  17  20
ENDBRANCH   2  16
TORSDOF 5
ENDMDL
MODEL 9
REMARK VINA RESULT:    -6.782      4.292      6.069
REMARK INTER + INTRA:          -9.297
REMARK INTER:                  -8.465
REMARK INTRA:                  -0.832
REMARK UNBOUND:                -0.532
REMARK  Name = 
REMARK  6 active torsions:
REMARK  status: ('A' for Active; 'I' for Inactive)
REMARK    1  A    between atoms: C_1  and  C_2
REMARK    2  A    between atoms: C_2  and  N_3
REMARK    3  A    between atoms: C_2  and  C_16
REMARK    4  A    between atoms: C_4  and  C_6
REMARK    5  A    between atoms: C_19  and  O_20
REMARK    6  A    between atoms: O_20  and  C_21
REMARK                            x       y       z     vdW  Elec       q    Type
REMARK                         _______ _______ _______ _____ _____    ______ ____
ROOT
ATOM      1  C   UNL     1      44.683   4.257  13.114  0.00  0.00    +0.000 C 
ATOM      2  C   UNL     1      45.914   5.169  13.154  0.00  0.00    +0.000 C 
ENDROOT
BRANCH   2   3
ATOM      3  C   UNL     1      45.644   6.595  12.701  0.00  0.00    +0.000 A 
ATOM      4  C   UNL     1      46.415   7.633  13.252  0.00  0.00    +0.000 A 
ATOM      5  C   UNL     1      46.237   8.957  12.842  0.00  0.00    +0.000 A 
ATOM      6  C   UNL     1      45.324   9.260  11.832  0.00  0.00    +0.000 A 
ATOM      7  C   UNL     1      44.510   8.249  11.322  0.00  0.00    +0.000 A 
ATOM      8  C   UNL     1      44.657   6.929  11.763  0.00  0.00    +0.000 A 
BRANCH   6   9
ATOM      9  O   UNL     1      45.111  10.523  11.325  0.00  0.00    +0.000 OA
BRANCH   9  10
ATOM     10  C   UNL     1      43.890  10.852  10.778  0.00  0.00    +0.000 A 
ATOM     11  C   UNL     1      42.749  11.156  11.516  0.00  0.00    +0.000 A 
ATOM     12  C   UNL     1      41.580  11.427  10.827  0.00  0.00    +0.000 A 
ATOM     13  N   UNL     1      41.495  11.473   9.481  0.00  0.00    +0.000 NA
ATOM     14  C   UNL     1      42.635  11.244   8.793  0.00  0.00    +0.000 A 
ATOM     15  C   UNL     1      43.845  10.933   9.390  0.00  0.00    +0.000 A 
ENDBRANCH   9  10
ENDBRANCH   6   9
ENDBRANCH   2   3
BRANCH   2  16
ATOM     16  N   UNL     1      46.527   5.158  14.469  0.00  0.00    +0.000 N 
ATOM     17  C   UNL     1      47.238   4.067  14.911  0.00  0.00    +0.000 C 
ATOM     18  O   UNL     1      47.430   3.086  14.197  0.00  0.00    +0.000 OA
ATOM     19  H   UNL     1      46.247   5.880  15.129  0.00  0.00    +0.000 HD
BRANCH  17  20
ATOM     20  C   UNL     1      47.817   4.139  16.257  0.00  0.00    +0.000 A 
ATOM     21  C   UNL     1      47.460   3.185  17.200  0.00  0.00    +0.000 A 
ATOM     22  S   UNL     1      48.180   3.426  18.726  0.00  0.00    +0.000 S 
ATOM     23  C   UNL     1      48.968   4.834  18.187  0.00  0.00    +0.000 A 
ATOM     24  N   UNL     1      49.729   5.576  19.038  0.00  0.00    +0.000 NA
ATOM     25  C   UNL     1      50.244   6.632  18.509  0.00  0.00    +0.000 A 
ATOM     26  N   UNL     1      50.080   7.010  17.198  0.00  0.00    +0.000 N 
ATOM     27  C   UNL     1      49.360   6.267  16.293  0.00  0.00    +0.000 A 
ATOM     28  O   UNL     1      49.301   6.581  15.105  0.00  0.00    +0.000 OA
ATOM     29  C   UNL     1      48.721   5.092  16.851  0.00  0.00    +0.000 A 
ATOM     30  H   UNL     1      50.535   7.834  16.840  0.00  0.00    +0.000 HD
ENDBRANCH  17  20
ENDBRANCH   2  16
TORSDOF 5
ENDMDL
