MODEL 1
REMARK VINA RESULT:    -7.716      0.000      0.000
REMARK INTER + INTRA:         -12.478
REMARK INTER:                 -11.325
REMARK INTRA:                  -1.153
REMARK UNBOUND:                -1.153
REMARK  Name = 
REMARK  9 active torsions:
REMARK  status: ('A' for Active; 'I' for Inactive)
REMARK    1  A    between atoms: C_1  and  O_2
REMARK    2  A    between atoms: O_2  and  C_3
REMARK    3  A    between atoms: C_10  and  C_11
REMARK    4  A    between atoms: N_13  and  C_14
REMARK    5  A    between atoms: C_14  and  C_15
REMARK    6  A    between atoms: C_18  and  C_19
REMARK    7  A    between atoms: C_19  and  O_20
REMARK    8  A    between atoms: O_20  and  C_21
REMARK    9  A    between atoms: C_21  and  C_22
REMARK                            x       y       z     vdW  Elec       q    Type
REMARK                         _______ _______ _______ _____ _____    ______ ____
ROOT
ATOM      1  C   UNL     1      47.657   7.324  13.099  0.00  0.00    +0.000 C 
ENDROOT
BRANCH   1   2
ATOM      2  C   UNL     1      46.614   6.353  12.607  0.00  0.00    +0.000 A 
ATOM      3  C   UNL     1      46.002   6.529  11.358  0.00  0.00    +0.000 A 
ATOM      4  C   UNL     1      45.019   5.638  10.916  0.00  0.00    +0.000 A 
ATOM      5  C   UNL     1      44.618   4.558  11.716  0.00  0.00    +0.000 A 
ATOM      6  C   UNL     1      45.220   4.392  12.969  0.00  0.00    +0.000 A 
ATOM      7  C   UNL     1      46.205   5.282  13.411  0.00  0.00    +0.000 A 
BRANCH   5   8
ATOM      8  C   UNL     1      43.545   3.608  11.243  0.00  0.00    +0.000 C 
BRANCH   8   9
ATOM      9  O   UNL     1      43.753   3.322   9.862  0.00  0.00    +0.000 OA
BRANCH   9  10
ATOM     10  C   UNL     1      44.554   2.152   9.680  0.00  0.00    +0.000 C 
BRANCH  10  11
ATOM     11  C   UNL     1      45.536   2.340   8.553  0.00  0.00    +0.000 A 
ATOM     12  C   UNL     1      45.685   3.575   7.926  0.00  0.00    +0.000 A 
ATOM     13  N   UNL     1      46.582   3.799   6.934  0.00  0.00    +0.000 NA
ATOM     14  C   UNL     1      47.335   2.733   6.588  0.00  0.00    +0.000 A 
ATOM     15  C   UNL     1      47.208   1.505   7.210  0.00  0.00    +0.000 A 
ATOM     16  N   UNL     1      46.318   1.281   8.205  0.00  0.00    +0.000 NA
ENDBRANCH  10  11
ENDBRANCH   9  10
ENDBRANCH   8   9
ENDBRANCH   5   8
ENDBRANCH   1   2
BRANCH   1  19
ATOM     17  C   UNL     1      48.785   7.020  15.263  0.00  0.00    +0.000 C 
ATOM     18  O   UNL     1      49.812   6.639  14.705  0.00  0.00    +0.000 OA
ATOM     19  N   UNL     1      47.678   7.371  14.539  0.00  0.00    +0.000 N 
ATOM     20  H   UNL     1      46.823   7.633  15.013  0.00  0.00    +0.000 HD
BRANCH  17  28
ATOM     21  C   UNL     1      48.850   4.691  17.802  0.00  0.00    +0.000 A 
ATOM     22  N   UNL     1      48.849   4.012  18.967  0.00  0.00    +0.000 NA
ATOM     23  C   UNL     1      48.719   4.708  20.099  0.00  0.00    +0.000 A 
ATOM     24  N   UNL     1      48.588   6.025  20.218  0.00  0.00    +0.000 NA
ATOM     25  C   UNL     1      48.601   6.664  19.035  0.00  0.00    +0.000 A 
ATOM     26  S   UNL     1      48.441   8.354  18.997  0.00  0.00    +0.000 S 
ATOM     27  C   UNL     1      48.543   8.374  17.301  0.00  0.00    +0.000 A 
ATOM     28  C   UNL     1      48.700   7.115  16.730  0.00  0.00    +0.000 A 
ATOM     29  C   UNL     1      48.734   6.092  17.774  0.00  0.00    +0.000 A 
BRANCH  21  31
ATOM     30  C   UNL     1      47.844   3.265  16.246  0.00  0.00    +0.000 C 
ATOM     31  O   UNL     1      49.018   3.975  16.635  0.00  0.00    +0.000 OA
ENDBRANCH  21  31
ENDBRANCH  17  28
ENDBRANCH   1  19
TORSDOF 8
ENDMDL
MODEL 2
REMARK VINA RESULT:    -7.266      2.354      3.010
REMARK INTER + INTRA:         -11.818
REMARK INTER:                 -10.784
REMARK INTRA:                  -1.034
REMARK UNBOUND:                -1.153
REMARK  Name = 
REMARK  9 active torsions:
REMARK  status: ('A' for Active; 'I' for Inactive)
REMARK    1  A    between atoms: C_1  and  O_2
REMARK    2  A    between atoms: O_2  and  C_3
REMARK    3  A    between atoms: C_10  and  C_11
REMARK    4  A    between atoms: N_13  and  C_14
REMARK    5  A    between atoms: C_14  and  C_15
REMARK    6  A    between atoms: C_18  and  C_19
REMARK    7  A    between atoms: C_19  and  O_20
REMARK    8  A    between atoms: O_20  and  C_21
REMARK    9  A    between atoms: C_21  and  C_22
REMARK                            x       y       z     vdW  Elec       q    Type
REMARK                         _______ _______ _______ _____ _____    ______ ____
ROOT
ATOM      1  C   UNL     1      48.844   7.350  15.009  0.00  0.00    +0.000 C 
ENDROOT
BRANCH   1   2
ATOM      2  C   UNL     1      47.903   6.585  14.114  0.00  0.00    +0.000 A 
ATOM      3  C   UNL     1      47.553   7.079  12.851  0.00  0.00    +0.000 A 
ATOM      4  C   UNL     1      46.660   6.377  12.034  0.00  0.00    +0.000 A 
ATOM      5  C   UNL     1      46.091   5.170  12.466  0.00  0.00    +0.000 A 
ATOM      6  C   UNL     1      46.431   4.685  13.735  0.00  0.00    +0.000 A 
ATOM      7  C   UNL     1      47.324   5.386  14.552  0.00  0.00    +0.000 A 
BRANCH   5   8
ATOM      8  C   UNL     1      45.117   4.423  11.589  0.00  0.00    +0.000 C 
BRANCH   8   9
ATOM      9  O   UNL     1      45.237   4.896  10.251  0.00  0.00    +0.000 OA
BRANCH   9  10
ATOM     10  C   UNL     1      44.551   4.048   9.327  0.00  0.00    +0.000 C 
BRANCH  10  11
ATOM     11  C   UNL     1      45.523   3.211   8.535  0.00  0.00    +0.000 A 
ATOM     12  C   UNL     1      45.611   1.835   8.729  0.00  0.00    +0.000 A 
ATOM     13  N   UNL     1      46.443   1.038   8.015  0.00  0.00    +0.000 NA
ATOM     14  C   UNL     1      47.191   1.672   7.087  0.00  0.00    +0.000 A 
ATOM     15  C   UNL     1      47.104   3.036   6.873  0.00  0.00    +0.000 A 
ATOM     16  N   UNL     1      46.269   3.833   7.581  0.00  0.00    +0.000 NA
ENDBRANCH  10  11
ENDBRANCH   9  10
ENDBRANCH   8   9
ENDBRANCH   5   8
ENDBRANCH   1   2
BRANCH   1  19
ATOM     17  C   UNL     1      49.824   6.081  16.873  0.00  0.00    +0.000 C 
ATOM     18  O   UNL     1      48.939   6.462  17.635  0.00  0.00    +0.000 OA
ATOM     19  N   UNL     1      49.849   6.479  15.564  0.00  0.00    +0.000 N 
ATOM     20  H   UNL     1      50.613   6.199  14.962  0.00  0.00    +0.000 HD
BRANCH  17  28
ATOM     21  C   UNL     1      50.169   2.653  16.961  0.00  0.00    +0.000 A 
ATOM     22  N   UNL     1      50.564   1.372  17.110  0.00  0.00    +0.000 NA
ATOM     23  C   UNL     1      51.762   1.143  17.653  0.00  0.00    +0.000 A 
ATOM     24  N   UNL     1      52.637   2.052  18.074  0.00  0.00    +0.000 NA
ATOM     25  C   UNL     1      52.209   3.314  17.901  0.00  0.00    +0.000 A 
ATOM     26  S   UNL     1      53.198   4.606  18.386  0.00  0.00    +0.000 S 
ATOM     27  C   UNL     1      52.043   5.744  17.878  0.00  0.00    +0.000 A 
ATOM     28  C   UNL     1      50.895   5.180  17.333  0.00  0.00    +0.000 A 
ATOM     29  C   UNL     1      50.998   3.721  17.349  0.00  0.00    +0.000 A 
BRANCH  21  31
ATOM     30  C   UNL     1      47.867   2.877  17.303  0.00  0.00    +0.000 C 
ATOM     31  O   UNL     1      48.946   2.889  16.370  0.00  0.00    +0.000 OA
ENDBRANCH  21  31
ENDBRANCH  17  28
ENDBRANCH   1  19
TORSDOF 8
ENDMDL
MODEL 3
REMARK VINA RESULT:    -7.153      1.639      2.828
REMARK INTER + INTRA:         -11.651
REMARK INTER:                 -10.540
REMARK INTRA:                  -1.111
REMARK UNBOUND:                -1.153
REMARK  Name = 
REMARK  9 active torsions:
REMARK  status: ('A' for Active; 'I' for Inactive)
REMARK    1  A    between atoms: C_1  and  O_2
REMARK    2  A    between atoms: O_2  and  C_3
REMARK    3  A    between atoms: C_10  and  C_11
REMARK    4  A    between atoms: N_13  and  C_14
REMARK    5  A    between atoms: C_14  and  C_15
REMARK    6  A    between atoms: C_18  and  C_19
REMARK    7  A    between atoms: C_19  and  O_20
REMARK    8  A    between atoms: O_20  and  C_21
REMARK    9  A    between atoms: C_21  and  C_22
REMARK                            x       y       z     vdW  Elec       q    Type
REMARK                         _______ _______ _______ _____ _____    ______ ____
ROOT
ATOM      1  C   UNL     1      48.462   6.894  13.982  0.00  0.00    +0.000 C 
ENDROOT
BRANCH   1   2
ATOM      2  C   UNL     1      47.402   6.187  13.177  0.00  0.00    +0.000 A 
ATOM      3  C   UNL     1      46.828   4.994  13.638  0.00  0.00    +0.000 A 
ATOM      4  C   UNL     1      45.861   4.330  12.877  0.00  0.00    +0.000 A 
ATOM      5  C   UNL     1      45.455   4.836  11.633  0.00  0.00    +0.000 A 
ATOM      6  C   UNL     1      46.040   6.020  11.168  0.00  0.00    +0.000 A 
ATOM      7  C   UNL     1      47.006   6.686  11.930  0.00  0.00    +0.000 A 
BRANCH   5   8
ATOM      8  C   UNL     1      44.424   4.108  10.807  0.00  0.00    +0.000 C 
BRANCH   8   9
ATOM      9  O   UNL     1      44.920   2.814  10.476  0.00  0.00    +0.000 OA
BRANCH   9  10
ATOM     10  C   UNL     1      44.545   2.426   9.153  0.00  0.00    +0.000 C 
BRANCH  10  11
ATOM     11  C   UNL     1      45.752   2.333   8.255  0.00  0.00    +0.000 A 
ATOM     12  C   UNL     1      46.405   1.120   8.051  0.00  0.00    +0.000 A 
ATOM     13  N   UNL     1      47.470   0.981   7.224  0.00  0.00    +0.000 NA
ATOM     14  C   UNL     1      47.863   2.111   6.598  0.00  0.00    +0.000 A 
ATOM     15  C   UNL     1      47.215   3.320   6.778  0.00  0.00    +0.000 A 
ATOM     16  N   UNL     1      46.147   3.459   7.599  0.00  0.00    +0.000 NA
ENDBRANCH  10  11
ENDBRANCH   9  10
ENDBRANCH   8   9
ENDBRANCH   5   8
ENDBRANCH   1   2
BRANCH   1  19
ATOM     17  C   UNL     1      49.211   6.439  16.280  0.00  0.00    +0.000 C 
ATOM     18  O   UNL     1      50.365   6.256  15.898  0.00  0.00    +0.000 OA
ATOM     19  N   UNL     1      48.216   6.753  15.395  0.00  0.00    +0.000 N 
ATOM     20  H   UNL     1      47.261   6.850  15.717  0.00  0.00    +0.000 HD
BRANCH  17  28
ATOM     21  C   UNL     1      47.801   8.620  18.546  0.00  0.00    +0.000 A 
ATOM     22  N   UNL     1      47.275   9.250  19.616  0.00  0.00    +0.000 NA
ATOM     23  C   UNL     1      47.203   8.578  20.767  0.00  0.00    +0.000 A 
ATOM     24  N   UNL     1      47.598   7.328  20.990  0.00  0.00    +0.000 NA
ATOM     25  C   UNL     1      48.108   6.735  19.898  0.00  0.00    +0.000 A 
ATOM     26  S   UNL     1      48.667   5.135  20.001  0.00  0.00    +0.000 S 
ATOM     27  C   UNL     1      49.112   5.134  18.361  0.00  0.00    +0.000 A 
ATOM     28  C   UNL     1      48.850   6.331  17.704  0.00  0.00    +0.000 A 
ATOM     29  C   UNL     1      48.248   7.289  18.630  0.00  0.00    +0.000 A 
BRANCH  21  31
ATOM     30  C   UNL     1      48.941  10.212  17.267  0.00  0.00    +0.000 C 
ATOM     31  O   UNL     1      47.845   9.303  17.349  0.00  0.00    +0.000 OA
ENDBRANCH  21  31
ENDBRANCH  17  28
ENDBRANCH   1  19
TORSDOF 8
ENDMDL
MODEL 4
REMARK VINA RESULT:    -7.044      1.750      2.069
REMARK INTER + INTRA:         -11.492
REMARK INTER:                 -10.583
REMARK INTRA:                  -0.909
REMARK UNBOUND:                -1.153
REMARK  Name = 
REMARK  9 active torsions:
REMARK  status: ('A' for Active; 'I' for Inactive)
REMARK    1  A    between atoms: C_1  and  O_2
REMARK    2  A    between atoms: O_2  and  C_3
REMARK    3  A    between atoms: C_10  and  C_11
REMARK    4  A    between atoms: N_13  and  C_14
REMARK    5  A    between atoms: C_14  and  C_15
REMARK    6  A    between atoms: C_18  and  C_19
REMARK    7  A    between atoms: C_19  and  O_20
REMARK    8  A    between atoms: O_20  and  C_21
REMARK    9  A    between atoms: C_21  and  C_22
REMARK                            x       y       z     vdW  Elec       q    Type
REMARK                         _______ _______ _______ _____ _____    ______ ____
ROOT
ATOM      1  C   UNL     1      46.925   7.747  13.551  0.00  0.00    +0.000 C 
ENDROOT
BRANCH   1   2
ATOM      2  C   UNL     1      46.231   6.722  12.690  0.00  0.00    +0.000 A 
ATOM      3  C   UNL     1      46.468   6.666  11.309  0.00  0.00    +0.000 A 
ATOM      4  C   UNL     1      45.804   5.729  10.511  0.00  0.00    +0.000 A 
ATOM      5  C   UNL     1      44.882   4.834  11.072  0.00  0.00    +0.000 A 
ATOM      6  C   UNL     1      44.636   4.901  12.450  0.00  0.00    +0.000 A 
ATOM      7  C   UNL     1      45.300   5.837  13.249  0.00  0.00    +0.000 A 
BRANCH   5   8
ATOM      8  C   UNL     1      44.156   3.835  10.206  0.00  0.00    +0.000 C 
BRANCH   8   9
ATOM      9  O   UNL     1      44.867   2.600  10.223  0.00  0.00    +0.000 OA
BRANCH   9  10
ATOM     10  C   UNL     1      44.699   1.876   9.003  0.00  0.00    +0.000 C 
BRANCH  10  11
ATOM     11  C   UNL     1      45.888   2.062   8.096  0.00  0.00    +0.000 A 
ATOM     12  C   UNL     1      46.741   1.002   7.800  0.00  0.00    +0.000 A 
ATOM     13  N   UNL     1      47.800   1.114   6.961  0.00  0.00    +0.000 NA
ATOM     14  C   UNL     1      47.977   2.338   6.419  0.00  0.00    +0.000 A 
ATOM     15  C   UNL     1      47.130   3.397   6.691  0.00  0.00    +0.000 A 
ATOM     16  N   UNL     1      46.068   3.285   7.524  0.00  0.00    +0.000 NA
ENDBRANCH  10  11
ENDBRANCH   9  10
ENDBRANCH   8   9
ENDBRANCH   5   8
ENDBRANCH   1   2
BRANCH   1  19
ATOM     17  C   UNL     1      48.687   7.781  15.265  0.00  0.00    +0.000 C 
ATOM     18  O   UNL     1      48.272   8.849  15.712  0.00  0.00    +0.000 OA
ATOM     19  N   UNL     1      48.080   7.177  14.198  0.00  0.00    +0.000 N 
ATOM     20  H   UNL     1      48.464   6.326  13.810  0.00  0.00    +0.000 HD
BRANCH  17  28
ATOM     21  C   UNL     1      49.071   4.931  17.164  0.00  0.00    +0.000 A 
ATOM     22  N   UNL     1      49.503   3.885  17.897  0.00  0.00    +0.000 NA
ATOM     23  C   UNL     1      50.812   3.791  18.147  0.00  0.00    +0.000 A 
ATOM     24  N   UNL     1      51.765   4.627  17.748  0.00  0.00    +0.000 NA
ATOM     25  C   UNL     1      51.294   5.650  17.014  0.00  0.00    +0.000 A 
ATOM     26  S   UNL     1      52.373   6.820  16.422  0.00  0.00    +0.000 S 
ATOM     27  C   UNL     1      51.109   7.679  15.679  0.00  0.00    +0.000 A 
ATOM     28  C   UNL     1      49.855   7.106  15.858  0.00  0.00    +0.000 A 
ATOM     29  C   UNL     1      49.970   5.889  16.661  0.00  0.00    +0.000 A 
BRANCH  21  31
ATOM     30  C   UNL     1      47.322   4.114  15.845  0.00  0.00    +0.000 C 
ATOM     31  O   UNL     1      47.725   5.010  16.879  0.00  0.00    +0.000 OA
ENDBRANCH  21  31
ENDBRANCH  17  28
ENDBRANCH   1  19
TORSDOF 8
ENDMDL
MODEL 5
REMARK VINA RESULT:    -6.835      4.822      9.419
REMARK INTER + INTRA:         -11.184
REMARK INTER:                 -10.319
REMARK INTRA:                  -0.866
REMARK UNBOUND:                -1.153
REMARK  Name = 
REMARK  9 active torsions:
REMARK  status: ('A' for Active; 'I' for Inactive)
REMARK    1  A    between atoms: C_1  and  O_2
REMARK    2  A    between atoms: O_2  and  C_3
REMARK    3  A    between atoms: C_10  and  C_11
REMARK    4  A    between atoms: N_13  and  C_14
REMARK    5  A    between atoms: C_14  and  C_15
REMARK    6  A    between atoms: C_18  and  C_19
REMARK    7  A    between atoms: C_19  and  O_20
REMARK    8  A    between atoms: O_20  and  C_21
REMARK    9  A    between atoms: C_21  and  C_22
REMARK                            x       y       z     vdW  Elec       q    Type
REMARK                         _______ _______ _______ _____ _____    ______ ____
ROOT
ATOM      1  C   UNL     1      47.181   3.415  16.977  0.00  0.00    +0.000 C 
ENDROOT
BRANCH   1   2
ATOM      2  C   UNL     1      48.649   3.243  17.271  0.00  0.00    +0.000 A 
ATOM      3  C   UNL     1      49.384   4.269  17.882  0.00  0.00    +0.000 A 
ATOM      4  C   UNL     1      50.751   4.113  18.132  0.00  0.00    +0.000 A 
ATOM      5  C   UNL     1      51.417   2.934  17.768  0.00  0.00    +0.000 A 
ATOM      6  C   UNL     1      50.684   1.915  17.144  0.00  0.00    +0.000 A 
ATOM      7  C   UNL     1      49.317   2.070  16.895  0.00  0.00    +0.000 A 
BRANCH   5   8
ATOM      8  C   UNL     1      52.895   2.775  18.024  0.00  0.00    +0.000 C 
BRANCH   8   9
ATOM      9  O   UNL     1      53.142   1.466  18.531  0.00  0.00    +0.000 OA
BRANCH   9  10
ATOM     10  C   UNL     1      54.366   0.927  18.028  0.00  0.00    +0.000 C 
BRANCH  10  11
ATOM     11  C   UNL     1      54.370  -0.578  18.112  0.00  0.00    +0.000 A 
ATOM     12  C   UNL     1      54.955  -1.354  17.115  0.00  0.00    +0.000 A 
ATOM     13  N   UNL     1      55.015  -2.707  17.167  0.00  0.00    +0.000 NA
ATOM     14  C   UNL     1      54.463  -3.265  18.266  0.00  0.00    +0.000 A 
ATOM     15  C   UNL     1      53.890  -2.507  19.272  0.00  0.00    +0.000 A 
ATOM     16  N   UNL     1      53.836  -1.155  19.224  0.00  0.00    +0.000 NA
ENDBRANCH  10  11
ENDBRANCH   9  10
ENDBRANCH   8   9
ENDBRANCH   5   8
ENDBRANCH   1   2
BRANCH   1  19
ATOM     17  C   UNL     1      47.014   4.208  14.655  0.00  0.00    +0.000 C 
ATOM     18  O   UNL     1      47.245   3.080  14.223  0.00  0.00    +0.000 OA
ATOM     19  N   UNL     1      46.970   4.454  16.000  0.00  0.00    +0.000 N 
ATOM     20  H   UNL     1      46.830   5.397  16.340  0.00  0.00    +0.000 HD
BRANCH  17  28
ATOM     21  C   UNL     1      44.345   5.149  12.688  0.00  0.00    +0.000 A 
ATOM     22  N   UNL     1      43.471   5.741  11.848  0.00  0.00    +0.000 NA
ATOM     23  C   UNL     1      43.853   6.864  11.235  0.00  0.00    +0.000 A 
ATOM     24  N   UNL     1      45.022   7.485  11.358  0.00  0.00    +0.000 NA
ATOM     25  C   UNL     1      45.859   6.868  12.208  0.00  0.00    +0.000 A 
ATOM     26  S   UNL     1      47.402   7.522  12.484  0.00  0.00    +0.000 S 
ATOM     27  C   UNL     1      47.791   6.272  13.567  0.00  0.00    +0.000 A 
ATOM     28  C   UNL     1      46.773   5.341  13.745  0.00  0.00    +0.000 A 
ATOM     29  C   UNL     1      45.616   5.702  12.927  0.00  0.00    +0.000 A 
BRANCH  21  31
ATOM     30  C   UNL     1      43.725   2.905  12.466  0.00  0.00    +0.000 C 
ATOM     31  O   UNL     1      43.939   4.007  13.346  0.00  0.00    +0.000 OA
ENDBRANCH  21  31
ENDBRANCH  17  28
ENDBRANCH   1  19
TORSDOF 8
ENDMDL
MODEL 6
REMARK VINA RESULT:    -6.187      3.717      8.970
REMARK INTER + INTRA:         -10.234
REMARK INTER:                  -9.180
REMARK INTRA:                  -1.055
REMARK UNBOUND:                -1.153
REMARK  Name = 
REMARK  9 active torsions:
REMARK  status: ('A' for Active; 'I' for Inactive)
REMARK    1  A    between atoms: C_1  and  O_2
REMARK    2  A    between atoms: O_2  and  C_3
REMARK    3  A    between atoms: C_10  and  C_11
REMARK    4  A    between atoms: N_13  and  C_14
REMARK    5  A    between atoms: C_14  and  C_15
REMARK    6  A    between atoms: C_18  and  C_19
REMARK    7  A    between atoms: C_19  and  O_20
REMARK    8  A    between atoms: O_20  and  C_21
REMARK    9  A    between atoms: C_21  and  C_22
REMARK                            x       y       z     vdW  Elec       q    Type
REMARK                         _______ _______ _______ _____ _____    ______ ____
ROOT
ATOM      1  C   UNL     1      47.315   3.250  17.009  0.00  0.00    +0.000 C 
ENDROOT
BRANCH   1   2
ATOM      2  C   UNL     1      48.782   3.221  17.357  0.00  0.00    +0.000 A 
ATOM      3  C   UNL     1      49.384   4.304  18.011  0.00  0.00    +0.000 A 
ATOM      4  C   UNL     1      50.751   4.282  18.312  0.00  0.00    +0.000 A 
ATOM      5  C   UNL     1      51.546   3.183  17.955  0.00  0.00    +0.000 A 
ATOM      6  C   UNL     1      50.944   2.109  17.288  0.00  0.00    +0.000 A 
ATOM      7  C   UNL     1      49.578   2.129  16.989  0.00  0.00    +0.000 A 
BRANCH   5   8
ATOM      8  C   UNL     1      53.022   3.170  18.266  0.00  0.00    +0.000 C 
BRANCH   8   9
ATOM      9  O   UNL     1      53.694   4.055  17.374  0.00  0.00    +0.000 OA
BRANCH   9  10
ATOM     10  C   UNL     1      54.151   5.233  18.043  0.00  0.00    +0.000 C 
BRANCH  10  11
ATOM     11  C   UNL     1      53.955   6.455  17.183  0.00  0.00    +0.000 A 
ATOM     12  C   UNL     1      52.925   6.518  16.247  0.00  0.00    +0.000 A 
ATOM     13  N   UNL     1      52.687   7.609  15.479  0.00  0.00    +0.000 NA
ATOM     14  C   UNL     1      53.524   8.649  15.683  0.00  0.00    +0.000 A 
ATOM     15  C   UNL     1      54.542   8.606  16.618  0.00  0.00    +0.000 A 
ATOM     16  N   UNL     1      54.777   7.520  17.391  0.00  0.00    +0.000 NA
ENDBRANCH  10  11
ENDBRANCH   9  10
ENDBRANCH   8   9
ENDBRANCH   5   8
ENDBRANCH   1   2
BRANCH   1  19
ATOM     17  C   UNL     1      47.111   4.189  14.746  0.00  0.00    +0.000 C 
ATOM     18  O   UNL     1      47.457   3.123  14.241  0.00  0.00    +0.000 OA
ATOM     19  N   UNL     1      47.022   4.332  16.103  0.00  0.00    +0.000 N 
ATOM     20  H   UNL     1      46.786   5.230  16.506  0.00  0.00    +0.000 HD
BRANCH  17  28
ATOM     21  C   UNL     1      44.472   4.946  12.662  0.00  0.00    +0.000 A 
ATOM     22  N   UNL     1      43.583   5.492  11.808  0.00  0.00    +0.000 NA
ATOM     23  C   UNL     1      43.847   6.705  11.316  0.00  0.00    +0.000 A 
ATOM     24  N   UNL     1      44.910   7.459  11.577  0.00  0.00    +0.000 NA
ATOM     25  C   UNL     1      45.767   6.883  12.437  0.00  0.00    +0.000 A 
ATOM     26  S   UNL     1      47.185   7.705  12.880  0.00  0.00    +0.000 S 
ATOM     27  C   UNL     1      47.670   6.425  13.887  0.00  0.00    +0.000 A 
ATOM     28  C   UNL     1      46.778   5.358  13.913  0.00  0.00    +0.000 A 
ATOM     29  C   UNL     1      45.638   5.636  13.040  0.00  0.00    +0.000 A 
BRANCH  21  31
ATOM     30  C   UNL     1      43.542   2.838  12.264  0.00  0.00    +0.000 C 
ATOM     31  O   UNL     1      44.183   3.708  13.195  0.00  0.00    +0.000 OA
ENDBRANCH  21  31
ENDBRANCH  17  28
ENDBRANCH   1  19
TORSDOF 8
ENDMDL
MODEL 7
REMARK VINA RESULT:    -6.126      2.978      4.049
REMARK INTER + INTRA:         -10.144
REMARK INTER:                  -9.251
REMARK INTRA:                  -0.893
REMARK UNBOUND:                -1.153
REMARK  Name = 
REMARK  9 active torsions:
REMARK  status: ('A' for Active; 'I' for Inactive)
REMARK    1  A    between atoms: C_1  and  O_2
REMARK    2  A    between atoms: O_2  and  C_3
REMARK    3  A    between atoms: C_10  and  C_11
REMARK    4  A    between atoms: N_13  and  C_14
REMARK    5  A    between atoms: C_14  and  C_15
REMARK    6  A    between atoms: C_18  and  C_19
REMARK    7  A    between atoms: C_19  and  O_20
REMARK    8  A    between atoms: O_20  and  C_21
REMARK    9  A    between atoms: C_21  and  C_22
REMARK                            x       y       z     vdW  Elec       q    Type
REMARK                         _______ _______ _______ _____ _____    ______ ____
ROOT
ATOM      1  C   UNL     1      46.076   8.040  13.102  0.00  0.00    +0.000 C 
ENDROOT
BRANCH   1   2
ATOM      2  C   UNL     1      45.591   6.723  12.551  0.00  0.00    +0.000 A 
ATOM      3  C   UNL     1      45.283   6.585  11.190  0.00  0.00    +0.000 A 
ATOM      4  C   UNL     1      44.811   5.368  10.688  0.00  0.00    +0.000 A 
ATOM      5  C   UNL     1      44.627   4.265  11.535  0.00  0.00    +0.000 A 
ATOM      6  C   UNL     1      44.922   4.410  12.897  0.00  0.00    +0.000 A 
ATOM      7  C   UNL     1      45.395   5.626  13.400  0.00  0.00    +0.000 A 
BRANCH   5   8
ATOM      8  C   UNL     1      44.103   2.959  10.993  0.00  0.00    +0.000 C 
BRANCH   8   9
ATOM      9  O   UNL     1      44.140   2.997   9.569  0.00  0.00    +0.000 OA
BRANCH   9  10
ATOM     10  C   UNL     1      44.712   1.806   9.022  0.00  0.00    +0.000 C 
BRANCH  10  11
ATOM     11  C   UNL     1      45.865   2.130   8.108  0.00  0.00    +0.000 A 
ATOM     12  C   UNL     1      46.819   1.168   7.785  0.00  0.00    +0.000 A 
ATOM     13  N   UNL     1      47.851   1.403   6.937  0.00  0.00    +0.000 NA
ATOM     14  C   UNL     1      47.895   2.649   6.417  0.00  0.00    +0.000 A 
ATOM     15  C   UNL     1      46.947   3.610   6.718  0.00  0.00    +0.000 A 
ATOM     16  N   UNL     1      45.912   3.375   7.558  0.00  0.00    +0.000 NA
ENDBRANCH  10  11
ENDBRANCH   9  10
ENDBRANCH   8   9
ENDBRANCH   5   8
ENDBRANCH   1   2
BRANCH   1  19
ATOM     17  C   UNL     1      48.356   8.748  13.691  0.00  0.00    +0.000 C 
ATOM     18  O   UNL     1      48.001   9.041  14.831  0.00  0.00    +0.000 OA
ATOM     19  N   UNL     1      47.464   8.253  12.779  0.00  0.00    +0.000 N 
ATOM     20  H   UNL     1      47.759   8.065  11.830  0.00  0.00    +0.000 HD
BRANCH  17  28
ATOM     21  C   UNL     1      51.384   7.747  14.998  0.00  0.00    +0.000 A 
ATOM     22  N   UNL     1      52.678   7.488  15.276  0.00  0.00    +0.000 NA
ATOM     23  C   UNL     1      53.606   7.951  14.433  0.00  0.00    +0.000 A 
ATOM     24  N   UNL     1      53.400   8.653  13.324  0.00  0.00    +0.000 NA
ATOM     25  C   UNL     1      52.098   8.883  13.080  0.00  0.00    +0.000 A 
ATOM     26  S   UNL     1      51.650   9.771  11.704  0.00  0.00    +0.000 S 
ATOM     27  C   UNL     1      50.001   9.631  12.091  0.00  0.00    +0.000 A 
ATOM     28  C   UNL     1      49.754   8.915  13.258  0.00  0.00    +0.000 A 
ATOM     29  C   UNL     1      51.015   8.469  13.849  0.00  0.00    +0.000 A 
BRANCH  21  31
ATOM     30  C   UNL     1      50.641   7.611  17.211  0.00  0.00    +0.000 C 
ATOM     31  O   UNL     1      50.425   7.242  15.850  0.00  0.00    +0.000 OA
ENDBRANCH  21  31
ENDBRANCH  17  28
ENDBRANCH   1  19
TORSDOF 8
ENDMDL
MODEL 8
REMARK VINA RESULT:    -6.103      3.548      7.999
REMARK INTER + INTRA:         -10.110
REMARK INTER:                  -8.704
REMARK INTRA:                  -1.406
REMARK UNBOUND:                -1.153
REMARK  Name = 
REMARK  9 active torsions:
REMARK  status: ('A' for Active; 'I' for Inactive)
REMARK    1  A    between atoms: C_1  and  O_2
REMARK    2  A    between atoms: O_2  and  C_3
REMARK    3  A    between atoms: C_10  and  C_11
REMARK    4  A    between atoms: N_13  and  C_14
REMARK    5  A    between atoms: C_14  and  C_15
REMARK    6  A    between atoms: C_18  and  C_19
REMARK    7  A    between atoms: C_19  and  O_20
REMARK    8  A    between atoms: O_20  and  C_21
REMARK    9  A    between atoms: C_21  and  C_22
REMARK                            x       y       z     vdW  Elec       q    Type
REMARK                         _______ _______ _______ _____ _____    ______ ____
ROOT
ATOM      1  C   UNL     1      48.006   9.121  13.561  0.00  0.00    +0.000 C 
ENDROOT
BRANCH   1   2
ATOM      2  C   UNL     1      48.659   8.547  14.792  0.00  0.00    +0.000 A 
ATOM      3  C   UNL     1      48.335   9.031  16.067  0.00  0.00    +0.000 A 
ATOM      4  C   UNL     1      48.960   8.511  17.206  0.00  0.00    +0.000 A 
ATOM      5  C   UNL     1      49.930   7.505  17.094  0.00  0.00    +0.000 A 
ATOM      6  C   UNL     1      50.263   7.033  15.818  0.00  0.00    +0.000 A 
ATOM      7  C   UNL     1      49.637   7.551  14.680  0.00  0.00    +0.000 A 
BRANCH   5   8
ATOM      8  C   UNL     1      50.614   6.958  18.322  0.00  0.00    +0.000 C 
BRANCH   8   9
ATOM      9  O   UNL     1      49.636   6.378  19.181  0.00  0.00    +0.000 OA
BRANCH   9  10
ATOM     10  C   UNL     1      49.986   5.044  19.557  0.00  0.00    +0.000 C 
BRANCH  10  11
ATOM     11  C   UNL     1      49.562   4.056  18.501  0.00  0.00    +0.000 A 
ATOM     12  C   UNL     1      50.501   3.409  17.702  0.00  0.00    +0.000 A 
ATOM     13  N   UNL     1      50.168   2.486  16.766  0.00  0.00    +0.000 NA
ATOM     14  C   UNL     1      48.847   2.227  16.658  0.00  0.00    +0.000 A 
ATOM     15  C   UNL     1      47.904   2.851  17.454  0.00  0.00    +0.000 A 
ATOM     16  N   UNL     1      48.235   3.768  18.394  0.00  0.00    +0.000 NA
ENDBRANCH  10  11
ENDBRANCH   9  10
ENDBRANCH   8   9
ENDBRANCH   5   8
ENDBRANCH   1   2
BRANCH   1  19
ATOM     17  C   UNL     1      46.804   7.416  12.259  0.00  0.00    +0.000 C 
ATOM     18  O   UNL     1      47.824   7.134  11.633  0.00  0.00    +0.000 OA
ATOM     19  N   UNL     1      46.812   8.388  13.222  0.00  0.00    +0.000 N 
ATOM     20  H   UNL     1      45.954   8.645  13.693  0.00  0.00    +0.000 HD
BRANCH  17  28
ATOM     21  C   UNL     1      45.712   4.189  12.777  0.00  0.00    +0.000 A 
ATOM     22  N   UNL     1      45.037   3.024  12.866  0.00  0.00    +0.000 NA
ATOM     23  C   UNL     1      43.781   2.991  12.415  0.00  0.00    +0.000 A 
ATOM     24  N   UNL     1      43.098   3.996  11.875  0.00  0.00    +0.000 NA
ATOM     25  C   UNL     1      43.803   5.138  11.812  0.00  0.00    +0.000 A 
ATOM     26  S   UNL     1      43.087   6.526  11.147  0.00  0.00    +0.000 S 
ATOM     27  C   UNL     1      44.497   7.438  11.409  0.00  0.00    +0.000 A 
ATOM     28  C   UNL     1      45.531   6.721  12.001  0.00  0.00    +0.000 A 
ATOM     29  C   UNL     1      45.111   5.341  12.241  0.00  0.00    +0.000 A 
BRANCH  21  31
ATOM     30  C   UNL     1      47.063   4.733  14.606  0.00  0.00    +0.000 C 
ATOM     31  O   UNL     1      46.998   4.231  13.273  0.00  0.00    +0.000 OA
ENDBRANCH  21  31
ENDBRANCH  17  28
ENDBRANCH   1  19
TORSDOF 8
ENDMDL
MODEL 9
REMARK VINA RESULT:    -5.956      3.472      4.869
REMARK INTER + INTRA:          -9.895
REMARK INTER:                  -8.824
REMARK INTRA:                  -1.071
REMARK UNBOUND:                -1.153
REMARK  Name = 
REMARK  9 active torsions:
REMARK  status: ('A' for Active; 'I' for Inactive)
REMARK    1  A    between atoms: C_1  and  O_2
REMARK    2  A    between atoms: O_2  and  C_3
REMARK    3  A    between atoms: C_10  and  C_11
REMARK    4  A    between atoms: N_13  and  C_14
REMARK    5  A    between atoms: C_14  and  C_15
REMARK    6  A    between atoms: C_18  and  C_19
REMARK    7  A    between atoms: C_19  and  O_20
REMARK    8  A    between atoms: O_20  and  C_21
REMARK    9  A    between atoms: C_21  and  C_22
REMARK                            x       y       z     vdW  Elec       q    Type
REMARK                         _______ _______ _______ _____ _____    ______ ____
ROOT
ATOM      1  C   UNL     1      50.091   7.938  16.568  0.00  0.00    +0.000 C 
ENDROOT
BRANCH   1   2
ATOM      2  C   UNL     1      49.336   7.633  15.299  0.00  0.00    +0.000 A 
ATOM      3  C   UNL     1      49.249   8.582  14.271  0.00  0.00    +0.000 A 
ATOM      4  C   UNL     1      48.527   8.304  13.106  0.00  0.00    +0.000 A 
ATOM      5  C   UNL     1      47.867   7.077  12.946  0.00  0.00    +0.000 A 
ATOM      6  C   UNL     1      47.944   6.135  13.981  0.00  0.00    +0.000 A 
ATOM      7  C   UNL     1      48.666   6.412  15.146  0.00  0.00    +0.000 A 
BRANCH   5   8
ATOM      8  C   UNL     1      47.076   6.786  11.695  0.00  0.00    +0.000 C 
BRANCH   8   9
ATOM      9  O   UNL     1      45.865   7.536  11.725  0.00  0.00    +0.000 OA
BRANCH   9  10
ATOM     10  C   UNL     1      44.978   7.068  12.743  0.00  0.00    +0.000 C 
BRANCH  10  11
ATOM     11  C   UNL     1      44.416   5.715  12.392  0.00  0.00    +0.000 A 
ATOM     12  C   UNL     1      44.598   4.620  13.233  0.00  0.00    +0.000 A 
ATOM     13  N   UNL     1      44.078   3.394  12.976  0.00  0.00    +0.000 NA
ATOM     14  C   UNL     1      43.361   3.301  11.835  0.00  0.00    +0.000 A 
ATOM     15  C   UNL     1      43.161   4.383  10.997  0.00  0.00    +0.000 A 
ATOM     16  N   UNL     1      43.673   5.609  11.256  0.00  0.00    +0.000 NA
ENDBRANCH  10  11
ENDBRANCH   9  10
ENDBRANCH   8   9
ENDBRANCH   5   8
ENDBRANCH   1   2
BRANCH   1  19
ATOM     17  C   UNL     1      50.719   6.064  18.032  0.00  0.00    +0.000 C 
ATOM     18  O   UNL     1      49.760   6.282  18.769  0.00  0.00    +0.000 OA
ATOM     19  N   UNL     1      50.953   6.840  16.929  0.00  0.00    +0.000 N 
ATOM     20  H   UNL     1      51.775   6.681  16.361  0.00  0.00    +0.000 HD
BRANCH  17  28
ATOM     21  C   UNL     1      50.705   2.699  17.288  0.00  0.00    +0.000 A 
ATOM     22  N   UNL     1      50.955   1.383  17.134  0.00  0.00    +0.000 NA
ATOM     23  C   UNL     1      52.082   0.893  17.655  0.00  0.00    +0.000 A 
ATOM     24  N   UNL     1      53.013   1.566  18.325  0.00  0.00    +0.000 NA
ATOM     25  C   UNL     1      52.730   2.874  18.449  0.00  0.00    +0.000 A 
ATOM     26  S   UNL     1      53.809   3.887  19.280  0.00  0.00    +0.000 S 
ATOM     27  C   UNL     1      52.816   5.241  19.018  0.00  0.00    +0.000 A 
ATOM     28  C   UNL     1      51.657   4.961  18.302  0.00  0.00    +0.000 A 
ATOM     29  C   UNL     1      51.609   3.539  17.963  0.00  0.00    +0.000 A 
BRANCH  21  31
ATOM     30  C   UNL     1      48.421   3.106  17.577  0.00  0.00    +0.000 C 
ATOM     31  O   UNL     1      49.557   3.211  16.721  0.00  0.00    +0.000 OA
ENDBRANCH  21  31
ENDBRANCH  17  28
ENDBRANCH   1  19
TORSDOF 8
ENDMDL
