MODEL 1
REMARK VINA RESULT:    -6.757      0.000      0.000
REMARK INTER + INTRA:         -10.903
REMARK INTER:                  -9.719
REMARK INTRA:                  -1.184
REMARK UNBOUND:                -1.184
REMARK  Name = 
REMARK  11 active torsions:
REMARK  status: ('A' for Active; 'I' for Inactive)
REMARK    1  A    between atoms: C_1  and  O_2
REMARK    2  A    between atoms: O_2  and  C_3
REMARK    3  A    between atoms: C_3  and  C_5
REMARK    4  A    between atoms: C_8  and  N_9
REMARK    5  A    between atoms: N_9  and  C_10
REMARK    6  A    between atoms: C_10  and  C_11
REMARK    7  A    between atoms: C_11  and  C_12
REMARK    8  A    between atoms: C_11  and  C_13
REMARK    9  A    between atoms: C_11  and  C_14
REMARK   10  A    between atoms: C_18  and  C_19
REMARK   11  A    between atoms: C_19  and  N_20
REMARK                            x       y       z     vdW  Elec       q    Type
REMARK                         _______ _______ _______ _____ _____    ______ ____
ROOT
ATOM      1  C   UNL     1      45.083   3.695  12.501  0.00  0.00    +0.000 C 
ENDROOT
BRANCH   1   2
ATOM      2  C   UNL     1      44.112   3.476  11.300  0.00  0.00    +0.000 C 
ATOM      3  C   UNL     1      43.366   2.139  11.500  0.00  0.00    +0.000 C 
ATOM      4  C   UNL     1      43.102   4.647  11.254  0.00  0.00    +0.000 C 
BRANCH   2   5
ATOM      5  C   UNL     1      44.861   3.454   9.946  0.00  0.00    +0.000 A 
ATOM      6  C   UNL     1      45.225   4.659   9.319  0.00  0.00    +0.000 A 
ATOM      7  C   UNL     1      45.984   4.668   8.147  0.00  0.00    +0.000 A 
ATOM      8  C   UNL     1      46.427   3.472   7.588  0.00  0.00    +0.000 A 
ATOM      9  C   UNL     1      46.097   2.254   8.188  0.00  0.00    +0.000 A 
ATOM     10  C   UNL     1      45.277   2.260   9.330  0.00  0.00    +0.000 A 
BRANCH   9  11
ATOM     11  C   UNL     1      46.629   0.945   7.658  0.00  0.00    +0.000 C 
BRANCH  11  12
ATOM     12  N   UNL     1      47.824   1.156   6.844  0.00  0.00    +0.000 NA
ATOM     13  H   UNL     1      48.587   1.452   7.453  0.00  0.00    +0.000 HD
ATOM     14  H   UNL     1      47.660   1.920   6.192  0.00  0.00    +0.000 HD
ENDBRANCH  11  12
ENDBRANCH   9  11
ENDBRANCH   2   5
ENDBRANCH   1   2
BRANCH   1  15
ATOM     15  N   UNL     1      44.973   5.012  13.129  0.00  0.00    +0.000 N 
ATOM     16  H   UNL     1      44.032   5.347  13.312  0.00  0.00    +0.000 HD
BRANCH  15  20
ATOM     17  C   UNL     1      47.622   8.208  12.407  0.00  0.00    +0.000 A 
ATOM     18  C   UNL     1      46.238   8.388  12.330  0.00  0.00    +0.000 A 
ATOM     19  C   UNL     1      45.380   7.300  12.524  0.00  0.00    +0.000 A 
ATOM     20  C   UNL     1      45.880   6.020  12.802  0.00  0.00    +0.000 A 
ATOM     21  C   UNL     1      47.268   5.867  12.892  0.00  0.00    +0.000 A 
ATOM     22  C   UNL     1      48.128   6.945  12.692  0.00  0.00    +0.000 A 
ATOM     23  F   UNL     1      49.445   6.736  12.835  0.00  0.00    +0.000 F 
BRANCH  17  24
ATOM     24  C   UNL     1      48.495   9.378  12.237  0.00  0.00    +0.000 C 
ATOM     25  O   UNL     1      49.191   9.547  11.242  0.00  0.00    +0.000 OA
BRANCH  24  27
ATOM     26  C   UNL     1      49.648  10.047  14.146  0.00  0.00    +0.000 C 
ATOM     27  O   UNL     1      48.476  10.160  13.341  0.00  0.00    +0.000 OA
ENDBRANCH  24  27
ENDBRANCH  17  24
ENDBRANCH  15  20
ENDBRANCH   1  15
TORSDOF 8
ENDMDL
MODEL 2
REMARK VINA RESULT:    -6.378      4.122      7.761
REMARK INTER + INTRA:         -10.359
REMARK INTER:                  -9.255
REMARK INTRA:                  -1.103
REMARK UNBOUND:                -1.184
REMARK  Name = 
REMARK  11 active torsions:
REMARK  status: ('A' for Active; 'I' for Inactive)
REMARK    1  A    between atoms: C_1  and  O_2
REMARK    2  A    between atoms: O_2  and  C_3
REMARK    3  A    between atoms: C_3  and  C_5
REMARK    4  A    between atoms: C_8  and  N_9
REMARK    5  A    between atoms: N_9  and  C_10
REMARK    6  A    between atoms: C_10  and  C_11
REMARK    7  A    between atoms: C_11  and  C_12
REMARK    8  A    between atoms: C_11  and  C_13
REMARK    9  A    between atoms: C_11  and  C_14
REMARK   10  A    between atoms: C_18  and  C_19
REMARK   11  A    between atoms: C_19  and  N_20
REMARK                            x       y       z     vdW  Elec       q    Type
REMARK                         _______ _______ _______ _____ _____    ______ ____
ROOT
ATOM      1  C   UNL     1      48.389   7.088  13.822  0.00  0.00    +0.000 C 
ENDROOT
BRANCH   1   2
ATOM      2  C   UNL     1      48.980   7.698  15.130  0.00  0.00    +0.000 C 
ATOM      3  C   UNL     1      50.499   7.905  14.943  0.00  0.00    +0.000 C 
ATOM      4  C   UNL     1      48.290   9.056  15.406  0.00  0.00    +0.000 C 
BRANCH   2   5
ATOM      5  C   UNL     1      48.728   6.791  16.358  0.00  0.00    +0.000 A 
ATOM      6  C   UNL     1      48.596   7.355  17.640  0.00  0.00    +0.000 A 
ATOM      7  C   UNL     1      48.274   6.572  18.750  0.00  0.00    +0.000 A 
ATOM      8  C   UNL     1      48.043   5.206  18.601  0.00  0.00    +0.000 A 
ATOM      9  C   UNL     1      48.151   4.610  17.342  0.00  0.00    +0.000 A 
ATOM     10  C   UNL     1      48.540   5.401  16.248  0.00  0.00    +0.000 A 
BRANCH   9  11
ATOM     11  C   UNL     1      47.825   3.152  17.130  0.00  0.00    +0.000 C 
BRANCH  11  12
ATOM     12  N   UNL     1      46.538   2.809  17.731  0.00  0.00    +0.000 NA
ATOM     13  H   UNL     1      46.288   1.860  17.452  0.00  0.00    +0.000 HD
ATOM     14  H   UNL     1      45.815   3.421  17.357  0.00  0.00    +0.000 HD
ENDBRANCH  11  12
ENDBRANCH   9  11
ENDBRANCH   2   5
ENDBRANCH   1   2
BRANCH   1  15
ATOM     15  N   UNL     1      46.959   7.336  13.638  0.00  0.00    +0.000 N 
ATOM     16  H   UNL     1      46.506   7.910  14.341  0.00  0.00    +0.000 HD
BRANCH  15  20
ATOM     17  C   UNL     1      44.609   4.392  11.748  0.00  0.00    +0.000 A 
ATOM     18  C   UNL     1      44.381   5.752  11.522  0.00  0.00    +0.000 A 
ATOM     19  C   UNL     1      45.140   6.711  12.200  0.00  0.00    +0.000 A 
ATOM     20  C   UNL     1      46.141   6.338  13.107  0.00  0.00    +0.000 A 
ATOM     21  C   UNL     1      46.366   4.971  13.305  0.00  0.00    +0.000 A 
ATOM     22  C   UNL     1      45.607   4.010  12.639  0.00  0.00    +0.000 A 
ATOM     23  F   UNL     1      45.904   2.719  12.844  0.00  0.00    +0.000 F 
BRANCH  17  24
ATOM     24  C   UNL     1      43.821   3.408  10.992  0.00  0.00    +0.000 C 
ATOM     25  O   UNL     1      43.035   2.635  11.529  0.00  0.00    +0.000 OA
BRANCH  24  27
ATOM     26  C   UNL     1      44.817   2.252   9.234  0.00  0.00    +0.000 C 
ATOM     27  O   UNL     1      44.150   3.431   9.680  0.00  0.00    +0.000 OA
ENDBRANCH  24  27
ENDBRANCH  17  24
ENDBRANCH  15  20
ENDBRANCH   1  15
TORSDOF 8
ENDMDL
MODEL 3
REMARK VINA RESULT:    -6.097      5.203      7.789
REMARK INTER + INTRA:          -9.954
REMARK INTER:                  -9.158
REMARK INTRA:                  -0.796
REMARK UNBOUND:                -1.184
REMARK  Name = 
REMARK  11 active torsions:
REMARK  status: ('A' for Active; 'I' for Inactive)
REMARK    1  A    between atoms: C_1  and  O_2
REMARK    2  A    between atoms: O_2  and  C_3
REMARK    3  A    between atoms: C_3  and  C_5
REMARK    4  A    between atoms: C_8  and  N_9
REMARK    5  A    between atoms: N_9  and  C_10
REMARK    6  A    between atoms: C_10  and  C_11
REMARK    7  A    between atoms: C_11  and  C_12
REMARK    8  A    between atoms: C_11  and  C_13
REMARK    9  A    between atoms: C_11  and  C_14
REMARK   10  A    between atoms: C_18  and  C_19
REMARK   11  A    between atoms: C_19  and  N_20
REMARK                            x       y       z     vdW  Elec       q    Type
REMARK                         _______ _______ _______ _____ _____    ______ ____
ROOT
ATOM      1  C   UNL     1      47.531   3.639  15.634  0.00  0.00    +0.000 C 
ENDROOT
BRANCH   1   2
ATOM      2  C   UNL     1      47.972   3.775  17.124  0.00  0.00    +0.000 C 
ATOM      3  C   UNL     1      47.338   5.052  17.716  0.00  0.00    +0.000 C 
ATOM      4  C   UNL     1      47.486   2.530  17.905  0.00  0.00    +0.000 C 
BRANCH   2   5
ATOM      5  C   UNL     1      49.510   3.844  17.269  0.00  0.00    +0.000 A 
ATOM      6  C   UNL     1      50.155   5.088  17.388  0.00  0.00    +0.000 A 
ATOM      7  C   UNL     1      51.529   5.177  17.616  0.00  0.00    +0.000 A 
ATOM      8  C   UNL     1      52.292   4.020  17.764  0.00  0.00    +0.000 A 
ATOM      9  C   UNL     1      51.687   2.765  17.666  0.00  0.00    +0.000 A 
ATOM     10  C   UNL     1      50.314   2.694  17.371  0.00  0.00    +0.000 A 
BRANCH   9  11
ATOM     11  C   UNL     1      52.466   1.494  17.905  0.00  0.00    +0.000 C 
BRANCH  11  12
ATOM     12  N   UNL     1      51.570   0.348  18.039  0.00  0.00    +0.000 NA
ATOM     13  H   UNL     1      51.712  -0.274  17.241  0.00  0.00    +0.000 HD
ATOM     14  H   UNL     1      50.604   0.664  17.991  0.00  0.00    +0.000 HD
ENDBRANCH  11  12
ENDBRANCH   9  11
ENDBRANCH   2   5
ENDBRANCH   1   2
BRANCH   1  15
ATOM     15  N   UNL     1      47.140   4.901  15.007  0.00  0.00    +0.000 N 
ATOM     16  H   UNL     1      46.882   5.656  15.634  0.00  0.00    +0.000 HD
BRANCH  15  20
ATOM     17  C   UNL     1      45.271   4.909  11.230  0.00  0.00    +0.000 A 
ATOM     18  C   UNL     1      45.886   6.059  11.732  0.00  0.00    +0.000 A 
ATOM     19  C   UNL     1      46.455   6.046  13.010  0.00  0.00    +0.000 A 
ATOM     20  C   UNL     1      46.428   4.893  13.807  0.00  0.00    +0.000 A 
ATOM     21  C   UNL     1      45.824   3.748  13.277  0.00  0.00    +0.000 A 
ATOM     22  C   UNL     1      45.247   3.757  12.008  0.00  0.00    +0.000 A 
ATOM     23  F   UNL     1      44.722   2.613  11.546  0.00  0.00    +0.000 F 
BRANCH  17  24
ATOM     24  C   UNL     1      44.716   4.943   9.869  0.00  0.00    +0.000 C 
ATOM     25  O   UNL     1      43.514   4.871   9.641  0.00  0.00    +0.000 OA
BRANCH  24  27
ATOM     26  C   UNL     1      45.658   3.899   8.013  0.00  0.00    +0.000 C 
ATOM     27  O   UNL     1      45.704   4.978   8.945  0.00  0.00    +0.000 OA
ENDBRANCH  24  27
ENDBRANCH  17  24
ENDBRANCH  15  20
ENDBRANCH   1  15
TORSDOF 8
ENDMDL
MODEL 4
REMARK VINA RESULT:    -5.941      1.519      1.772
REMARK INTER + INTRA:          -9.729
REMARK INTER:                  -8.997
REMARK INTRA:                  -0.732
REMARK UNBOUND:                -1.184
REMARK  Name = 
REMARK  11 active torsions:
REMARK  status: ('A' for Active; 'I' for Inactive)
REMARK    1  A    between atoms: C_1  and  O_2
REMARK    2  A    between atoms: O_2  and  C_3
REMARK    3  A    between atoms: C_3  and  C_5
REMARK    4  A    between atoms: C_8  and  N_9
REMARK    5  A    between atoms: N_9  and  C_10
REMARK    6  A    between atoms: C_10  and  C_11
REMARK    7  A    between atoms: C_11  and  C_12
REMARK    8  A    between atoms: C_11  and  C_13
REMARK    9  A    between atoms: C_11  and  C_14
REMARK   10  A    between atoms: C_18  and  C_19
REMARK   11  A    between atoms: C_19  and  N_20
REMARK                            x       y       z     vdW  Elec       q    Type
REMARK                         _______ _______ _______ _____ _____    ______ ____
ROOT
ATOM      1  C   UNL     1      45.142   4.381  12.321  0.00  0.00    +0.000 C 
ENDROOT
BRANCH   1   2
ATOM      2  C   UNL     1      44.143   3.937  11.208  0.00  0.00    +0.000 C 
ATOM      3  C   UNL     1      43.410   2.661  11.676  0.00  0.00    +0.000 C 
ATOM      4  C   UNL     1      43.124   5.077  10.967  0.00  0.00    +0.000 C 
BRANCH   2   5
ATOM      5  C   UNL     1      44.858   3.661   9.864  0.00  0.00    +0.000 A 
ATOM      6  C   UNL     1      45.316   4.729   9.073  0.00  0.00    +0.000 A 
ATOM      7  C   UNL     1      46.048   4.508   7.905  0.00  0.00    +0.000 A 
ATOM      8  C   UNL     1      46.369   3.210   7.513  0.00  0.00    +0.000 A 
ATOM      9  C   UNL     1      45.944   2.122   8.279  0.00  0.00    +0.000 A 
ATOM     10  C   UNL     1      45.153   2.360   9.416  0.00  0.00    +0.000 A 
BRANCH   9  11
ATOM     11  C   UNL     1      46.345   0.709   7.931  0.00  0.00    +0.000 C 
BRANCH  11  12
ATOM     12  N   UNL     1      47.430   0.698   6.953  0.00  0.00    +0.000 NA
ATOM     13  H   UNL     1      47.708   1.661   6.760  0.00  0.00    +0.000 HD
ATOM     14  H   UNL     1      47.091   0.313   6.074  0.00  0.00    +0.000 HD
ENDBRANCH  11  12
ENDBRANCH   9  11
ENDBRANCH   2   5
ENDBRANCH   1   2
BRANCH   1  15
ATOM     15  N   UNL     1      45.516   5.794  12.263  0.00  0.00    +0.000 N 
ATOM     16  H   UNL     1      45.272   6.291  11.412  0.00  0.00    +0.000 HD
BRANCH  15  20
ATOM     17  C   UNL     1      48.963   7.373  14.103  0.00  0.00    +0.000 A 
ATOM     18  C   UNL     1      48.484   7.897  12.899  0.00  0.00    +0.000 A 
ATOM     19  C   UNL     1      47.368   7.323  12.281  0.00  0.00    +0.000 A 
ATOM     20  C   UNL     1      46.706   6.225  12.849  0.00  0.00    +0.000 A 
ATOM     21  C   UNL     1      47.191   5.728  14.064  0.00  0.00    +0.000 A 
ATOM     22  C   UNL     1      48.308   6.290  14.680  0.00  0.00    +0.000 A 
ATOM     23  F   UNL     1      48.693   5.791  15.864  0.00  0.00    +0.000 F 
BRANCH  17  24
ATOM     24  C   UNL     1      50.113   8.022  14.747  0.00  0.00    +0.000 C 
ATOM     25  O   UNL     1      51.265   7.631  14.596  0.00  0.00    +0.000 OA
BRANCH  24  27
ATOM     26  C   UNL     1      50.229  10.301  15.210  0.00  0.00    +0.000 C 
ATOM     27  O   UNL     1      49.709   9.021  15.565  0.00  0.00    +0.000 OA
ENDBRANCH  24  27
ENDBRANCH  17  24
ENDBRANCH  15  20
ENDBRANCH   1  15
TORSDOF 8
ENDMDL
MODEL 5
REMARK VINA RESULT:    -5.879      5.410      8.275
REMARK INTER + INTRA:          -9.641
REMARK INTER:                  -8.857
REMARK INTRA:                  -0.783
REMARK UNBOUND:                -1.184
REMARK  Name = 
REMARK  11 active torsions:
REMARK  status: ('A' for Active; 'I' for Inactive)
REMARK    1  A    between atoms: C_1  and  O_2
REMARK    2  A    between atoms: O_2  and  C_3
REMARK    3  A    between atoms: C_3  and  C_5
REMARK    4  A    between atoms: C_8  and  N_9
REMARK    5  A    between atoms: N_9  and  C_10
REMARK    6  A    between atoms: C_10  and  C_11
REMARK    7  A    between atoms: C_11  and  C_12
REMARK    8  A    between atoms: C_11  and  C_13
REMARK    9  A    between atoms: C_11  and  C_14
REMARK   10  A    between atoms: C_18  and  C_19
REMARK   11  A    between atoms: C_19  and  N_20
REMARK                            x       y       z     vdW  Elec       q    Type
REMARK                         _______ _______ _______ _____ _____    ______ ____
ROOT
ATOM      1  C   UNL     1      47.560   4.619  16.095  0.00  0.00    +0.000 C 
ENDROOT
BRANCH   1   2
ATOM      2  C   UNL     1      48.558   5.106  17.191  0.00  0.00    +0.000 C 
ATOM      3  C   UNL     1      49.153   6.463  16.756  0.00  0.00    +0.000 C 
ATOM      4  C   UNL     1      47.794   5.264  18.527  0.00  0.00    +0.000 C 
BRANCH   2   5
ATOM      5  C   UNL     1      49.701   4.090  17.426  0.00  0.00    +0.000 A 
ATOM      6  C   UNL     1      49.502   2.725  17.156  0.00  0.00    +0.000 A 
ATOM      7  C   UNL     1      50.543   1.802  17.267  0.00  0.00    +0.000 A 
ATOM      8  C   UNL     1      51.823   2.226  17.620  0.00  0.00    +0.000 A 
ATOM      9  C   UNL     1      52.065   3.576  17.884  0.00  0.00    +0.000 A 
ATOM     10  C   UNL     1      50.991   4.482  17.831  0.00  0.00    +0.000 A 
BRANCH   9  11
ATOM     11  C   UNL     1      53.454   4.083  18.186  0.00  0.00    +0.000 C 
BRANCH  11  12
ATOM     12  N   UNL     1      54.467   3.115  17.773  0.00  0.00    +0.000 NA
ATOM     13  H   UNL     1      55.069   2.910  18.571  0.00  0.00    +0.000 HD
ATOM     14  H   UNL     1      55.062   3.530  17.059  0.00  0.00    +0.000 HD
ENDBRANCH  11  12
ENDBRANCH   9  11
ENDBRANCH   2   5
ENDBRANCH   1   2
BRANCH   1  15
ATOM     15  N   UNL     1      47.494   5.485  14.918  0.00  0.00    +0.000 N 
ATOM     16  H   UNL     1      47.456   6.484  15.093  0.00  0.00    +0.000 HD
BRANCH  15  20
ATOM     17  C   UNL     1      45.094   4.155  11.720  0.00  0.00    +0.000 A 
ATOM     18  C   UNL     1      45.699   3.247  12.593  0.00  0.00    +0.000 A 
ATOM     19  C   UNL     1      46.533   3.711  13.616  0.00  0.00    +0.000 A 
ATOM     20  C   UNL     1      46.774   5.080  13.793  0.00  0.00    +0.000 A 
ATOM     21  C   UNL     1      46.143   5.972  12.919  0.00  0.00    +0.000 A 
ATOM     22  C   UNL     1      45.318   5.516  11.892  0.00  0.00    +0.000 A 
ATOM     23  F   UNL     1      44.713   6.428  11.118  0.00  0.00    +0.000 F 
BRANCH  17  24
ATOM     24  C   UNL     1      44.193   3.639  10.679  0.00  0.00    +0.000 C 
ATOM     25  O   UNL     1      43.037   3.302  10.910  0.00  0.00    +0.000 OA
BRANCH  24  27
ATOM     26  C   UNL     1      44.940   2.174   9.031  0.00  0.00    +0.000 C 
ATOM     27  O   UNL     1      44.840   3.519   9.496  0.00  0.00    +0.000 OA
ENDBRANCH  24  27
ENDBRANCH  17  24
ENDBRANCH  15  20
ENDBRANCH   1  15
TORSDOF 8
ENDMDL
MODEL 6
REMARK VINA RESULT:    -5.762      2.923      3.710
REMARK INTER + INTRA:          -9.472
REMARK INTER:                  -8.589
REMARK INTRA:                  -0.883
REMARK UNBOUND:                -1.184
REMARK  Name = 
REMARK  11 active torsions:
REMARK  status: ('A' for Active; 'I' for Inactive)
REMARK    1  A    between atoms: C_1  and  O_2
REMARK    2  A    between atoms: O_2  and  C_3
REMARK    3  A    between atoms: C_3  and  C_5
REMARK    4  A    between atoms: C_8  and  N_9
REMARK    5  A    between atoms: N_9  and  C_10
REMARK    6  A    between atoms: C_10  and  C_11
REMARK    7  A    between atoms: C_11  and  C_12
REMARK    8  A    between atoms: C_11  and  C_13
REMARK    9  A    between atoms: C_11  and  C_14
REMARK   10  A    between atoms: C_18  and  C_19
REMARK   11  A    between atoms: C_19  and  N_20
REMARK                            x       y       z     vdW  Elec       q    Type
REMARK                         _______ _______ _______ _____ _____    ______ ____
ROOT
ATOM      1  C   UNL     1      44.793   4.899  12.973  0.00  0.00    +0.000 C 
ENDROOT
BRANCH   1   2
ATOM      2  C   UNL     1      44.395   5.367  11.539  0.00  0.00    +0.000 C 
ATOM      3  C   UNL     1      42.881   5.670  11.517  0.00  0.00    +0.000 C 
ATOM      4  C   UNL     1      45.196   6.644  11.189  0.00  0.00    +0.000 C 
BRANCH   2   5
ATOM      5  C   UNL     1      44.726   4.301  10.468  0.00  0.00    +0.000 A 
ATOM      6  C   UNL     1      44.129   3.029  10.527  0.00  0.00    +0.000 A 
ATOM      7  C   UNL     1      44.335   2.082   9.523  0.00  0.00    +0.000 A 
ATOM      8  C   UNL     1      45.119   2.393   8.414  0.00  0.00    +0.000 A 
ATOM      9  C   UNL     1      45.719   3.651   8.312  0.00  0.00    +0.000 A 
ATOM     10  C   UNL     1      45.555   4.569   9.363  0.00  0.00    +0.000 A 
BRANCH   9  11
ATOM     11  C   UNL     1      46.504   4.052   7.087  0.00  0.00    +0.000 C 
BRANCH  11  12
ATOM     12  N   UNL     1      46.621   2.936   6.151  0.00  0.00    +0.000 NA
ATOM     13  H   UNL     1      47.373   2.321   6.466  0.00  0.00    +0.000 HD
ATOM     14  H   UNL     1      46.899   3.287   5.237  0.00  0.00    +0.000 HD
ENDBRANCH  11  12
ENDBRANCH   9  11
ENDBRANCH   2   5
ENDBRANCH   1   2
BRANCH   1  15
ATOM     15  N   UNL     1      46.202   4.531  13.113  0.00  0.00    +0.000 N 
ATOM     16  H   UNL     1      46.445   3.575  12.875  0.00  0.00    +0.000 HD
BRANCH  15  20
ATOM     17  C   UNL     1      48.701   5.902  16.217  0.00  0.00    +0.000 A 
ATOM     18  C   UNL     1      47.945   4.736  16.362  0.00  0.00    +0.000 A 
ATOM     19  C   UNL     1      47.084   4.329  15.338  0.00  0.00    +0.000 A 
ATOM     20  C   UNL     1      46.963   5.067  14.152  0.00  0.00    +0.000 A 
ATOM     21  C   UNL     1      47.743   6.221  14.020  0.00  0.00    +0.000 A 
ATOM     22  C   UNL     1      48.597   6.637  15.041  0.00  0.00    +0.000 A 
ATOM     23  F   UNL     1      49.346   7.730  14.831  0.00  0.00    +0.000 F 
BRANCH  17  24
ATOM     24  C   UNL     1      49.625   6.283  17.295  0.00  0.00    +0.000 C 
ATOM     25  O   UNL     1      49.267   6.917  18.281  0.00  0.00    +0.000 OA
BRANCH  24  27
ATOM     26  C   UNL     1      51.730   5.759  18.142  0.00  0.00    +0.000 C 
ATOM     27  O   UNL     1      50.892   5.914  16.997  0.00  0.00    +0.000 OA
ENDBRANCH  24  27
ENDBRANCH  17  24
ENDBRANCH  15  20
ENDBRANCH   1  15
TORSDOF 8
ENDMDL
MODEL 7
REMARK VINA RESULT:    -5.695      3.538      7.321
REMARK INTER + INTRA:          -9.376
REMARK INTER:                  -8.210
REMARK INTRA:                  -1.167
REMARK UNBOUND:                -1.184
REMARK  Name = 
REMARK  11 active torsions:
REMARK  status: ('A' for Active; 'I' for Inactive)
REMARK    1  A    between atoms: C_1  and  O_2
REMARK    2  A    between atoms: O_2  and  C_3
REMARK    3  A    between atoms: C_3  and  C_5
REMARK    4  A    between atoms: C_8  and  N_9
REMARK    5  A    between atoms: N_9  and  C_10
REMARK    6  A    between atoms: C_10  and  C_11
REMARK    7  A    between atoms: C_11  and  C_12
REMARK    8  A    between atoms: C_11  and  C_13
REMARK    9  A    between atoms: C_11  and  C_14
REMARK   10  A    between atoms: C_18  and  C_19
REMARK   11  A    between atoms: C_19  and  N_20
REMARK                            x       y       z     vdW  Elec       q    Type
REMARK                         _______ _______ _______ _____ _____    ______ ____
ROOT
ATOM      1  C   UNL     1      48.195   7.700  14.063  0.00  0.00    +0.000 C 
ENDROOT
BRANCH   1   2
ATOM      2  C   UNL     1      49.234   8.496  13.216  0.00  0.00    +0.000 C 
ATOM      3  C   UNL     1      50.278   9.121  14.166  0.00  0.00    +0.000 C 
ATOM      4  C   UNL     1      49.928   7.524  12.232  0.00  0.00    +0.000 C 
BRANCH   2   5
ATOM      5  C   UNL     1      48.566   9.610  12.375  0.00  0.00    +0.000 A 
ATOM      6  C   UNL     1      49.319  10.333  11.432  0.00  0.00    +0.000 A 
ATOM      7  C   UNL     1      48.721  11.276  10.594  0.00  0.00    +0.000 A 
ATOM      8  C   UNL     1      47.347  11.499  10.654  0.00  0.00    +0.000 A 
ATOM      9  C   UNL     1      46.563  10.791  11.568  0.00  0.00    +0.000 A 
ATOM     10  C   UNL     1      47.190   9.893  12.449  0.00  0.00    +0.000 A 
BRANCH   9  11
ATOM     11  C   UNL     1      45.062  10.945  11.603  0.00  0.00    +0.000 C 
BRANCH  11  12
ATOM     12  N   UNL     1      44.460  10.006  12.547  0.00  0.00    +0.000 NA
ATOM     13  H   UNL     1      44.623  10.347  13.496  0.00  0.00    +0.000 HD
ATOM     14  H   UNL     1      44.930   9.106  12.477  0.00  0.00    +0.000 HD
ENDBRANCH  11  12
ENDBRANCH   9  11
ENDBRANCH   2   5
ENDBRANCH   1   2
BRANCH   1  15
ATOM     15  N   UNL     1      48.174   6.263  13.791  0.00  0.00    +0.000 N 
ATOM     16  H   UNL     1      49.057   5.841  13.524  0.00  0.00    +0.000 HD
BRANCH  15  20
ATOM     17  C   UNL     1      44.973   4.535  11.664  0.00  0.00    +0.000 A 
ATOM     18  C   UNL     1      45.325   5.874  11.474  0.00  0.00    +0.000 A 
ATOM     19  C   UNL     1      46.358   6.439  12.229  0.00  0.00    +0.000 A 
ATOM     20  C   UNL     1      47.062   5.685  13.178  0.00  0.00    +0.000 A 
ATOM     21  C   UNL     1      46.705   4.342  13.339  0.00  0.00    +0.000 A 
ATOM     22  C   UNL     1      45.670   3.775  12.596  0.00  0.00    +0.000 A 
ATOM     23  F   UNL     1      45.409   2.471  12.771  0.00  0.00    +0.000 F 
BRANCH  17  24
ATOM     24  C   UNL     1      43.909   3.960  10.828  0.00  0.00    +0.000 C 
ATOM     25  O   UNL     1      42.905   3.438  11.299  0.00  0.00    +0.000 OA
BRANCH  24  27
ATOM     26  C   UNL     1      44.508   2.743   8.936  0.00  0.00    +0.000 C 
ATOM     27  O   UNL     1      44.240   4.018   9.517  0.00  0.00    +0.000 OA
ENDBRANCH  24  27
ENDBRANCH  17  24
ENDBRANCH  15  20
ENDBRANCH   1  15
TORSDOF 8
ENDMDL
MODEL 8
REMARK VINA RESULT:    -5.584      4.183      7.134
REMARK INTER + INTRA:          -9.216
REMARK INTER:                  -8.399
REMARK INTRA:                  -0.816
REMARK UNBOUND:                -1.184
REMARK  Name = 
REMARK  11 active torsions:
REMARK  status: ('A' for Active; 'I' for Inactive)
REMARK    1  A    between atoms: C_1  and  O_2
REMARK    2  A    between atoms: O_2  and  C_3
REMARK    3  A    between atoms: C_3  and  C_5
REMARK    4  A    between atoms: C_8  and  N_9
REMARK    5  A    between atoms: N_9  and  C_10
REMARK    6  A    between atoms: C_10  and  C_11
REMARK    7  A    between atoms: C_11  and  C_12
REMARK    8  A    between atoms: C_11  and  C_13
REMARK    9  A    between atoms: C_11  and  C_14
REMARK   10  A    between atoms: C_18  and  C_19
REMARK   11  A    between atoms: C_19  and  N_20
REMARK                            x       y       z     vdW  Elec       q    Type
REMARK                         _______ _______ _______ _____ _____    ______ ____
ROOT
ATOM      1  C   UNL     1      49.024   7.039  12.249  0.00  0.00    +0.000 C 
ENDROOT
BRANCH   1   2
ATOM      2  C   UNL     1      49.725   8.432  12.254  0.00  0.00    +0.000 C 
ATOM      3  C   UNL     1      48.669   9.522  11.970  0.00  0.00    +0.000 C 
ATOM      4  C   UNL     1      50.368   8.664  13.642  0.00  0.00    +0.000 C 
BRANCH   2   5
ATOM      5  C   UNL     1      50.853   8.517  11.198  0.00  0.00    +0.000 A 
ATOM      6  C   UNL     1      51.392   9.765  10.837  0.00  0.00    +0.000 A 
ATOM      7  C   UNL     1      52.474   9.863   9.960  0.00  0.00    +0.000 A 
ATOM      8  C   UNL     1      53.067   8.713   9.445  0.00  0.00    +0.000 A 
ATOM      9  C   UNL     1      52.569   7.454   9.789  0.00  0.00    +0.000 A 
ATOM     10  C   UNL     1      51.439   7.375  10.622  0.00  0.00    +0.000 A 
BRANCH   9  11
ATOM     11  C   UNL     1      53.239   6.186   9.318  0.00  0.00    +0.000 C 
BRANCH  11  12
ATOM     12  N   UNL     1      53.544   5.305  10.443  0.00  0.00    +0.000 NA
ATOM     13  H   UNL     1      52.672   5.068  10.919  0.00  0.00    +0.000 HD
ATOM     14  H   UNL     1      54.117   5.804  11.120  0.00  0.00    +0.000 HD
ENDBRANCH  11  12
ENDBRANCH   9  11
ENDBRANCH   2   5
ENDBRANCH   1   2
BRANCH   1  15
ATOM     15  N   UNL     1      47.733   7.014  12.936  0.00  0.00    +0.000 N 
ATOM     16  H   UNL     1      47.752   7.172  13.939  0.00  0.00    +0.000 HD
BRANCH  15  20
ATOM     17  C   UNL     1      44.876   4.325  11.399  0.00  0.00    +0.000 A 
ATOM     18  C   UNL     1      44.980   5.628  10.904  0.00  0.00    +0.000 A 
ATOM     19  C   UNL     1      45.902   6.518  11.465  0.00  0.00    +0.000 A 
ATOM     20  C   UNL     1      46.738   6.130  12.521  0.00  0.00    +0.000 A 
ATOM     21  C   UNL     1      46.630   4.816  12.989  0.00  0.00    +0.000 A 
ATOM     22  C   UNL     1      45.707   3.926  12.440  0.00  0.00    +0.000 A 
ATOM     23  F   UNL     1      45.686   2.670  12.909  0.00  0.00    +0.000 F 
BRANCH  17  24
ATOM     24  C   UNL     1      43.925   3.402  10.763  0.00  0.00    +0.000 C 
ATOM     25  O   UNL     1      43.059   2.805  11.392  0.00  0.00    +0.000 OA
BRANCH  24  27
ATOM     26  C   UNL     1      45.001   2.113   9.151  0.00  0.00    +0.000 C 
ATOM     27  O   UNL     1      44.201   3.256   9.446  0.00  0.00    +0.000 OA
ENDBRANCH  24  27
ENDBRANCH  17  24
ENDBRANCH  15  20
ENDBRANCH   1  15
TORSDOF 8
ENDMDL
MODEL 9
REMARK VINA RESULT:    -5.524      5.135      8.979
REMARK INTER + INTRA:          -9.130
REMARK INTER:                  -8.312
REMARK INTRA:                  -0.818
REMARK UNBOUND:                -1.184
REMARK  Name = 
REMARK  11 active torsions:
REMARK  status: ('A' for Active; 'I' for Inactive)
REMARK    1  A    between atoms: C_1  and  O_2
REMARK    2  A    between atoms: O_2  and  C_3
REMARK    3  A    between atoms: C_3  and  C_5
REMARK    4  A    between atoms: C_8  and  N_9
REMARK    5  A    between atoms: N_9  and  C_10
REMARK    6  A    between atoms: C_10  and  C_11
REMARK    7  A    between atoms: C_11  and  C_12
REMARK    8  A    between atoms: C_11  and  C_13
REMARK    9  A    between atoms: C_11  and  C_14
REMARK   10  A    between atoms: C_18  and  C_19
REMARK   11  A    between atoms: C_19  and  N_20
REMARK                            x       y       z     vdW  Elec       q    Type
REMARK                         _______ _______ _______ _____ _____    ______ ____
ROOT
ATOM      1  C   UNL     1      47.728   4.764  16.125  0.00  0.00    +0.000 C 
ENDROOT
BRANCH   1   2
ATOM      2  C   UNL     1      48.871   5.245  17.070  0.00  0.00    +0.000 C 
ATOM      3  C   UNL     1      49.763   4.037  17.428  0.00  0.00    +0.000 C 
ATOM      4  C   UNL     1      49.705   6.323  16.338  0.00  0.00    +0.000 C 
BRANCH   2   5
ATOM      5  C   UNL     1      48.320   5.884  18.367  0.00  0.00    +0.000 A 
ATOM      6  C   UNL     1      48.271   5.139  19.558  0.00  0.00    +0.000 A 
ATOM      7  C   UNL     1      47.869   5.718  20.763  0.00  0.00    +0.000 A 
ATOM      8  C   UNL     1      47.536   7.070  20.815  0.00  0.00    +0.000 A 
ATOM      9  C   UNL     1      47.584   7.848  19.656  0.00  0.00    +0.000 A 
ATOM     10  C   UNL     1      47.928   7.233  18.439  0.00  0.00    +0.000 A 
BRANCH   9  11
ATOM     11  C   UNL     1      47.313   9.332  19.692  0.00  0.00    +0.000 C 
BRANCH  11  12
ATOM     12  N   UNL     1      47.676   9.963  18.425  0.00  0.00    +0.000 NA
ATOM     13  H   UNL     1      48.607  10.372  18.518  0.00  0.00    +0.000 HD
ATOM     14  H   UNL     1      47.038  10.733  18.234  0.00  0.00    +0.000 HD
ENDBRANCH  11  12
ENDBRANCH   9  11
ENDBRANCH   2   5
ENDBRANCH   1   2
BRANCH   1  15
ATOM     15  N   UNL     1      47.541   5.597  14.937  0.00  0.00    +0.000 N 
ATOM     16  H   UNL     1      47.496   6.599  15.091  0.00  0.00    +0.000 HD
BRANCH  15  20
ATOM     17  C   UNL     1      44.938   4.085  11.988  0.00  0.00    +0.000 A 
ATOM     18  C   UNL     1      45.803   3.240  12.688  0.00  0.00    +0.000 A 
ATOM     19  C   UNL     1      46.694   3.772  13.626  0.00  0.00    +0.000 A 
ATOM     20  C   UNL     1      46.737   5.148  13.889  0.00  0.00    +0.000 A 
ATOM     21  C   UNL     1      45.849   5.974  13.190  0.00  0.00    +0.000 A 
ATOM     22  C   UNL     1      44.965   5.451  12.248  0.00  0.00    +0.000 A 
ATOM     23  F   UNL     1      44.113   6.294  11.646  0.00  0.00    +0.000 F 
BRANCH  17  24
ATOM     24  C   UNL     1      43.987   3.491  11.037  0.00  0.00    +0.000 C 
ATOM     25  O   UNL     1      43.022   2.824  11.394  0.00  0.00    +0.000 OA
BRANCH  24  27
ATOM     26  C   UNL     1      44.878   2.551   9.103  0.00  0.00    +0.000 C 
ATOM     27  O   UNL     1      44.378   3.713   9.761  0.00  0.00    +0.000 OA
ENDBRANCH  24  27
ENDBRANCH  17  24
ENDBRANCH  15  20
ENDBRANCH   1  15
TORSDOF 8
ENDMDL
