MODEL 1
REMARK VINA RESULT:    -8.973      0.000      0.000
REMARK INTER + INTRA:         -13.875
REMARK INTER:                 -12.645
REMARK INTRA:                  -1.230
REMARK UNBOUND:                -1.230
REMARK  Name = 
REMARK  8 active torsions:
REMARK  status: ('A' for Active; 'I' for Inactive)
REMARK    1  A    between atoms: C_1  and  C_2
REMARK    2  A    between atoms: C_2  and  C_3
REMARK    3  A    between atoms: C_2  and  C_22
REMARK    4  A    between atoms: C_3  and  N_4
REMARK    5  A    between atoms: C_9  and  C_10
REMARK    6  A    between atoms: C_13  and  O_14
REMARK    7  A    between atoms: O_14  and  C_15
REMARK    8  A    between atoms: C_25  and  C_26
REMARK                            x       y       z     vdW  Elec       q    Type
REMARK                         _______ _______ _______ _____ _____    ______ ____
ROOT
ATOM      1  N   UNL     1      43.902   5.540  12.234  0.00  0.00    +0.000 N 
ATOM      2  C   UNL     1      45.239   5.872  12.425  0.00  0.00    +0.000 A 
ATOM      3  N   UNL     1      45.912   6.508  11.456  0.00  0.00    +0.000 NA
ATOM      4  C   UNL     1      47.208   6.758  11.679  0.00  0.00    +0.000 A 
ATOM      5  C   UNL     1      47.853   6.403  12.832  0.00  0.00    +0.000 A 
ATOM      6  C   UNL     1      47.086   5.770  13.793  0.00  0.00    +0.000 A 
ATOM      7  N   UNL     1      45.780   5.490  13.583  0.00  0.00    +0.000 NA
ATOM      8  H   UNL     1      43.709   4.782  12.881  0.00  0.00    +0.000 HD
ENDROOT
BRANCH   6   9
ATOM      9  C   UNL     1      47.637   5.355  15.097  0.00  0.00    +0.000 A 
ATOM     10  C   UNL     1      48.644   6.093  15.744  0.00  0.00    +0.000 A 
ATOM     11  C   UNL     1      49.179   5.687  16.972  0.00  0.00    +0.000 A 
ATOM     12  C   UNL     1      48.679   4.562  17.615  0.00  0.00    +0.000 A 
ATOM     13  C   UNL     1      47.697   3.801  16.982  0.00  0.00    +0.000 A 
ATOM     14  C   UNL     1      47.177   4.196  15.743  0.00  0.00    +0.000 A 
BRANCH  12  15
ATOM     15  O   UNL     1      49.090   4.082  18.820  0.00  0.00    +0.000 OA
BRANCH  15  16
ATOM     16  C   UNL     1      48.776   4.798  20.006  0.00  0.00    +0.000 C 
ATOM     17  F   UNL     1      47.625   5.501  19.951  0.00  0.00    +0.000 F 
ATOM     18  F   UNL     1      48.666   3.915  21.024  0.00  0.00    +0.000 F 
ATOM     19  F   UNL     1      49.787   5.647  20.293  0.00  0.00    +0.000 F 
ENDBRANCH  15  16
ENDBRANCH  12  15
ENDBRANCH   6   9
BRANCH   1  20
ATOM     20  C   UNL     1      43.570   5.267  10.842  0.00  0.00    +0.000 C 
BRANCH  20  22
ATOM     21  C   UNL     1      43.589   2.939  11.840  0.00  0.00    +0.000 C 
ATOM     22  C   UNL     1      43.557   3.755  10.539  0.00  0.00    +0.000 C 
BRANCH  22  23
ATOM     23  C   UNL     1      44.608   3.347   9.514  0.00  0.00    +0.000 A 
ATOM     24  C   UNL     1      45.237   4.334   8.731  0.00  0.00    +0.000 A 
ATOM     25  C   UNL     1      46.168   3.988   7.752  0.00  0.00    +0.000 A 
ATOM     26  C   UNL     1      46.517   2.650   7.545  0.00  0.00    +0.000 A 
ATOM     27  C   UNL     1      45.922   1.662   8.331  0.00  0.00    +0.000 A 
ATOM     28  C   UNL     1      44.980   2.010   9.308  0.00  0.00    +0.000 A 
BRANCH  26  29
ATOM     29  C   UNL     1      47.476   2.330   6.457  0.00  0.00    +0.000 C 
ATOM     30  N   UNL     1      47.395   3.056   5.301  0.00  0.00    +0.000 N 
ATOM     31  O   UNL     1      48.302   1.433   6.572  0.00  0.00    +0.000 OA
ATOM     32  H   UNL     1      46.633   3.684   5.088  0.00  0.00    +0.000 HD
ATOM     33  H   UNL     1      48.005   2.772   4.545  0.00  0.00    +0.000 HD
ENDBRANCH  26  29
ENDBRANCH  22  23
ENDBRANCH  20  22
ENDBRANCH   1  20
TORSDOF 7
ENDMDL
MODEL 2
REMARK VINA RESULT:    -7.991      1.622      2.259
REMARK INTER + INTRA:         -12.490
REMARK INTER:                 -11.479
REMARK INTRA:                  -1.011
REMARK UNBOUND:                -1.230
REMARK  Name = 
REMARK  8 active torsions:
REMARK  status: ('A' for Active; 'I' for Inactive)
REMARK    1  A    between atoms: C_1  and  C_2
REMARK    2  A    between atoms: C_2  and  C_3
REMARK    3  A    between atoms: C_2  and  C_22
REMARK    4  A    between atoms: C_3  and  N_4
REMARK    5  A    between atoms: C_9  and  C_10
REMARK    6  A    between atoms: C_13  and  O_14
REMARK    7  A    between atoms: O_14  and  C_15
REMARK    8  A    between atoms: C_25  and  C_26
REMARK                            x       y       z     vdW  Elec       q    Type
REMARK                         _______ _______ _______ _____ _____    ______ ____
ROOT
ATOM      1  N   UNL     1      44.221   5.339  12.531  0.00  0.00    +0.000 N 
ATOM      2  C   UNL     1      45.283   6.219  12.704  0.00  0.00    +0.000 A 
ATOM      3  N   UNL     1      45.387   7.300  11.919  0.00  0.00    +0.000 NA
ATOM      4  C   UNL     1      46.457   8.084  12.102  0.00  0.00    +0.000 A 
ATOM      5  C   UNL     1      47.419   7.833  13.040  0.00  0.00    +0.000 A 
ATOM      6  C   UNL     1      47.230   6.712  13.827  0.00  0.00    +0.000 A 
ATOM      7  N   UNL     1      46.168   5.894  13.649  0.00  0.00    +0.000 NA
ATOM      8  H   UNL     1      44.521   4.458  12.936  0.00  0.00    +0.000 HD
ENDROOT
BRANCH   6   9
ATOM      9  C   UNL     1      48.169   6.331  14.899  0.00  0.00    +0.000 A 
ATOM     10  C   UNL     1      47.868   5.309  15.818  0.00  0.00    +0.000 A 
ATOM     11  C   UNL     1      48.752   4.963  16.847  0.00  0.00    +0.000 A 
ATOM     12  C   UNL     1      49.987   5.591  16.950  0.00  0.00    +0.000 A 
ATOM     13  C   UNL     1      50.296   6.623  16.065  0.00  0.00    +0.000 A 
ATOM     14  C   UNL     1      49.404   6.984  15.049  0.00  0.00    +0.000 A 
BRANCH  12  15
ATOM     15  O   UNL     1      50.942   5.326  17.881  0.00  0.00    +0.000 OA
BRANCH  15  16
ATOM     16  C   UNL     1      51.658   4.100  17.824  0.00  0.00    +0.000 C 
ATOM     17  F   UNL     1      51.091   3.151  17.050  0.00  0.00    +0.000 F 
ATOM     18  F   UNL     1      52.892   4.347  17.328  0.00  0.00    +0.000 F 
ATOM     19  F   UNL     1      51.798   3.609  19.075  0.00  0.00    +0.000 F 
ENDBRANCH  15  16
ENDBRANCH  12  15
ENDBRANCH   6   9
BRANCH   1  20
ATOM     20  C   UNL     1      43.757   5.262  11.152  0.00  0.00    +0.000 C 
BRANCH  20  22
ATOM     21  C   UNL     1      43.611   2.838  11.871  0.00  0.00    +0.000 C 
ATOM     22  C   UNL     1      43.605   3.803  10.677  0.00  0.00    +0.000 C 
BRANCH  22  23
ATOM     23  C   UNL     1      44.583   3.437   9.567  0.00  0.00    +0.000 A 
ATOM     24  C   UNL     1      44.902   2.085   9.339  0.00  0.00    +0.000 A 
ATOM     25  C   UNL     1      45.829   1.721   8.362  0.00  0.00    +0.000 A 
ATOM     26  C   UNL     1      46.443   2.695   7.568  0.00  0.00    +0.000 A 
ATOM     27  C   UNL     1      46.117   4.038   7.764  0.00  0.00    +0.000 A 
ATOM     28  C   UNL     1      45.193   4.402   8.752  0.00  0.00    +0.000 A 
BRANCH  26  29
ATOM     29  C   UNL     1      47.460   2.260   6.576  0.00  0.00    +0.000 C 
ATOM     30  N   UNL     1      47.511   2.925   5.382  0.00  0.00    +0.000 N 
ATOM     31  O   UNL     1      48.217   1.324   6.800  0.00  0.00    +0.000 OA
ATOM     32  H   UNL     1      46.809   3.584   5.078  0.00  0.00    +0.000 HD
ATOM     33  H   UNL     1      48.157   2.564   4.691  0.00  0.00    +0.000 HD
ENDBRANCH  26  29
ENDBRANCH  22  23
ENDBRANCH  20  22
ENDBRANCH   1  20
TORSDOF 7
ENDMDL
MODEL 3
REMARK VINA RESULT:    -7.899      5.429      6.090
REMARK INTER + INTRA:         -12.360
REMARK INTER:                 -11.527
REMARK INTRA:                  -0.834
REMARK UNBOUND:                -1.230
REMARK  Name = 
REMARK  8 active torsions:
REMARK  status: ('A' for Active; 'I' for Inactive)
REMARK    1  A    between atoms: C_1  and  C_2
REMARK    2  A    between atoms: C_2  and  C_3
REMARK    3  A    between atoms: C_2  and  C_22
REMARK    4  A    between atoms: C_3  and  N_4
REMARK    5  A    between atoms: C_9  and  C_10
REMARK    6  A    between atoms: C_13  and  O_14
REMARK    7  A    between atoms: O_14  and  C_15
REMARK    8  A    between atoms: C_25  and  C_26
REMARK                            x       y       z     vdW  Elec       q    Type
REMARK                         _______ _______ _______ _____ _____    ______ ____
ROOT
ATOM      1  N   UNL     1      45.434   5.379  11.577  0.00  0.00    +0.000 N 
ATOM      2  C   UNL     1      45.817   6.661  11.956  0.00  0.00    +0.000 A 
ATOM      3  N   UNL     1      44.928   7.477  12.536  0.00  0.00    +0.000 NA
ATOM      4  C   UNL     1      45.343   8.715  12.836  0.00  0.00    +0.000 A 
ATOM      5  C   UNL     1      46.610   9.162  12.583  0.00  0.00    +0.000 A 
ATOM      6  C   UNL     1      47.476   8.254  12.003  0.00  0.00    +0.000 A 
ATOM      7  N   UNL     1      47.075   7.005  11.674  0.00  0.00    +0.000 NA
ATOM      8  H   UNL     1      46.096   5.090  10.863  0.00  0.00    +0.000 HD
ENDROOT
BRANCH   6   9
ATOM      9  C   UNL     1      48.882   8.585  11.700  0.00  0.00    +0.000 A 
ATOM     10  C   UNL     1      49.291   9.903  11.429  0.00  0.00    +0.000 A 
ATOM     11  C   UNL     1      50.621  10.211  11.122  0.00  0.00    +0.000 A 
ATOM     12  C   UNL     1      51.591   9.216  11.135  0.00  0.00    +0.000 A 
ATOM     13  C   UNL     1      51.204   7.898  11.377  0.00  0.00    +0.000 A 
ATOM     14  C   UNL     1      49.870   7.587  11.663  0.00  0.00    +0.000 A 
BRANCH  12  15
ATOM     15  O   UNL     1      52.916   9.390  10.885  0.00  0.00    +0.000 OA
BRANCH  15  16
ATOM     16  C   UNL     1      53.354   9.637   9.555  0.00  0.00    +0.000 C 
ATOM     17  F   UNL     1      53.250  10.923   9.158  0.00  0.00    +0.000 F 
ATOM     18  F   UNL     1      54.656   9.284   9.460  0.00  0.00    +0.000 F 
ATOM     19  F   UNL     1      52.645   8.865   8.704  0.00  0.00    +0.000 F 
ENDBRANCH  15  16
ENDBRANCH  12  15
ENDBRANCH   6   9
BRANCH   1  20
ATOM     20  C   UNL     1      44.031   5.289  11.194  0.00  0.00    +0.000 C 
BRANCH  20  22
ATOM     21  C   UNL     1      43.424   2.881  11.695  0.00  0.00    +0.000 C 
ATOM     22  C   UNL     1      43.688   3.913  10.588  0.00  0.00    +0.000 C 
BRANCH  22  23
ATOM     23  C   UNL     1      44.692   3.462   9.535  0.00  0.00    +0.000 A 
ATOM     24  C   UNL     1      45.272   4.412   8.674  0.00  0.00    +0.000 A 
ATOM     25  C   UNL     1      46.159   4.026   7.669  0.00  0.00    +0.000 A 
ATOM     26  C   UNL     1      46.511   2.681   7.512  0.00  0.00    +0.000 A 
ATOM     27  C   UNL     1      45.965   1.730   8.375  0.00  0.00    +0.000 A 
ATOM     28  C   UNL     1      45.067   2.119   9.377  0.00  0.00    +0.000 A 
BRANCH  26  29
ATOM     29  C   UNL     1      47.420   2.315   6.396  0.00  0.00    +0.000 C 
ATOM     30  N   UNL     1      47.301   3.008   5.223  0.00  0.00    +0.000 N 
ATOM     31  O   UNL     1      48.237   1.409   6.504  0.00  0.00    +0.000 OA
ATOM     32  H   UNL     1      46.540   3.641   5.022  0.00  0.00    +0.000 HD
ATOM     33  H   UNL     1      47.875   2.692   4.451  0.00  0.00    +0.000 HD
ENDBRANCH  26  29
ENDBRANCH  22  23
ENDBRANCH  20  22
ENDBRANCH   1  20
TORSDOF 7
ENDMDL
MODEL 4
REMARK VINA RESULT:    -7.499      5.007      9.149
REMARK INTER + INTRA:         -11.798
REMARK INTER:                 -10.636
REMARK INTRA:                  -1.162
REMARK UNBOUND:                -1.230
REMARK  Name = 
REMARK  8 active torsions:
REMARK  status: ('A' for Active; 'I' for Inactive)
REMARK    1  A    between atoms: C_1  and  C_2
REMARK    2  A    between atoms: C_2  and  C_3
REMARK    3  A    between atoms: C_2  and  C_22
REMARK    4  A    between atoms: C_3  and  N_4
REMARK    5  A    between atoms: C_9  and  C_10
REMARK    6  A    between atoms: C_13  and  O_14
REMARK    7  A    between atoms: O_14  and  C_15
REMARK    8  A    between atoms: C_25  and  C_26
REMARK                            x       y       z     vdW  Elec       q    Type
REMARK                         _______ _______ _______ _____ _____    ______ ____
ROOT
ATOM      1  N   UNL     1      50.051   6.640  15.127  0.00  0.00    +0.000 N 
ATOM      2  C   UNL     1      48.926   7.155  14.493  0.00  0.00    +0.000 A 
ATOM      3  N   UNL     1      48.614   8.450  14.637  0.00  0.00    +0.000 NA
ATOM      4  C   UNL     1      47.494   8.876  14.040  0.00  0.00    +0.000 A 
ATOM      5  C   UNL     1      46.680   8.061  13.304  0.00  0.00    +0.000 A 
ATOM      6  C   UNL     1      47.080   6.743  13.183  0.00  0.00    +0.000 A 
ATOM      7  N   UNL     1      48.197   6.285  13.791  0.00  0.00    +0.000 NA
ATOM      8  H   UNL     1      49.897   5.639  15.196  0.00  0.00    +0.000 HD
ENDROOT
BRANCH   6   9
ATOM      9  C   UNL     1      46.318   5.755  12.395  0.00  0.00    +0.000 A 
ATOM     10  C   UNL     1      45.891   6.025  11.083  0.00  0.00    +0.000 A 
ATOM     11  C   UNL     1      45.151   5.093  10.344  0.00  0.00    +0.000 A 
ATOM     12  C   UNL     1      44.870   3.842  10.878  0.00  0.00    +0.000 A 
ATOM     13  C   UNL     1      45.263   3.561  12.186  0.00  0.00    +0.000 A 
ATOM     14  C   UNL     1      45.984   4.500  12.932  0.00  0.00    +0.000 A 
BRANCH  12  15
ATOM     15  O   UNL     1      44.190   2.842  10.255  0.00  0.00    +0.000 OA
BRANCH  15  16
ATOM     16  C   UNL     1      44.733   2.247   9.084  0.00  0.00    +0.000 C 
ATOM     17  F   UNL     1      46.079   2.140   9.079  0.00  0.00    +0.000 F 
ATOM     18  F   UNL     1      44.224   1.000   8.962  0.00  0.00    +0.000 F 
ATOM     19  F   UNL     1      44.353   2.964   8.004  0.00  0.00    +0.000 F 
ENDBRANCH  15  16
ENDBRANCH  12  15
ENDBRANCH   6   9
BRANCH   1  20
ATOM     20  C   UNL     1      50.358   7.309  16.384  0.00  0.00    +0.000 C 
BRANCH  20  22
ATOM     21  C   UNL     1      50.052   7.299  18.898  0.00  0.00    +0.000 C 
ATOM     22  C   UNL     1      49.877   6.494  17.602  0.00  0.00    +0.000 C 
BRANCH  22  23
ATOM     23  C   UNL     1      50.470   5.091  17.648  0.00  0.00    +0.000 A 
ATOM     24  C   UNL     1      51.842   4.924  17.912  0.00  0.00    +0.000 A 
ATOM     25  C   UNL     1      52.424   3.656  17.914  0.00  0.00    +0.000 A 
ATOM     26  C   UNL     1      51.645   2.518  17.679  0.00  0.00    +0.000 A 
ATOM     27  C   UNL     1      50.278   2.665  17.442  0.00  0.00    +0.000 A 
ATOM     28  C   UNL     1      49.698   3.940  17.431  0.00  0.00    +0.000 A 
BRANCH  26  29
ATOM     29  C   UNL     1      52.321   1.195  17.643  0.00  0.00    +0.000 C 
ATOM     30  N   UNL     1      51.647   0.120  18.153  0.00  0.00    +0.000 N 
ATOM     31  O   UNL     1      53.453   1.064  17.194  0.00  0.00    +0.000 OA
ATOM     32  H   UNL     1      50.792   0.197  18.685  0.00  0.00    +0.000 HD
ATOM     33  H   UNL     1      52.154  -0.755  18.190  0.00  0.00    +0.000 HD
ENDBRANCH  26  29
ENDBRANCH  22  23
ENDBRANCH  20  22
ENDBRANCH   1  20
TORSDOF 7
ENDMDL
MODEL 5
REMARK VINA RESULT:    -7.442      3.809      4.773
REMARK INTER + INTRA:         -11.717
REMARK INTER:                 -11.174
REMARK INTRA:                  -0.543
REMARK UNBOUND:                -1.230
REMARK  Name = 
REMARK  8 active torsions:
REMARK  status: ('A' for Active; 'I' for Inactive)
REMARK    1  A    between atoms: C_1  and  C_2
REMARK    2  A    between atoms: C_2  and  C_3
REMARK    3  A    between atoms: C_2  and  C_22
REMARK    4  A    between atoms: C_3  and  N_4
REMARK    5  A    between atoms: C_9  and  C_10
REMARK    6  A    between atoms: C_13  and  O_14
REMARK    7  A    between atoms: O_14  and  C_15
REMARK    8  A    between atoms: C_25  and  C_26
REMARK                            x       y       z     vdW  Elec       q    Type
REMARK                         _______ _______ _______ _____ _____    ______ ____
ROOT
ATOM      1  N   UNL     1      45.519   5.523  10.979  0.00  0.00    +0.000 N 
ATOM      2  C   UNL     1      46.219   5.469  12.179  0.00  0.00    +0.000 A 
ATOM      3  N   UNL     1      45.812   4.641  13.150  0.00  0.00    +0.000 NA
ATOM      4  C   UNL     1      46.499   4.667  14.299  0.00  0.00    +0.000 A 
ATOM      5  C   UNL     1      47.576   5.482  14.511  0.00  0.00    +0.000 A 
ATOM      6  C   UNL     1      47.949   6.291  13.454  0.00  0.00    +0.000 A 
ATOM      7  N   UNL     1      47.260   6.296  12.290  0.00  0.00    +0.000 NA
ATOM      8  H   UNL     1      45.746   6.422  10.565  0.00  0.00    +0.000 HD
ENDROOT
BRANCH   6   9
ATOM      9  C   UNL     1      49.108   7.201  13.524  0.00  0.00    +0.000 A 
ATOM     10  C   UNL     1      49.842   7.374  14.711  0.00  0.00    +0.000 A 
ATOM     11  C   UNL     1      50.930   8.253  14.781  0.00  0.00    +0.000 A 
ATOM     12  C   UNL     1      51.349   8.939  13.648  0.00  0.00    +0.000 A 
ATOM     13  C   UNL     1      50.622   8.801  12.466  0.00  0.00    +0.000 A 
ATOM     14  C   UNL     1      49.522   7.938  12.402  0.00  0.00    +0.000 A 
BRANCH  12  15
ATOM     15  O   UNL     1      52.405   9.794  13.578  0.00  0.00    +0.000 OA
BRANCH  15  16
ATOM     16  C   UNL     1      53.674   9.310  13.160  0.00  0.00    +0.000 C 
ATOM     17  F   UNL     1      54.718   9.767  13.883  0.00  0.00    +0.000 F 
ATOM     18  F   UNL     1      53.671   7.961  13.255  0.00  0.00    +0.000 F 
ATOM     19  F   UNL     1      53.870   9.640  11.864  0.00  0.00    +0.000 F 
ENDBRANCH  15  16
ENDBRANCH  12  15
ENDBRANCH   6   9
BRANCH   1  20
ATOM     20  C   UNL     1      44.095   5.253  11.132  0.00  0.00    +0.000 C 
BRANCH  20  22
ATOM     21  C   UNL     1      43.365   2.856  11.496  0.00  0.00    +0.000 C 
ATOM     22  C   UNL     1      43.684   3.933  10.449  0.00  0.00    +0.000 C 
BRANCH  22  23
ATOM     23  C   UNL     1      44.666   3.492   9.371  0.00  0.00    +0.000 A 
ATOM     24  C   UNL     1      45.080   2.148   9.315  0.00  0.00    +0.000 A 
ATOM     25  C   UNL     1      46.014   1.723   8.370  0.00  0.00    +0.000 A 
ATOM     26  C   UNL     1      46.541   2.623   7.438  0.00  0.00    +0.000 A 
ATOM     27  C   UNL     1      46.120   3.954   7.464  0.00  0.00    +0.000 A 
ATOM     28  C   UNL     1      45.190   4.381   8.420  0.00  0.00    +0.000 A 
BRANCH  26  29
ATOM     29  C   UNL     1      47.569   2.132   6.485  0.00  0.00    +0.000 C 
ATOM     30  N   UNL     1      47.813   2.883   5.368  0.00  0.00    +0.000 N 
ATOM     31  O   UNL     1      48.169   1.082   6.672  0.00  0.00    +0.000 OA
ATOM     32  H   UNL     1      47.236   3.659   5.079  0.00  0.00    +0.000 HD
ATOM     33  H   UNL     1      48.461   2.493   4.694  0.00  0.00    +0.000 HD
ENDBRANCH  26  29
ENDBRANCH  22  23
ENDBRANCH  20  22
ENDBRANCH   1  20
TORSDOF 7
ENDMDL
MODEL 6
REMARK VINA RESULT:    -7.102      4.697      9.017
REMARK INTER + INTRA:         -11.238
REMARK INTER:                 -10.143
REMARK INTRA:                  -1.096
REMARK UNBOUND:                -1.230
REMARK  Name = 
REMARK  8 active torsions:
REMARK  status: ('A' for Active; 'I' for Inactive)
REMARK    1  A    between atoms: C_1  and  C_2
REMARK    2  A    between atoms: C_2  and  C_3
REMARK    3  A    between atoms: C_2  and  C_22
REMARK    4  A    between atoms: C_3  and  N_4
REMARK    5  A    between atoms: C_9  and  C_10
REMARK    6  A    between atoms: C_13  and  O_14
REMARK    7  A    between atoms: O_14  and  C_15
REMARK    8  A    between atoms: C_25  and  C_26
REMARK                            x       y       z     vdW  Elec       q    Type
REMARK                         _______ _______ _______ _____ _____    ______ ____
ROOT
ATOM      1  N   UNL     1      50.531   7.539  13.921  0.00  0.00    +0.000 N 
ATOM      2  C   UNL     1      49.261   7.887  13.478  0.00  0.00    +0.000 A 
ATOM      3  N   UNL     1      48.849   9.159  13.568  0.00  0.00    +0.000 NA
ATOM      4  C   UNL     1      47.599   9.424  13.168  0.00  0.00    +0.000 A 
ATOM      5  C   UNL     1      46.751   8.470  12.677  0.00  0.00    +0.000 A 
ATOM      6  C   UNL     1      47.256   7.186  12.593  0.00  0.00    +0.000 A 
ATOM      7  N   UNL     1      48.508   6.890  13.008  0.00  0.00    +0.000 NA
ATOM      8  H   UNL     1      50.498   6.541  14.105  0.00  0.00    +0.000 HD
ENDROOT
BRANCH   6   9
ATOM      9  C   UNL     1      46.468   6.060  12.057  0.00  0.00    +0.000 A 
ATOM     10  C   UNL     1      46.185   4.919  12.829  0.00  0.00    +0.000 A 
ATOM     11  C   UNL     1      45.454   3.843  12.312  0.00  0.00    +0.000 A 
ATOM     12  C   UNL     1      44.936   3.905  11.024  0.00  0.00    +0.000 A 
ATOM     13  C   UNL     1      45.224   5.015  10.231  0.00  0.00    +0.000 A 
ATOM     14  C   UNL     1      45.973   6.082  10.742  0.00  0.00    +0.000 A 
BRANCH  12  15
ATOM     15  O   UNL     1      44.188   2.944  10.418  0.00  0.00    +0.000 OA
BRANCH  15  16
ATOM     16  C   UNL     1      44.675   2.312   9.242  0.00  0.00    +0.000 C 
ATOM     17  F   UNL     1      46.016   2.165   9.195  0.00  0.00    +0.000 F 
ATOM     18  F   UNL     1      44.126   1.079   9.159  0.00  0.00    +0.000 F 
ATOM     19  F   UNL     1      44.281   3.022   8.161  0.00  0.00    +0.000 F 
ENDBRANCH  15  16
ENDBRANCH  12  15
ENDBRANCH   6   9
BRANCH   1  20
ATOM     20  C   UNL     1      50.997   8.358  15.033  0.00  0.00    +0.000 C 
BRANCH  20  22
ATOM     21  C   UNL     1      52.927   6.898  15.780  0.00  0.00    +0.000 C 
ATOM     22  C   UNL     1      51.572   7.501  16.179  0.00  0.00    +0.000 C 
BRANCH  22  23
ATOM     23  C   UNL     1      50.569   6.490  16.723  0.00  0.00    +0.000 A 
ATOM     24  C   UNL     1      51.002   5.196  17.067  0.00  0.00    +0.000 A 
ATOM     25  C   UNL     1      50.101   4.234  17.523  0.00  0.00    +0.000 A 
ATOM     26  C   UNL     1      48.746   4.546  17.673  0.00  0.00    +0.000 A 
ATOM     27  C   UNL     1      48.305   5.833  17.361  0.00  0.00    +0.000 A 
ATOM     28  C   UNL     1      49.210   6.794  16.894  0.00  0.00    +0.000 A 
BRANCH  26  29
ATOM     29  C   UNL     1      47.819   3.472  18.114  0.00  0.00    +0.000 C 
ATOM     30  N   UNL     1      48.091   2.842  19.297  0.00  0.00    +0.000 N 
ATOM     31  O   UNL     1      46.853   3.140  17.439  0.00  0.00    +0.000 OA
ATOM     32  H   UNL     1      48.956   2.954  19.805  0.00  0.00    +0.000 HD
ATOM     33  H   UNL     1      47.492   2.063  19.542  0.00  0.00    +0.000 HD
ENDBRANCH  26  29
ENDBRANCH  22  23
ENDBRANCH  20  22
ENDBRANCH   1  20
TORSDOF 7
ENDMDL
MODEL 7
REMARK VINA RESULT:    -6.930      4.889      9.235
REMARK INTER + INTRA:         -10.995
REMARK INTER:                  -9.751
REMARK INTRA:                  -1.244
REMARK UNBOUND:                -1.230
REMARK  Name = 
REMARK  8 active torsions:
REMARK  status: ('A' for Active; 'I' for Inactive)
REMARK    1  A    between atoms: C_1  and  C_2
REMARK    2  A    between atoms: C_2  and  C_3
REMARK    3  A    between atoms: C_2  and  C_22
REMARK    4  A    between atoms: C_3  and  N_4
REMARK    5  A    between atoms: C_9  and  C_10
REMARK    6  A    between atoms: C_13  and  O_14
REMARK    7  A    between atoms: O_14  and  C_15
REMARK    8  A    between atoms: C_25  and  C_26
REMARK                            x       y       z     vdW  Elec       q    Type
REMARK                         _______ _______ _______ _____ _____    ______ ____
ROOT
ATOM      1  N   UNL     1      46.982   8.400  12.298  0.00  0.00    +0.000 N 
ATOM      2  C   UNL     1      46.035   7.395  12.136  0.00  0.00    +0.000 A 
ATOM      3  N   UNL     1      45.043   7.264  13.027  0.00  0.00    +0.000 NA
ATOM      4  C   UNL     1      44.189   6.249  12.843  0.00  0.00    +0.000 A 
ATOM      5  C   UNL     1      44.287   5.367  11.803  0.00  0.00    +0.000 A 
ATOM      6  C   UNL     1      45.324   5.580  10.913  0.00  0.00    +0.000 A 
ATOM      7  N   UNL     1      46.209   6.588  11.088  0.00  0.00    +0.000 NA
ATOM      8  H   UNL     1      47.797   8.102  11.772  0.00  0.00    +0.000 HD
ENDROOT
BRANCH   6   9
ATOM      9  C   UNL     1      45.537   4.729   9.727  0.00  0.00    +0.000 A 
ATOM     10  C   UNL     1      46.301   5.164   8.630  0.00  0.00    +0.000 A 
ATOM     11  C   UNL     1      46.486   4.362   7.498  0.00  0.00    +0.000 A 
ATOM     12  C   UNL     1      45.958   3.078   7.457  0.00  0.00    +0.000 A 
ATOM     13  C   UNL     1      45.176   2.633   8.523  0.00  0.00    +0.000 A 
ATOM     14  C   UNL     1      44.974   3.444   9.646  0.00  0.00    +0.000 A 
BRANCH  12  15
ATOM     15  O   UNL     1      46.091   2.192   6.433  0.00  0.00    +0.000 OA
BRANCH  15  16
ATOM     16  C   UNL     1      47.240   1.358   6.370  0.00  0.00    +0.000 C 
ATOM     17  F   UNL     1      46.975   0.037   6.312  0.00  0.00    +0.000 F 
ATOM     18  F   UNL     1      47.945   1.683   5.263  0.00  0.00    +0.000 F 
ATOM     19  F   UNL     1      48.019   1.594   7.449  0.00  0.00    +0.000 F 
ENDBRANCH  15  16
ENDBRANCH  12  15
ENDBRANCH   6   9
BRANCH   1  20
ATOM     20  C   UNL     1      47.232   8.733  13.694  0.00  0.00    +0.000 C 
BRANCH  20  22
ATOM     21  C   UNL     1      49.509   7.846  13.027  0.00  0.00    +0.000 C 
ATOM     22  C   UNL     1      48.560   8.133  14.200  0.00  0.00    +0.000 C 
BRANCH  22  23
ATOM     23  C   UNL     1      48.355   6.956  15.146  0.00  0.00    +0.000 A 
ATOM     24  C   UNL     1      47.724   5.788  14.678  0.00  0.00    +0.000 A 
ATOM     25  C   UNL     1      47.480   4.712  15.530  0.00  0.00    +0.000 A 
ATOM     26  C   UNL     1      47.883   4.761  16.869  0.00  0.00    +0.000 A 
ATOM     27  C   UNL     1      48.534   5.902  17.341  0.00  0.00    +0.000 A 
ATOM     28  C   UNL     1      48.770   6.985  16.486  0.00  0.00    +0.000 A 
BRANCH  26  29
ATOM     29  C   UNL     1      47.555   3.610  17.748  0.00  0.00    +0.000 C 
ATOM     30  N   UNL     1      48.281   3.459  18.898  0.00  0.00    +0.000 N 
ATOM     31  O   UNL     1      46.682   2.804  17.453  0.00  0.00    +0.000 OA
ATOM     32  H   UNL     1      49.116   3.987  19.105  0.00  0.00    +0.000 HD
ATOM     33  H   UNL     1      48.095   2.627  19.443  0.00  0.00    +0.000 HD
ENDBRANCH  26  29
ENDBRANCH  22  23
ENDBRANCH  20  22
ENDBRANCH   1  20
TORSDOF 7
ENDMDL
MODEL 8
REMARK VINA RESULT:    -6.792      4.580      8.826
REMARK INTER + INTRA:         -10.801
REMARK INTER:                  -9.220
REMARK INTRA:                  -1.580
REMARK UNBOUND:                -1.230
REMARK  Name = 
REMARK  8 active torsions:
REMARK  status: ('A' for Active; 'I' for Inactive)
REMARK    1  A    between atoms: C_1  and  C_2
REMARK    2  A    between atoms: C_2  and  C_3
REMARK    3  A    between atoms: C_2  and  C_22
REMARK    4  A    between atoms: C_3  and  N_4
REMARK    5  A    between atoms: C_9  and  C_10
REMARK    6  A    between atoms: C_13  and  O_14
REMARK    7  A    between atoms: O_14  and  C_15
REMARK    8  A    between atoms: C_25  and  C_26
REMARK                            x       y       z     vdW  Elec       q    Type
REMARK                         _______ _______ _______ _____ _____    ______ ____
ROOT
ATOM      1  N   UNL     1      51.672   7.624  14.495  0.00  0.00    +0.000 N 
ATOM      2  C   UNL     1      50.342   8.001  14.354  0.00  0.00    +0.000 A 
ATOM      3  N   UNL     1      49.957   9.233  14.711  0.00  0.00    +0.000 NA
ATOM      4  C   UNL     1      48.655   9.522  14.596  0.00  0.00    +0.000 A 
ATOM      5  C   UNL     1      47.727   8.630  14.133  0.00  0.00    +0.000 A 
ATOM      6  C   UNL     1      48.205   7.387  13.763  0.00  0.00    +0.000 A 
ATOM      7  N   UNL     1      49.512   7.065  13.887  0.00  0.00    +0.000 NA
ATOM      8  H   UNL     1      51.672   6.610  14.528  0.00  0.00    +0.000 HD
ENDROOT
BRANCH   6   9
ATOM      9  C   UNL     1      47.327   6.333  13.218  0.00  0.00    +0.000 A 
ATOM     10  C   UNL     1      47.172   5.092  13.863  0.00  0.00    +0.000 A 
ATOM     11  C   UNL     1      46.354   4.087  13.334  0.00  0.00    +0.000 A 
ATOM     12  C   UNL     1      45.624   4.316  12.174  0.00  0.00    +0.000 A 
ATOM     13  C   UNL     1      45.781   5.530  11.505  0.00  0.00    +0.000 A 
ATOM     14  C   UNL     1      46.615   6.528  12.023  0.00  0.00    +0.000 A 
BRANCH  12  15
ATOM     15  O   UNL     1      44.775   3.436  11.578  0.00  0.00    +0.000 OA
BRANCH  15  16
ATOM     16  C   UNL     1      43.418   3.377  11.995  0.00  0.00    +0.000 C 
ATOM     17  F   UNL     1      43.203   3.756  13.272  0.00  0.00    +0.000 F 
ATOM     18  F   UNL     1      42.689   4.191  11.199  0.00  0.00    +0.000 F 
ATOM     19  F   UNL     1      42.960   2.115  11.838  0.00  0.00    +0.000 F 
ENDBRANCH  15  16
ENDBRANCH  12  15
ENDBRANCH   6   9
BRANCH   1  20
ATOM     20  C   UNL     1      52.340   8.280  15.611  0.00  0.00    +0.000 C 
BRANCH  20  22
ATOM     21  C   UNL     1      53.536   6.353  16.738  0.00  0.00    +0.000 C 
ATOM     22  C   UNL     1      52.398   7.377  16.860  0.00  0.00    +0.000 C 
BRANCH  22  23
ATOM     23  C   UNL     1      51.045   6.774  17.217  0.00  0.00    +0.000 A 
ATOM     24  C   UNL     1      50.833   5.392  17.053  0.00  0.00    +0.000 A 
ATOM     25  C   UNL     1      49.592   4.817  17.326  0.00  0.00    +0.000 A 
ATOM     26  C   UNL     1      48.535   5.603  17.797  0.00  0.00    +0.000 A 
ATOM     27  C   UNL     1      48.737   6.970  17.990  0.00  0.00    +0.000 A 
ATOM     28  C   UNL     1      49.981   7.547  17.706  0.00  0.00    +0.000 A 
BRANCH  26  29
ATOM     29  C   UNL     1      47.219   4.952  18.026  0.00  0.00    +0.000 C 
ATOM     30  N   UNL     1      46.382   5.514  18.950  0.00  0.00    +0.000 N 
ATOM     31  O   UNL     1      46.893   3.935  17.428  0.00  0.00    +0.000 OA
ATOM     32  H   UNL     1      46.663   6.244  19.589  0.00  0.00    +0.000 HD
ATOM     33  H   UNL     1      45.525   5.013  19.147  0.00  0.00    +0.000 HD
ENDBRANCH  26  29
ENDBRANCH  22  23
ENDBRANCH  20  22
ENDBRANCH   1  20
TORSDOF 7
ENDMDL
MODEL 9
REMARK VINA RESULT:    -6.697      4.831      9.096
REMARK INTER + INTRA:         -10.667
REMARK INTER:                  -9.503
REMARK INTRA:                  -1.164
REMARK UNBOUND:                -1.230
REMARK  Name = 
REMARK  8 active torsions:
REMARK  status: ('A' for Active; 'I' for Inactive)
REMARK    1  A    between atoms: C_1  and  C_2
REMARK    2  A    between atoms: C_2  and  C_3
REMARK    3  A    between atoms: C_2  and  C_22
REMARK    4  A    between atoms: C_3  and  N_4
REMARK    5  A    between atoms: C_9  and  C_10
REMARK    6  A    between atoms: C_13  and  O_14
REMARK    7  A    between atoms: O_14  and  C_15
REMARK    8  A    between atoms: C_25  and  C_26
REMARK                            x       y       z     vdW  Elec       q    Type
REMARK                         _______ _______ _______ _____ _____    ______ ____
ROOT
ATOM      1  N   UNL     1      51.509   6.981  15.524  0.00  0.00    +0.000 N 
ATOM      2  C   UNL     1      50.291   7.535  15.146  0.00  0.00    +0.000 A 
ATOM      3  N   UNL     1      50.024   8.816  15.431  0.00  0.00    +0.000 NA
ATOM      4  C   UNL     1      48.816   9.279  15.083  0.00  0.00    +0.000 A 
ATOM      5  C   UNL     1      47.872   8.512  14.459  0.00  0.00    +0.000 A 
ATOM      6  C   UNL     1      48.229   7.207  14.178  0.00  0.00    +0.000 A 
ATOM      7  N   UNL     1      49.436   6.712  14.536  0.00  0.00    +0.000 NA
ATOM      8  H   UNL     1      51.361   5.978  15.554  0.00  0.00    +0.000 HD
ENDROOT
BRANCH   6   9
ATOM      9  C   UNL     1      47.326   6.272  13.482  0.00  0.00    +0.000 A 
ATOM     10  C   UNL     1      46.618   6.648  12.326  0.00  0.00    +0.000 A 
ATOM     11  C   UNL     1      45.746   5.765  11.678  0.00  0.00    +0.000 A 
ATOM     12  C   UNL     1      45.602   4.461  12.136  0.00  0.00    +0.000 A 
ATOM     13  C   UNL     1      46.275   4.073  13.294  0.00  0.00    +0.000 A 
ATOM     14  C   UNL     1      47.131   4.963  13.954  0.00  0.00    +0.000 A 
BRANCH  12  15
ATOM     15  O   UNL     1      44.813   3.502  11.581  0.00  0.00    +0.000 OA
BRANCH  15  16
ATOM     16  C   UNL     1      43.431   3.455  11.905  0.00  0.00    +0.000 C 
ATOM     17  F   UNL     1      43.136   3.820  13.170  0.00  0.00    +0.000 F 
ATOM     18  F   UNL     1      42.767   4.291  11.074  0.00  0.00    +0.000 F 
ATOM     19  F   UNL     1      42.969   2.202  11.699  0.00  0.00    +0.000 F 
ENDBRANCH  15  16
ENDBRANCH  12  15
ENDBRANCH   6   9
BRANCH   1  20
ATOM     20  C   UNL     1      52.051   7.565  16.744  0.00  0.00    +0.000 C 
BRANCH  20  22
ATOM     21  C   UNL     1      52.222   7.405  19.266  0.00  0.00    +0.000 C 
ATOM     22  C   UNL     1      51.642   6.764  17.997  0.00  0.00    +0.000 C 
BRANCH  22  23
ATOM     23  C   UNL     1      51.921   5.272  17.862  0.00  0.00    +0.000 A 
ATOM     24  C   UNL     1      50.856   4.383  17.623  0.00  0.00    +0.000 A 
ATOM     25  C   UNL     1      51.072   3.008  17.542  0.00  0.00    +0.000 A 
ATOM     26  C   UNL     1      52.362   2.483  17.672  0.00  0.00    +0.000 A 
ATOM     27  C   UNL     1      53.432   3.353  17.883  0.00  0.00    +0.000 A 
ATOM     28  C   UNL     1      53.212   4.734  17.973  0.00  0.00    +0.000 A 
BRANCH  26  29
ATOM     29  C   UNL     1      52.533   1.008  17.628  0.00  0.00    +0.000 C 
ATOM     30  N   UNL     1      51.534   0.235  18.153  0.00  0.00    +0.000 N 
ATOM     31  O   UNL     1      53.539   0.491  17.158  0.00  0.00    +0.000 OA
ATOM     32  H   UNL     1      50.770   0.604  18.700  0.00  0.00    +0.000 HD
ATOM     33  H   UNL     1      51.704  -0.763  18.183  0.00  0.00    +0.000 HD
ENDBRANCH  26  29
ENDBRANCH  22  23
ENDBRANCH  20  22
ENDBRANCH   1  20
TORSDOF 7
ENDMDL
