MODEL 1
REMARK VINA RESULT:    -7.915      0.000      0.000
REMARK INTER + INTRA:         -11.496
REMARK INTER:                 -10.691
REMARK INTRA:                  -0.805
REMARK UNBOUND:                -0.805
REMARK  Name = 
REMARK  6 active torsions:
REMARK  status: ('A' for Active; 'I' for Inactive)
REMARK    1  A    between atoms: C_2  and  C_25
REMARK    2  A    between atoms: N_3  and  C_4
REMARK    3  A    between atoms: C_4  and  C_5
REMARK    4  A    between atoms: C_8  and  C_9
REMARK    5  A    between atoms: C_9  and  N_10
REMARK    6  A    between atoms: C_11  and  C_13
REMARK                            x       y       z     vdW  Elec       q    Type
REMARK                         _______ _______ _______ _____ _____    ______ ____
ROOT
ATOM      1  C   UNL     1      44.650   5.255  11.158  0.00  0.00    +0.000 A 
ATOM      2  C   UNL     1      44.361   6.622  11.152  0.00  0.00    +0.000 A 
ATOM      3  C   UNL     1      45.153   7.507  11.879  0.00  0.00    +0.000 A 
ATOM      4  C   UNL     1      46.206   7.003  12.636  0.00  0.00    +0.000 A 
ATOM      5  N   UNL     1      46.515   5.680  12.654  0.00  0.00    +0.000 NA
ATOM      6  C   UNL     1      45.739   4.847  11.919  0.00  0.00    +0.000 A 
ENDROOT
BRANCH   1   7
ATOM      7  C   UNL     1      43.840   4.284  10.354  0.00  0.00    +0.000 C 
BRANCH   7  10
ATOM      8  O   UNL     1      45.481   4.738   8.149  0.00  0.00    +0.000 OA
ATOM      9  C   UNL     1      45.405   3.602   8.602  0.00  0.00    +0.000 C 
ATOM     10  N   UNL     1      44.627   3.274   9.693  0.00  0.00    +0.000 N 
ATOM     11  H   UNL     1      44.644   2.308  10.002  0.00  0.00    +0.000 HD
BRANCH   9  12
ATOM     12  C   UNL     1      46.138   2.468   8.035  0.00  0.00    +0.000 A 
ATOM     13  C   UNL     1      47.134   2.530   7.077  0.00  0.00    +0.000 A 
ATOM     14  N   UNL     1      47.515   1.234   6.859  0.00  0.00    +0.000 N 
ATOM     15  C   UNL     1      46.757   0.439   7.670  0.00  0.00    +0.000 A 
ATOM     16  N   UNL     1      45.919   1.145   8.399  0.00  0.00    +0.000 NA
ATOM     17  H   UNL     1      48.228   0.918   6.212  0.00  0.00    +0.000 HD
ENDBRANCH   9  12
ENDBRANCH   7  10
ENDBRANCH   1   7
BRANCH   4  18
ATOM     18  C   UNL     1      47.048   7.930  13.480  0.00  0.00    +0.000 C 
BRANCH  18  19
ATOM     19  N   UNL     1      47.534   7.302  14.688  0.00  0.00    +0.000 N 
ATOM     20  C   UNL     1      48.810   6.825  14.813  0.00  0.00    +0.000 C 
ATOM     21  O   UNL     1      49.623   6.880  13.896  0.00  0.00    +0.000 OA
ATOM     22  H   UNL     1      46.820   7.029  15.358  0.00  0.00    +0.000 HD
BRANCH  20  23
ATOM     23  C   UNL     1      49.182   6.307  16.137  0.00  0.00    +0.000 A 
ATOM     24  C   UNL     1      50.149   6.962  16.886  0.00  0.00    +0.000 A 
ATOM     25  S   UNL     1      50.436   6.247  18.408  0.00  0.00    +0.000 S 
ATOM     26  C   UNL     1      49.308   5.013  18.102  0.00  0.00    +0.000 A 
ATOM     27  N   UNL     1      49.086   4.025  19.011  0.00  0.00    +0.000 NA
ATOM     28  C   UNL     1      48.226   3.139  18.638  0.00  0.00    +0.000 A 
ATOM     29  N   UNL     1      47.556   3.156  17.442  0.00  0.00    +0.000 N 
ATOM     30  C   UNL     1      47.706   4.163  16.519  0.00  0.00    +0.000 A 
ATOM     31  O   UNL     1      47.013   4.199  15.508  0.00  0.00    +0.000 OA
ATOM     32  C   UNL     1      48.699   5.165  16.871  0.00  0.00    +0.000 A 
ATOM     33  H   UNL     1      46.873   2.448  17.219  0.00  0.00    +0.000 HD
ENDBRANCH  20  23
ENDBRANCH  18  19
ENDBRANCH   4  18
TORSDOF 6
ENDMDL
MODEL 2
REMARK VINA RESULT:    -7.319      1.778      2.248
REMARK INTER + INTRA:         -10.690
REMARK INTER:                  -9.697
REMARK INTRA:                  -0.993
REMARK UNBOUND:                -0.805
REMARK  Name = 
REMARK  6 active torsions:
REMARK  status: ('A' for Active; 'I' for Inactive)
REMARK    1  A    between atoms: C_2  and  C_25
REMARK    2  A    between atoms: N_3  and  C_4
REMARK    3  A    between atoms: C_4  and  C_5
REMARK    4  A    between atoms: C_8  and  C_9
REMARK    5  A    between atoms: C_9  and  N_10
REMARK    6  A    between atoms: C_11  and  C_13
REMARK                            x       y       z     vdW  Elec       q    Type
REMARK                         _______ _______ _______ _____ _____    ______ ____
ROOT
ATOM      1  C   UNL     1      44.852   4.953  11.588  0.00  0.00    +0.000 A 
ATOM      2  C   UNL     1      45.652   4.951  12.733  0.00  0.00    +0.000 A 
ATOM      3  C   UNL     1      46.153   6.148  13.238  0.00  0.00    +0.000 A 
ATOM      4  C   UNL     1      45.876   7.333  12.563  0.00  0.00    +0.000 A 
ATOM      5  N   UNL     1      45.095   7.365  11.453  0.00  0.00    +0.000 NA
ATOM      6  C   UNL     1      44.604   6.187  10.997  0.00  0.00    +0.000 A 
ENDROOT
BRANCH   1   7
ATOM      7  C   UNL     1      44.267   3.686  11.044  0.00  0.00    +0.000 C 
BRANCH   7  10
ATOM      8  O   UNL     1      44.399   3.892   8.269  0.00  0.00    +0.000 OA
ATOM      9  C   UNL     1      45.152   3.110   8.837  0.00  0.00    +0.000 C 
ATOM     10  N   UNL     1      45.169   2.938  10.206  0.00  0.00    +0.000 N 
ATOM     11  H   UNL     1      45.842   2.278  10.582  0.00  0.00    +0.000 HD
BRANCH   9  12
ATOM     12  C   UNL     1      46.120   2.276   8.122  0.00  0.00    +0.000 A 
ATOM     13  C   UNL     1      47.130   2.720   7.288  0.00  0.00    +0.000 A 
ATOM     14  N   UNL     1      47.768   1.592   6.850  0.00  0.00    +0.000 N 
ATOM     15  C   UNL     1      47.141   0.519   7.415  0.00  0.00    +0.000 A 
ATOM     16  N   UNL     1      46.146   0.889   8.193  0.00  0.00    +0.000 NA
ATOM     17  H   UNL     1      48.560   1.557   6.219  0.00  0.00    +0.000 HD
ENDBRANCH   9  12
ENDBRANCH   7  10
ENDBRANCH   1   7
BRANCH   4  18
ATOM     18  C   UNL     1      46.452   8.640  13.052  0.00  0.00    +0.000 C 
BRANCH  18  19
ATOM     19  N   UNL     1      47.048   8.535  14.364  0.00  0.00    +0.000 N 
ATOM     20  C   UNL     1      48.230   9.143  14.691  0.00  0.00    +0.000 C 
ATOM     21  O   UNL     1      48.874   9.802  13.882  0.00  0.00    +0.000 OA
ATOM     22  H   UNL     1      46.668   7.807  14.962  0.00  0.00    +0.000 HD
BRANCH  20  23
ATOM     23  C   UNL     1      48.652   9.026  16.094  0.00  0.00    +0.000 A 
ATOM     24  C   UNL     1      48.671  10.152  16.905  0.00  0.00    +0.000 A 
ATOM     25  S   UNL     1      49.156   9.833  18.509  0.00  0.00    +0.000 S 
ATOM     26  C   UNL     1      49.397   8.186  18.166  0.00  0.00    +0.000 A 
ATOM     27  N   UNL     1      49.852   7.331  19.121  0.00  0.00    +0.000 NA
ATOM     28  C   UNL     1      50.017   6.116  18.718  0.00  0.00    +0.000 A 
ATOM     29  N   UNL     1      49.756   5.675  17.447  0.00  0.00    +0.000 N 
ATOM     30  C   UNL     1      49.243   6.489  16.465  0.00  0.00    +0.000 A 
ATOM     31  O   UNL     1      48.925   6.035  15.372  0.00  0.00    +0.000 OA
ATOM     32  C   UNL     1      49.080   7.880  16.856  0.00  0.00    +0.000 A 
ATOM     33  H   UNL     1      49.879   4.705  17.198  0.00  0.00    +0.000 HD
ENDBRANCH  20  23
ENDBRANCH  18  19
ENDBRANCH   4  18
TORSDOF 6
ENDMDL
MODEL 3
REMARK VINA RESULT:    -7.183      3.116      4.822
REMARK INTER + INTRA:         -10.507
REMARK INTER:                  -9.642
REMARK INTRA:                  -0.866
REMARK UNBOUND:                -0.805
REMARK  Name = 
REMARK  6 active torsions:
REMARK  status: ('A' for Active; 'I' for Inactive)
REMARK    1  A    between atoms: C_2  and  C_25
REMARK    2  A    between atoms: N_3  and  C_4
REMARK    3  A    between atoms: C_4  and  C_5
REMARK    4  A    between atoms: C_8  and  C_9
REMARK    5  A    between atoms: C_9  and  N_10
REMARK    6  A    between atoms: C_11  and  C_13
REMARK                            x       y       z     vdW  Elec       q    Type
REMARK                         _______ _______ _______ _____ _____    ______ ____
ROOT
ATOM      1  C   UNL     1      47.193   5.465  13.940  0.00  0.00    +0.000 A 
ATOM      2  C   UNL     1      47.719   6.032  15.103  0.00  0.00    +0.000 A 
ATOM      3  C   UNL     1      47.970   5.235  16.218  0.00  0.00    +0.000 A 
ATOM      4  C   UNL     1      47.654   3.882  16.165  0.00  0.00    +0.000 A 
ATOM      5  N   UNL     1      47.149   3.303  15.045  0.00  0.00    +0.000 NA
ATOM      6  C   UNL     1      46.936   4.099  13.969  0.00  0.00    +0.000 A 
ENDROOT
BRANCH   1   7
ATOM      7  C   UNL     1      46.949   6.289  12.713  0.00  0.00    +0.000 C 
BRANCH   7  10
ATOM      8  O   UNL     1      44.383   6.200  11.633  0.00  0.00    +0.000 OA
ATOM      9  C   UNL     1      45.266   5.537  11.104  0.00  0.00    +0.000 C 
ATOM     10  N   UNL     1      46.569   5.516  11.557  0.00  0.00    +0.000 N 
ATOM     11  H   UNL     1      47.232   4.948  11.040  0.00  0.00    +0.000 HD
BRANCH   9  12
ATOM     12  C   UNL     1      45.035   4.696   9.927  0.00  0.00    +0.000 A 
ATOM     13  C   UNL     1      44.173   3.618   9.845  0.00  0.00    +0.000 A 
ATOM     14  N   UNL     1      44.295   3.147   8.566  0.00  0.00    +0.000 N 
ATOM     15  C   UNL     1      45.208   3.932   7.923  0.00  0.00    +0.000 A 
ATOM     16  N   UNL     1      45.673   4.881   8.707  0.00  0.00    +0.000 NA
ATOM     17  H   UNL     1      43.801   2.357   8.167  0.00  0.00    +0.000 HD
ENDBRANCH   9  12
ENDBRANCH   7  10
ENDBRANCH   1   7
BRANCH   4  18
ATOM     18  C   UNL     1      47.861   3.003  17.375  0.00  0.00    +0.000 C 
BRANCH  18  19
ATOM     19  N   UNL     1      49.250   2.886  17.752  0.00  0.00    +0.000 N 
ATOM     20  C   UNL     1      50.156   2.164  17.022  0.00  0.00    +0.000 C 
ATOM     21  O   UNL     1      49.842   1.551  16.008  0.00  0.00    +0.000 OA
ATOM     22  H   UNL     1      49.474   3.173  18.700  0.00  0.00    +0.000 HD
BRANCH  20  23
ATOM     23  C   UNL     1      51.552   2.225  17.480  0.00  0.00    +0.000 A 
ATOM     24  C   UNL     1      52.250   1.049  17.717  0.00  0.00    +0.000 A 
ATOM     25  S   UNL     1      53.863   1.299  18.212  0.00  0.00    +0.000 S 
ATOM     26  C   UNL     1      53.673   2.988  18.167  0.00  0.00    +0.000 A 
ATOM     27  N   UNL     1      54.693   3.817  18.517  0.00  0.00    +0.000 NA
ATOM     28  C   UNL     1      54.403   5.073  18.463  0.00  0.00    +0.000 A 
ATOM     29  N   UNL     1      53.187   5.578  18.080  0.00  0.00    +0.000 N 
ATOM     30  C   UNL     1      52.148   4.781  17.664  0.00  0.00    +0.000 A 
ATOM     31  O   UNL     1      51.111   5.272  17.229  0.00  0.00    +0.000 OA
ATOM     32  C   UNL     1      52.408   3.353  17.748  0.00  0.00    +0.000 A 
ATOM     33  H   UNL     1      53.029   6.573  18.031  0.00  0.00    +0.000 HD
ENDBRANCH  20  23
ENDBRANCH  18  19
ENDBRANCH   4  18
TORSDOF 6
ENDMDL
MODEL 4
REMARK VINA RESULT:    -7.008      3.678      8.484
REMARK INTER + INTRA:         -10.271
REMARK INTER:                  -9.293
REMARK INTRA:                  -0.978
REMARK UNBOUND:                -0.805
REMARK  Name = 
REMARK  6 active torsions:
REMARK  status: ('A' for Active; 'I' for Inactive)
REMARK    1  A    between atoms: C_2  and  C_25
REMARK    2  A    between atoms: N_3  and  C_4
REMARK    3  A    between atoms: C_4  and  C_5
REMARK    4  A    between atoms: C_8  and  C_9
REMARK    5  A    between atoms: C_9  and  N_10
REMARK    6  A    between atoms: C_11  and  C_13
REMARK                            x       y       z     vdW  Elec       q    Type
REMARK                         _______ _______ _______ _____ _____    ______ ____
ROOT
ATOM      1  C   UNL     1      49.459   5.088  17.309  0.00  0.00    +0.000 A 
ATOM      2  C   UNL     1      49.979   6.336  16.956  0.00  0.00    +0.000 A 
ATOM      3  C   UNL     1      49.481   7.011  15.844  0.00  0.00    +0.000 A 
ATOM      4  C   UNL     1      48.492   6.408  15.075  0.00  0.00    +0.000 A 
ATOM      5  N   UNL     1      47.963   5.199  15.400  0.00  0.00    +0.000 NA
ATOM      6  C   UNL     1      48.452   4.576  16.499  0.00  0.00    +0.000 A 
ENDROOT
BRANCH   1   7
ATOM      7  C   UNL     1      49.947   4.356  18.522  0.00  0.00    +0.000 C 
BRANCH   7  10
ATOM      8  O   UNL     1      52.724   4.387  18.309  0.00  0.00    +0.000 OA
ATOM      9  C   UNL     1      52.133   3.328  18.133  0.00  0.00    +0.000 C 
ATOM     10  N   UNL     1      50.762   3.206  18.221  0.00  0.00    +0.000 N 
ATOM     11  H   UNL     1      50.367   2.283  18.075  0.00  0.00    +0.000 HD
BRANCH   9  12
ATOM     12  C   UNL     1      52.821   2.076  17.814  0.00  0.00    +0.000 A 
ATOM     13  C   UNL     1      52.253   0.815  17.772  0.00  0.00    +0.000 A 
ATOM     14  N   UNL     1      53.271  -0.036  17.438  0.00  0.00    +0.000 N 
ATOM     15  C   UNL     1      54.403   0.714  17.292  0.00  0.00    +0.000 A 
ATOM     16  N   UNL     1      54.172   1.992  17.504  0.00  0.00    +0.000 NA
ATOM     17  H   UNL     1      53.202  -1.039  17.322  0.00  0.00    +0.000 HD
ENDBRANCH   9  12
ENDBRANCH   7  10
ENDBRANCH   1   7
BRANCH   4  18
ATOM     18  C   UNL     1      47.972   7.088  13.832  0.00  0.00    +0.000 C 
BRANCH  18  19
ATOM     19  N   UNL     1      47.189   6.207  12.996  0.00  0.00    +0.000 N 
ATOM     20  C   UNL     1      46.411   6.663  11.966  0.00  0.00    +0.000 C 
ATOM     21  O   UNL     1      46.312   7.855  11.697  0.00  0.00    +0.000 OA
ATOM     22  H   UNL     1      47.064   5.263  13.349  0.00  0.00    +0.000 HD
BRANCH  20  23
ATOM     23  C   UNL     1      45.756   5.634  11.146  0.00  0.00    +0.000 A 
ATOM     24  C   UNL     1      45.885   5.669   9.764  0.00  0.00    +0.000 A 
ATOM     25  S   UNL     1      45.089   4.387   8.970  0.00  0.00    +0.000 S 
ATOM     26  C   UNL     1      44.508   3.763  10.441  0.00  0.00    +0.000 A 
ATOM     27  N   UNL     1      43.712   2.661  10.469  0.00  0.00    +0.000 NA
ATOM     28  C   UNL     1      43.321   2.313  11.649  0.00  0.00    +0.000 A 
ATOM     29  N   UNL     1      43.663   2.962  12.806  0.00  0.00    +0.000 N 
ATOM     30  C   UNL     1      44.510   4.045  12.832  0.00  0.00    +0.000 A 
ATOM     31  O   UNL     1      44.876   4.534  13.895  0.00  0.00    +0.000 OA
ATOM     32  C   UNL     1      44.944   4.504  11.523  0.00  0.00    +0.000 A 
ATOM     33  H   UNL     1      43.348   2.626  13.703  0.00  0.00    +0.000 HD
ENDBRANCH  20  23
ENDBRANCH  18  19
ENDBRANCH   4  18
TORSDOF 6
ENDMDL
MODEL 5
REMARK VINA RESULT:    -6.559      3.440      8.211
REMARK INTER + INTRA:          -9.664
REMARK INTER:                  -8.928
REMARK INTRA:                  -0.736
REMARK UNBOUND:                -0.805
REMARK  Name = 
REMARK  6 active torsions:
REMARK  status: ('A' for Active; 'I' for Inactive)
REMARK    1  A    between atoms: C_2  and  C_25
REMARK    2  A    between atoms: N_3  and  C_4
REMARK    3  A    between atoms: C_4  and  C_5
REMARK    4  A    between atoms: C_8  and  C_9
REMARK    5  A    between atoms: C_9  and  N_10
REMARK    6  A    between atoms: C_11  and  C_13
REMARK                            x       y       z     vdW  Elec       q    Type
REMARK                         _______ _______ _______ _____ _____    ______ ____
ROOT
ATOM      1  C   UNL     1      50.395   7.454  15.529  0.00  0.00    +0.000 A 
ATOM      2  C   UNL     1      50.637   8.609  14.781  0.00  0.00    +0.000 A 
ATOM      3  C   UNL     1      49.851   8.900  13.669  0.00  0.00    +0.000 A 
ATOM      4  C   UNL     1      48.853   8.005  13.297  0.00  0.00    +0.000 A 
ATOM      5  N   UNL     1      48.591   6.879  14.010  0.00  0.00    +0.000 NA
ATOM      6  C   UNL     1      49.358   6.634  15.099  0.00  0.00    +0.000 A 
ENDROOT
BRANCH   1   7
ATOM      7  C   UNL     1      51.199   7.136  16.752  0.00  0.00    +0.000 C 
BRANCH   7  10
ATOM      8  O   UNL     1      49.852   5.336  18.398  0.00  0.00    +0.000 OA
ATOM      9  C   UNL     1      50.801   4.931  17.736  0.00  0.00    +0.000 C 
ATOM     10  N   UNL     1      51.529   5.740  16.887  0.00  0.00    +0.000 N 
ATOM     11  H   UNL     1      52.286   5.307  16.369  0.00  0.00    +0.000 HD
BRANCH   9  12
ATOM     12  C   UNL     1      51.261   3.541  17.770  0.00  0.00    +0.000 A 
ATOM     13  C   UNL     1      52.378   3.062  18.431  0.00  0.00    +0.000 A 
ATOM     14  N   UNL     1      52.407   1.718  18.177  0.00  0.00    +0.000 N 
ATOM     15  C   UNL     1      51.333   1.426  17.385  0.00  0.00    +0.000 A 
ATOM     16  N   UNL     1      50.615   2.496  17.122  0.00  0.00    +0.000 NA
ATOM     17  H   UNL     1      53.099   1.059  18.511  0.00  0.00    +0.000 HD
ENDBRANCH   9  12
ENDBRANCH   7  10
ENDBRANCH   1   7
BRANCH   4  18
ATOM     18  C   UNL     1      48.021   8.263  12.063  0.00  0.00    +0.000 C 
BRANCH  18  19
ATOM     19  N   UNL     1      47.362   7.074  11.573  0.00  0.00    +0.000 N 
ATOM     20  C   UNL     1      46.012   7.014  11.352  0.00  0.00    +0.000 C 
ATOM     21  O   UNL     1      45.268   7.963  11.577  0.00  0.00    +0.000 OA
ATOM     22  H   UNL     1      47.909   6.219  11.616  0.00  0.00    +0.000 HD
BRANCH  20  23
ATOM     23  C   UNL     1      45.508   5.768  10.757  0.00  0.00    +0.000 A 
ATOM     24  C   UNL     1      45.738   5.504   9.414  0.00  0.00    +0.000 A 
ATOM     25  S   UNL     1      45.113   4.004   8.895  0.00  0.00    +0.000 S 
ATOM     26  C   UNL     1      44.478   3.673  10.436  0.00  0.00    +0.000 A 
ATOM     27  N   UNL     1      43.776   2.533  10.675  0.00  0.00    +0.000 NA
ATOM     28  C   UNL     1      43.328   2.422  11.880  0.00  0.00    +0.000 A 
ATOM     29  N   UNL     1      43.527   3.345  12.873  0.00  0.00    +0.000 N 
ATOM     30  C   UNL     1      44.276   4.483  12.694  0.00  0.00    +0.000 A 
ATOM     31  O   UNL     1      44.519   5.233  13.634  0.00  0.00    +0.000 OA
ATOM     32  C   UNL     1      44.768   4.678  11.340  0.00  0.00    +0.000 A 
ATOM     33  H   UNL     1      43.174   3.190  13.805  0.00  0.00    +0.000 HD
ENDBRANCH  20  23
ENDBRANCH  18  19
ENDBRANCH   4  18
TORSDOF 6
ENDMDL
MODEL 6
REMARK VINA RESULT:    -6.483      4.717      7.685
REMARK INTER + INTRA:          -9.561
REMARK INTER:                  -8.660
REMARK INTRA:                  -0.901
REMARK UNBOUND:                -0.805
REMARK  Name = 
REMARK  6 active torsions:
REMARK  status: ('A' for Active; 'I' for Inactive)
REMARK    1  A    between atoms: C_2  and  C_25
REMARK    2  A    between atoms: N_3  and  C_4
REMARK    3  A    between atoms: C_4  and  C_5
REMARK    4  A    between atoms: C_8  and  C_9
REMARK    5  A    between atoms: C_9  and  N_10
REMARK    6  A    between atoms: C_11  and  C_13
REMARK                            x       y       z     vdW  Elec       q    Type
REMARK                         _______ _______ _______ _____ _____    ______ ____
ROOT
ATOM      1  C   UNL     1      50.363   8.792  11.707  0.00  0.00    +0.000 A 
ATOM      2  C   UNL     1      49.732   7.583  11.404  0.00  0.00    +0.000 A 
ATOM      3  C   UNL     1      48.412   7.366  11.792  0.00  0.00    +0.000 A 
ATOM      4  C   UNL     1      47.751   8.353  12.516  0.00  0.00    +0.000 A 
ATOM      5  N   UNL     1      48.337   9.541  12.817  0.00  0.00    +0.000 NA
ATOM      6  C   UNL     1      49.615   9.732  12.407  0.00  0.00    +0.000 A 
ENDROOT
BRANCH   1   7
ATOM      7  C   UNL     1      51.767   9.069  11.267  0.00  0.00    +0.000 C 
BRANCH   7  10
ATOM      8  O   UNL     1      52.802   8.212   8.827  0.00  0.00    +0.000 OA
ATOM      9  C   UNL     1      53.028   7.543   9.828  0.00  0.00    +0.000 C 
ATOM     10  N   UNL     1      52.566   7.884  11.083  0.00  0.00    +0.000 N 
ATOM     11  H   UNL     1      52.821   7.274  11.853  0.00  0.00    +0.000 HD
BRANCH   9  12
ATOM     12  C   UNL     1      53.817   6.310   9.801  0.00  0.00    +0.000 A 
ATOM     13  C   UNL     1      53.929   5.430   8.741  0.00  0.00    +0.000 A 
ATOM     14  N   UNL     1      54.759   4.433   9.176  0.00  0.00    +0.000 N 
ATOM     15  C   UNL     1      55.118   4.728  10.460  0.00  0.00    +0.000 A 
ATOM     16  N   UNL     1      54.575   5.854  10.872  0.00  0.00    +0.000 NA
ATOM     17  H   UNL     1      55.054   3.622   8.646  0.00  0.00    +0.000 HD
ENDBRANCH   9  12
ENDBRANCH   7  10
ENDBRANCH   1   7
BRANCH   4  18
ATOM     18  C   UNL     1      46.340   8.126  13.001  0.00  0.00    +0.000 C 
BRANCH  18  19
ATOM     19  N   UNL     1      45.837   6.812  12.670  0.00  0.00    +0.000 N 
ATOM     20  C   UNL     1      44.822   6.613  11.775  0.00  0.00    +0.000 C 
ATOM     21  O   UNL     1      44.255   7.541  11.208  0.00  0.00    +0.000 OA
ATOM     22  H   UNL     1      46.117   6.064  13.298  0.00  0.00    +0.000 HD
BRANCH  20  23
ATOM     23  C   UNL     1      44.493   5.213  11.470  0.00  0.00    +0.000 A 
ATOM     24  C   UNL     1      43.711   4.481  12.352  0.00  0.00    +0.000 A 
ATOM     25  S   UNL     1      43.400   2.887  11.831  0.00  0.00    +0.000 S 
ATOM     26  C   UNL     1      44.334   3.105  10.428  0.00  0.00    +0.000 A 
ATOM     27  N   UNL     1      44.511   2.091   9.539  0.00  0.00    +0.000 NA
ATOM     28  C   UNL     1      45.264   2.385   8.534  0.00  0.00    +0.000 A 
ATOM     29  N   UNL     1      45.849   3.608   8.329  0.00  0.00    +0.000 N 
ATOM     30  C   UNL     1      45.653   4.678   9.170  0.00  0.00    +0.000 A 
ATOM     31  O   UNL     1      46.108   5.784   8.899  0.00  0.00    +0.000 OA
ATOM     32  C   UNL     1      44.846   4.386  10.344  0.00  0.00    +0.000 A 
ATOM     33  H   UNL     1      46.407   3.787   7.508  0.00  0.00    +0.000 HD
ENDBRANCH  20  23
ENDBRANCH  18  19
ENDBRANCH   4  18
TORSDOF 6
ENDMDL
MODEL 7
REMARK VINA RESULT:    -6.401      3.738      5.095
REMARK INTER + INTRA:          -9.451
REMARK INTER:                  -8.711
REMARK INTRA:                  -0.740
REMARK UNBOUND:                -0.805
REMARK  Name = 
REMARK  6 active torsions:
REMARK  status: ('A' for Active; 'I' for Inactive)
REMARK    1  A    between atoms: C_2  and  C_25
REMARK    2  A    between atoms: N_3  and  C_4
REMARK    3  A    between atoms: C_4  and  C_5
REMARK    4  A    between atoms: C_8  and  C_9
REMARK    5  A    between atoms: C_9  and  N_10
REMARK    6  A    between atoms: C_11  and  C_13
REMARK                            x       y       z     vdW  Elec       q    Type
REMARK                         _______ _______ _______ _____ _____    ______ ____
ROOT
ATOM      1  C   UNL     1      47.203   5.576  14.238  0.00  0.00    +0.000 A 
ATOM      2  C   UNL     1      47.999   6.248  15.169  0.00  0.00    +0.000 A 
ATOM      3  C   UNL     1      48.559   5.555  16.239  0.00  0.00    +0.000 A 
ATOM      4  C   UNL     1      48.283   4.199  16.383  0.00  0.00    +0.000 A 
ATOM      5  N   UNL     1      47.520   3.519  15.489  0.00  0.00    +0.000 NA
ATOM      6  C   UNL     1      47.006   4.216  14.446  0.00  0.00    +0.000 A 
ENDROOT
BRANCH   1   7
ATOM      7  C   UNL     1      46.619   6.287  13.056  0.00  0.00    +0.000 C 
BRANCH   7  10
ATOM      8  O   UNL     1      44.009   5.546  12.425  0.00  0.00    +0.000 OA
ATOM      9  C   UNL     1      44.926   5.101  11.745  0.00  0.00    +0.000 C 
ATOM     10  N   UNL     1      46.251   5.412  11.971  0.00  0.00    +0.000 N 
ATOM     11  H   UNL     1      46.937   5.006  11.342  0.00  0.00    +0.000 HD
BRANCH   9  12
ATOM     12  C   UNL     1      44.714   4.196  10.615  0.00  0.00    +0.000 A 
ATOM     13  C   UNL     1      44.246   4.543   9.361  0.00  0.00    +0.000 A 
ATOM     14  N   UNL     1      44.208   3.377   8.646  0.00  0.00    +0.000 N 
ATOM     15  C   UNL     1      44.642   2.376   9.468  0.00  0.00    +0.000 A 
ATOM     16  N   UNL     1      44.961   2.830  10.661  0.00  0.00    +0.000 NA
ATOM     17  H   UNL     1      43.911   3.272   7.683  0.00  0.00    +0.000 HD
ENDBRANCH   9  12
ENDBRANCH   7  10
ENDBRANCH   1   7
BRANCH   4  18
ATOM     18  C   UNL     1      48.829   3.432  17.564  0.00  0.00    +0.000 C 
BRANCH  18  19
ATOM     19  N   UNL     1      50.257   3.225  17.486  0.00  0.00    +0.000 N 
ATOM     20  C   UNL     1      51.141   3.837  18.333  0.00  0.00    +0.000 C 
ATOM     21  O   UNL     1      50.778   4.622  19.203  0.00  0.00    +0.000 OA
ATOM     22  H   UNL     1      50.591   2.784  16.635  0.00  0.00    +0.000 HD
BRANCH  20  23
ATOM     23  C   UNL     1      52.550   3.446  18.193  0.00  0.00    +0.000 A 
ATOM     24  C   UNL     1      53.549   4.394  18.362  0.00  0.00    +0.000 A 
ATOM     25  S   UNL     1      55.126   3.766  18.195  0.00  0.00    +0.000 S 
ATOM     26  C   UNL     1      54.529   2.212  17.850  0.00  0.00    +0.000 A 
ATOM     27  N   UNL     1      55.373   1.183  17.571  0.00  0.00    +0.000 NA
ATOM     28  C   UNL     1      54.785   0.067  17.299  0.00  0.00    +0.000 A 
ATOM     29  N   UNL     1      53.427  -0.118  17.293  0.00  0.00    +0.000 N 
ATOM     30  C   UNL     1      52.538   0.877  17.623  0.00  0.00    +0.000 A 
ATOM     31  O   UNL     1      51.337   0.646  17.708  0.00  0.00    +0.000 OA
ATOM     32  C   UNL     1      53.148   2.169  17.895  0.00  0.00    +0.000 A 
ATOM     33  H   UNL     1      53.027  -1.023  17.100  0.00  0.00    +0.000 HD
ENDBRANCH  20  23
ENDBRANCH  18  19
ENDBRANCH   4  18
TORSDOF 6
ENDMDL
MODEL 8
REMARK VINA RESULT:    -6.198      3.365      4.986
REMARK INTER + INTRA:          -9.177
REMARK INTER:                  -8.180
REMARK INTRA:                  -0.997
REMARK UNBOUND:                -0.805
REMARK  Name = 
REMARK  6 active torsions:
REMARK  status: ('A' for Active; 'I' for Inactive)
REMARK    1  A    between atoms: C_2  and  C_25
REMARK    2  A    between atoms: N_3  and  C_4
REMARK    3  A    between atoms: C_4  and  C_5
REMARK    4  A    between atoms: C_8  and  C_9
REMARK    5  A    between atoms: C_9  and  N_10
REMARK    6  A    between atoms: C_11  and  C_13
REMARK                            x       y       z     vdW  Elec       q    Type
REMARK                         _______ _______ _______ _____ _____    ______ ____
ROOT
ATOM      1  C   UNL     1      48.429   6.875  13.790  0.00  0.00    +0.000 A 
ATOM      2  C   UNL     1      49.435   7.827  13.971  0.00  0.00    +0.000 A 
ATOM      3  C   UNL     1      50.158   7.863  15.161  0.00  0.00    +0.000 A 
ATOM      4  C   UNL     1      49.835   6.965  16.173  0.00  0.00    +0.000 A 
ATOM      5  N   UNL     1      48.868   6.024  16.021  0.00  0.00    +0.000 NA
ATOM      6  C   UNL     1      48.197   5.999  14.844  0.00  0.00    +0.000 A 
ENDROOT
BRANCH   1   7
ATOM      7  C   UNL     1      47.662   6.787  12.506  0.00  0.00    +0.000 C 
BRANCH   7  10
ATOM      8  O   UNL     1      44.967   6.855  11.802  0.00  0.00    +0.000 OA
ATOM      9  C   UNL     1      45.479   5.773  12.062  0.00  0.00    +0.000 C 
ATOM     10  N   UNL     1      46.806   5.631  12.415  0.00  0.00    +0.000 N 
ATOM     11  H   UNL     1      47.141   4.690  12.596  0.00  0.00    +0.000 HD
BRANCH   9  12
ATOM     12  C   UNL     1      44.739   4.510  12.021  0.00  0.00    +0.000 A 
ATOM     13  C   UNL     1      45.171   3.289  12.505  0.00  0.00    +0.000 A 
ATOM     14  N   UNL     1      44.156   2.410  12.243  0.00  0.00    +0.000 N 
ATOM     15  C   UNL     1      43.159   3.105  11.620  0.00  0.00    +0.000 A 
ATOM     16  N   UNL     1      43.470   4.376  11.473  0.00  0.00    +0.000 NA
ATOM     17  H   UNL     1      44.144   1.422  12.467  0.00  0.00    +0.000 HD
ENDBRANCH   9  12
ENDBRANCH   7  10
ENDBRANCH   1   7
BRANCH   4  18
ATOM     18  C   UNL     1      50.562   7.015  17.496  0.00  0.00    +0.000 C 
BRANCH  18  19
ATOM     19  N   UNL     1      51.263   5.789  17.798  0.00  0.00    +0.000 N 
ATOM     20  C   UNL     1      52.474   5.473  17.242  0.00  0.00    +0.000 C 
ATOM     21  O   UNL     1      53.034   6.203  16.432  0.00  0.00    +0.000 OA
ATOM     22  H   UNL     1      50.714   5.072  18.263  0.00  0.00    +0.000 HD
BRANCH  20  23
ATOM     23  C   UNL     1      53.106   4.238  17.727  0.00  0.00    +0.000 A 
ATOM     24  C   UNL     1      54.402   4.276  18.222  0.00  0.00    +0.000 A 
ATOM     25  S   UNL     1      54.970   2.764  18.770  0.00  0.00    +0.000 S 
ATOM     26  C   UNL     1      53.520   1.997  18.328  0.00  0.00    +0.000 A 
ATOM     27  N   UNL     1      53.353   0.658  18.502  0.00  0.00    +0.000 NA
ATOM     28  C   UNL     1      52.216   0.203  18.098  0.00  0.00    +0.000 A 
ATOM     29  N   UNL     1      51.222   0.968  17.544  0.00  0.00    +0.000 N 
ATOM     30  C   UNL     1      51.323   2.331  17.401  0.00  0.00    +0.000 A 
ATOM     31  O   UNL     1      50.374   2.995  16.998  0.00  0.00    +0.000 OA
ATOM     32  C   UNL     1      52.605   2.889  17.801  0.00  0.00    +0.000 A 
ATOM     33  H   UNL     1      50.341   0.558  17.272  0.00  0.00    +0.000 HD
ENDBRANCH  20  23
ENDBRANCH  18  19
ENDBRANCH   4  18
TORSDOF 6
ENDMDL
MODEL 9
REMARK VINA RESULT:    -6.127      1.923      2.858
REMARK INTER + INTRA:          -9.080
REMARK INTER:                  -8.155
REMARK INTRA:                  -0.925
REMARK UNBOUND:                -0.805
REMARK  Name = 
REMARK  6 active torsions:
REMARK  status: ('A' for Active; 'I' for Inactive)
REMARK    1  A    between atoms: C_2  and  C_25
REMARK    2  A    between atoms: N_3  and  C_4
REMARK    3  A    between atoms: C_4  and  C_5
REMARK    4  A    between atoms: C_8  and  C_9
REMARK    5  A    between atoms: C_9  and  N_10
REMARK    6  A    between atoms: C_11  and  C_13
REMARK                            x       y       z     vdW  Elec       q    Type
REMARK                         _______ _______ _______ _____ _____    ______ ____
ROOT
ATOM      1  C   UNL     1      46.183   7.665  12.105  0.00  0.00    +0.000 A 
ATOM      2  C   UNL     1      47.422   7.112  11.774  0.00  0.00    +0.000 A 
ATOM      3  C   UNL     1      48.557   7.444  12.510  0.00  0.00    +0.000 A 
ATOM      4  C   UNL     1      48.441   8.360  13.550  0.00  0.00    +0.000 A 
ATOM      5  N   UNL     1      47.248   8.908  13.900  0.00  0.00    +0.000 NA
ATOM      6  C   UNL     1      46.158   8.549  13.179  0.00  0.00    +0.000 A 
ENDROOT
BRANCH   1   7
ATOM      7  C   UNL     1      44.939   7.297  11.357  0.00  0.00    +0.000 C 
BRANCH   7  10
ATOM      8  O   UNL     1      43.034   5.265  11.344  0.00  0.00    +0.000 OA
ATOM      9  C   UNL     1      44.050   5.121  10.675  0.00  0.00    +0.000 C 
ATOM     10  N   UNL     1      45.050   6.070  10.609  0.00  0.00    +0.000 N 
ATOM     11  H   UNL     1      45.845   5.865  10.013  0.00  0.00    +0.000 HD
BRANCH   9  12
ATOM     12  C   UNL     1      44.310   3.928   9.867  0.00  0.00    +0.000 A 
ATOM     13  C   UNL     1      44.256   2.616  10.300  0.00  0.00    +0.000 A 
ATOM     14  N   UNL     1      44.576   1.855   9.209  0.00  0.00    +0.000 N 
ATOM     15  C   UNL     1      44.813   2.707   8.168  0.00  0.00    +0.000 A 
ATOM     16  N   UNL     1      44.658   3.965   8.523  0.00  0.00    +0.000 NA
ATOM     17  H   UNL     1      44.631   0.844   9.176  0.00  0.00    +0.000 HD
ENDBRANCH   9  12
ENDBRANCH   7  10
ENDBRANCH   1   7
BRANCH   4  18
ATOM     18  C   UNL     1      49.662   8.784  14.331  0.00  0.00    +0.000 C 
BRANCH  18  19
ATOM     19  N   UNL     1      49.766   8.124  15.612  0.00  0.00    +0.000 N 
ATOM     20  C   UNL     1      50.909   7.498  16.031  0.00  0.00    +0.000 C 
ATOM     21  O   UNL     1      51.916   7.437  15.334  0.00  0.00    +0.000 OA
ATOM     22  H   UNL     1      48.886   7.950  16.089  0.00  0.00    +0.000 HD
BRANCH  20  23
ATOM     23  C   UNL     1      50.889   6.962  17.399  0.00  0.00    +0.000 A 
ATOM     24  C   UNL     1      51.777   7.454  18.345  0.00  0.00    +0.000 A 
ATOM     25  S   UNL     1      51.598   6.746  19.886  0.00  0.00    +0.000 S 
ATOM     26  C   UNL     1      50.356   5.726  19.334  0.00  0.00    +0.000 A 
ATOM     27  N   UNL     1      49.769   4.823  20.164  0.00  0.00    +0.000 NA
ATOM     28  C   UNL     1      48.861   4.095  19.608  0.00  0.00    +0.000 A 
ATOM     29  N   UNL     1      48.476   4.196  18.296  0.00  0.00    +0.000 N 
ATOM     30  C   UNL     1      48.999   5.131  17.436  0.00  0.00    +0.000 A 
ATOM     31  O   UNL     1      48.556   5.260  16.300  0.00  0.00    +0.000 OA
ATOM     32  C   UNL     1      50.060   5.948  18.002  0.00  0.00    +0.000 A 
ATOM     33  H   UNL     1      47.738   3.617  17.925  0.00  0.00    +0.000 HD
ENDBRANCH  20  23
ENDBRANCH  18  19
ENDBRANCH   4  18
TORSDOF 6
ENDMDL
