MODEL 1
REMARK VINA RESULT:    -8.006      0.000      0.000
REMARK INTER + INTRA:         -13.679
REMARK INTER:                 -11.985
REMARK INTRA:                  -1.694
REMARK UNBOUND:                -1.694
REMARK  Name = 
REMARK  10 active torsions:
REMARK  status: ('A' for Active; 'I' for Inactive)
REMARK    1  A    between atoms: C_1  and  C_2
REMARK    2  A    between atoms: C_2  and  C_3
REMARK    3  A    between atoms: C_3  and  N_4
REMARK    4  A    between atoms: N_4  and  C_5
REMARK    5  A    between atoms: C_5  and  C_6
REMARK    6  A    between atoms: C_9  and  C_10
REMARK    7  A    between atoms: C_10  and  O_11
REMARK    8  A    between atoms: C_10  and  C_12
REMARK    9  A    between atoms: C_12  and  C_13
REMARK   10  A    between atoms: C_21  and  C_23
REMARK                            x       y       z     vdW  Elec       q    Type
REMARK                         _______ _______ _______ _____ _____    ______ ____
ROOT
ATOM      1  N   UNL     1      48.648   7.338  13.708  0.00  0.00    +0.000 N 
ATOM      2  C   UNL     1      49.527   7.571  14.791  0.00  0.00    +0.000 C 
ATOM      3  O   UNL     1      50.738   7.396  14.649  0.00  0.00    +0.000 OA
ENDROOT
BRANCH   2   4
ATOM      4  C   UNL     1      49.028   7.974  16.125  0.00  0.00    +0.000 A 
ATOM      5  C   UNL     1      48.766   9.261  16.548  0.00  0.00    +0.000 A 
ATOM      6  S   UNL     1      48.006   9.402  18.062  0.00  0.00    +0.000 S 
ATOM      7  C   UNL     1      47.998   7.723  18.243  0.00  0.00    +0.000 A 
ATOM      8  N   UNL     1      47.443   7.168  19.347  0.00  0.00    +0.000 NA
ATOM      9  C   UNL     1      47.486   5.870  19.354  0.00  0.00    +0.000 A 
ATOM     10  N   UNL     1      48.049   5.106  18.378  0.00  0.00    +0.000 N 
ATOM     11  C   UNL     1      48.722   5.630  17.291  0.00  0.00    +0.000 A 
ATOM     12  O   UNL     1      49.416   4.917  16.575  0.00  0.00    +0.000 OA
ATOM     13  C   UNL     1      48.607   7.073  17.182  0.00  0.00    +0.000 A 
ATOM     14  H   UNL     1      48.123   4.101  18.489  0.00  0.00    +0.000 HD
ENDBRANCH   2   4
BRANCH   1  15
ATOM     15  C   UNL     1      49.251   6.963  12.413  0.00  0.00    +0.000 C 
BRANCH  15  17
ATOM     16  C   UNL     1      50.725   8.827  11.374  0.00  0.00    +0.000 C 
ATOM     17  C   UNL     1      49.385   8.105  11.384  0.00  0.00    +0.000 C 
ENDBRANCH  15  17
ENDBRANCH   1  15
BRANCH   1  18
ATOM     18  C   UNL     1      47.252   7.749  13.672  0.00  0.00    +0.000 C 
BRANCH  18  19
ATOM     19  C   UNL     1      46.226   6.805  13.057  0.00  0.00    +0.000 A 
ATOM     20  C   UNL     1      45.493   7.082  11.897  0.00  0.00    +0.000 A 
ATOM     21  C   UNL     1      45.026   6.042  11.075  0.00  0.00    +0.000 A 
ATOM     22  C   UNL     1      45.133   4.705  11.477  0.00  0.00    +0.000 A 
ATOM     23  C   UNL     1      45.684   4.450  12.739  0.00  0.00    +0.000 A 
ATOM     24  C   UNL     1      46.231   5.479  13.511  0.00  0.00    +0.000 A 
BRANCH  22  25
ATOM     25  C   UNL     1      44.726   3.583  10.529  0.00  0.00    +0.000 C 
BRANCH  25  26
ATOM     26  O   UNL     1      43.380   3.211  10.838  0.00  0.00    +0.000 OA
ATOM     27  H   UNL     1      43.281   3.224  11.804  0.00  0.00    +0.000 HD
ENDBRANCH  25  26
BRANCH  25  28
ATOM     28  C   UNL     1      44.843   3.985   9.045  0.00  0.00    +0.000 C 
BRANCH  28  29
ATOM     29  C   UNL     1      45.718   3.147   8.136  0.00  0.00    +0.000 A 
ATOM     30  C   UNL     1      45.928   1.802   8.490  0.00  0.00    +0.000 A 
ATOM     31  C   UNL     1      46.713   0.966   7.701  0.00  0.00    +0.000 A 
ATOM     32  C   UNL     1      47.290   1.461   6.532  0.00  0.00    +0.000 A 
ATOM     33  C   UNL     1      47.075   2.787   6.159  0.00  0.00    +0.000 A 
ATOM     34  C   UNL     1      46.289   3.625   6.955  0.00  0.00    +0.000 A 
ENDBRANCH  28  29
ENDBRANCH  25  28
ENDBRANCH  22  25
ENDBRANCH  18  19
ENDBRANCH   1  18
TORSDOF 9
ENDMDL
MODEL 2
REMARK VINA RESULT:    -7.977      1.554      2.277
REMARK INTER + INTRA:         -13.635
REMARK INTER:                 -11.808
REMARK INTRA:                  -1.826
REMARK UNBOUND:                -1.694
REMARK  Name = 
REMARK  10 active torsions:
REMARK  status: ('A' for Active; 'I' for Inactive)
REMARK    1  A    between atoms: C_1  and  C_2
REMARK    2  A    between atoms: C_2  and  C_3
REMARK    3  A    between atoms: C_3  and  N_4
REMARK    4  A    between atoms: N_4  and  C_5
REMARK    5  A    between atoms: C_5  and  C_6
REMARK    6  A    between atoms: C_9  and  C_10
REMARK    7  A    between atoms: C_10  and  O_11
REMARK    8  A    between atoms: C_10  and  C_12
REMARK    9  A    between atoms: C_12  and  C_13
REMARK   10  A    between atoms: C_21  and  C_23
REMARK                            x       y       z     vdW  Elec       q    Type
REMARK                         _______ _______ _______ _____ _____    ______ ____
ROOT
ATOM      1  N   UNL     1      49.021   7.059  14.333  0.00  0.00    +0.000 N 
ATOM      2  C   UNL     1      49.609   6.736  15.578  0.00  0.00    +0.000 C 
ATOM      3  O   UNL     1      50.792   7.005  15.787  0.00  0.00    +0.000 OA
ENDROOT
BRANCH   2   4
ATOM      4  C   UNL     1      48.853   6.028  16.635  0.00  0.00    +0.000 A 
ATOM      5  C   UNL     1      48.563   4.679  16.672  0.00  0.00    +0.000 A 
ATOM      6  S   UNL     1      47.858   4.113  18.112  0.00  0.00    +0.000 S 
ATOM      7  C   UNL     1      47.889   5.669  18.768  0.00  0.00    +0.000 A 
ATOM      8  N   UNL     1      47.440   5.876  20.029  0.00  0.00    +0.000 NA
ATOM      9  C   UNL     1      47.535   7.111  20.419  0.00  0.00    +0.000 A 
ATOM     10  N   UNL     1      48.011   8.133  19.655  0.00  0.00    +0.000 N 
ATOM     11  C   UNL     1      48.376   7.989  18.330  0.00  0.00    +0.000 A 
ATOM     12  O   UNL     1      48.564   8.969  17.617  0.00  0.00    +0.000 OA
ATOM     13  C   UNL     1      48.390   6.609  17.882  0.00  0.00    +0.000 A 
ATOM     14  H   UNL     1      47.979   9.088  19.993  0.00  0.00    +0.000 HD
ENDBRANCH   2   4
BRANCH   1  15
ATOM     15  C   UNL     1      49.856   7.787  13.356  0.00  0.00    +0.000 C 
BRANCH  15  17
ATOM     16  C   UNL     1      49.299   9.495  11.485  0.00  0.00    +0.000 C 
ATOM     17  C   UNL     1      49.361   9.199  12.977  0.00  0.00    +0.000 C 
ENDBRANCH  15  17
ENDBRANCH   1  15
BRANCH   1  18
ATOM     18  C   UNL     1      47.591   7.029  14.060  0.00  0.00    +0.000 C 
BRANCH  18  19
ATOM     19  C   UNL     1      47.069   6.077  12.990  0.00  0.00    +0.000 A 
ATOM     20  C   UNL     1      46.485   4.833  13.256  0.00  0.00    +0.000 A 
ATOM     21  C   UNL     1      45.545   4.276  12.372  0.00  0.00    +0.000 A 
ATOM     22  C   UNL     1      45.293   4.864  11.126  0.00  0.00    +0.000 A 
ATOM     23  C   UNL     1      46.039   5.999  10.782  0.00  0.00    +0.000 A 
ATOM     24  C   UNL     1      46.902   6.603  11.701  0.00  0.00    +0.000 A 
BRANCH  22  25
ATOM     25  C   UNL     1      44.192   4.315  10.226  0.00  0.00    +0.000 C 
BRANCH  25  26
ATOM     26  O   UNL     1      43.005   5.076  10.466  0.00  0.00    +0.000 OA
ATOM     27  H   UNL     1      42.385   4.900   9.739  0.00  0.00    +0.000 HD
ENDBRANCH  25  26
BRANCH  25  28
ATOM     28  C   UNL     1      44.566   4.362   8.732  0.00  0.00    +0.000 C 
BRANCH  28  29
ATOM     29  C   UNL     1      45.513   3.311   8.190  0.00  0.00    +0.000 A 
ATOM     30  C   UNL     1      46.473   3.720   7.247  0.00  0.00    +0.000 A 
ATOM     31  C   UNL     1      47.383   2.814   6.709  0.00  0.00    +0.000 A 
ATOM     32  C   UNL     1      47.357   1.482   7.121  0.00  0.00    +0.000 A 
ATOM     33  C   UNL     1      46.423   1.067   8.068  0.00  0.00    +0.000 A 
ATOM     34  C   UNL     1      45.508   1.977   8.604  0.00  0.00    +0.000 A 
ENDBRANCH  28  29
ENDBRANCH  25  28
ENDBRANCH  22  25
ENDBRANCH  18  19
ENDBRANCH   1  18
TORSDOF 9
ENDMDL
MODEL 3
REMARK VINA RESULT:    -7.933      2.038      2.602
REMARK INTER + INTRA:         -13.570
REMARK INTER:                 -11.824
REMARK INTRA:                  -1.746
REMARK UNBOUND:                -1.694
REMARK  Name = 
REMARK  10 active torsions:
REMARK  status: ('A' for Active; 'I' for Inactive)
REMARK    1  A    between atoms: C_1  and  C_2
REMARK    2  A    between atoms: C_2  and  C_3
REMARK    3  A    between atoms: C_3  and  N_4
REMARK    4  A    between atoms: N_4  and  C_5
REMARK    5  A    between atoms: C_5  and  C_6
REMARK    6  A    between atoms: C_9  and  C_10
REMARK    7  A    between atoms: C_10  and  O_11
REMARK    8  A    between atoms: C_10  and  C_12
REMARK    9  A    between atoms: C_12  and  C_13
REMARK   10  A    between atoms: C_21  and  C_23
REMARK                            x       y       z     vdW  Elec       q    Type
REMARK                         _______ _______ _______ _____ _____    ______ ____
ROOT
ATOM      1  N   UNL     1      48.645   7.326  14.544  0.00  0.00    +0.000 N 
ATOM      2  C   UNL     1      48.550   7.167  15.945  0.00  0.00    +0.000 C 
ATOM      3  O   UNL     1      48.428   8.156  16.669  0.00  0.00    +0.000 OA
ENDROOT
BRANCH   2   4
ATOM      4  C   UNL     1      48.647   5.836  16.585  0.00  0.00    +0.000 A 
ATOM      5  C   UNL     1      47.614   4.941  16.775  0.00  0.00    +0.000 A 
ATOM      6  S   UNL     1      48.062   3.406  17.352  0.00  0.00    +0.000 S 
ATOM      7  C   UNL     1      49.686   3.867  17.393  0.00  0.00    +0.000 A 
ATOM      8  N   UNL     1      50.629   2.975  17.780  0.00  0.00    +0.000 NA
ATOM      9  C   UNL     1      51.838   3.451  17.750  0.00  0.00    +0.000 A 
ATOM     10  N   UNL     1      52.164   4.723  17.394  0.00  0.00    +0.000 N 
ATOM     11  C   UNL     1      51.228   5.697  17.099  0.00  0.00    +0.000 A 
ATOM     12  O   UNL     1      51.548   6.878  17.025  0.00  0.00    +0.000 OA
ATOM     13  C   UNL     1      49.872   5.187  17.014  0.00  0.00    +0.000 A 
ATOM     14  H   UNL     1      53.119   5.053  17.475  0.00  0.00    +0.000 HD
ENDBRANCH   2   4
BRANCH   1  15
ATOM     15  C   UNL     1      48.512   8.695  14.004  0.00  0.00    +0.000 C 
BRANCH  15  17
ATOM     16  C   UNL     1      48.377   9.926  11.726  0.00  0.00    +0.000 C 
ATOM     17  C   UNL     1      49.111   8.920  12.600  0.00  0.00    +0.000 C 
ENDBRANCH  15  17
ENDBRANCH   1  15
BRANCH   1  18
ATOM     18  C   UNL     1      48.534   6.242  13.578  0.00  0.00    +0.000 C 
BRANCH  18  19
ATOM     19  C   UNL     1      47.145   5.804  13.124  0.00  0.00    +0.000 A 
ATOM     20  C   UNL     1      46.420   6.418  12.097  0.00  0.00    +0.000 A 
ATOM     21  C   UNL     1      45.475   5.693  11.350  0.00  0.00    +0.000 A 
ATOM     22  C   UNL     1      45.112   4.392  11.720  0.00  0.00    +0.000 A 
ATOM     23  C   UNL     1      45.694   3.861  12.878  0.00  0.00    +0.000 A 
ATOM     24  C   UNL     1      46.701   4.548  13.561  0.00  0.00    +0.000 A 
BRANCH  22  25
ATOM     25  C   UNL     1      44.172   3.577  10.839  0.00  0.00    +0.000 C 
BRANCH  25  26
ATOM     26  O   UNL     1      42.836   3.796  11.301  0.00  0.00    +0.000 OA
ATOM     27  H   UNL     1      42.530   2.979  11.728  0.00  0.00    +0.000 HD
ENDBRANCH  25  26
BRANCH  25  28
ATOM     28  C   UNL     1      44.289   3.942   9.346  0.00  0.00    +0.000 C 
BRANCH  28  29
ATOM     29  C   UNL     1      45.343   3.244   8.512  0.00  0.00    +0.000 A 
ATOM     30  C   UNL     1      45.516   1.860   8.704  0.00  0.00    +0.000 A 
ATOM     31  C   UNL     1      46.459   1.146   7.969  0.00  0.00    +0.000 A 
ATOM     32  C   UNL     1      47.236   1.806   7.017  0.00  0.00    +0.000 A 
ATOM     33  C   UNL     1      47.063   3.172   6.804  0.00  0.00    +0.000 A 
ATOM     34  C   UNL     1      46.118   3.887   7.545  0.00  0.00    +0.000 A 
ENDBRANCH  28  29
ENDBRANCH  25  28
ENDBRANCH  22  25
ENDBRANCH  18  19
ENDBRANCH   1  18
TORSDOF 9
ENDMDL
MODEL 4
REMARK VINA RESULT:    -7.862      1.886      2.373
REMARK INTER + INTRA:         -13.463
REMARK INTER:                 -11.804
REMARK INTRA:                  -1.659
REMARK UNBOUND:                -1.694
REMARK  Name = 
REMARK  10 active torsions:
REMARK  status: ('A' for Active; 'I' for Inactive)
REMARK    1  A    between atoms: C_1  and  C_2
REMARK    2  A    between atoms: C_2  and  C_3
REMARK    3  A    between atoms: C_3  and  N_4
REMARK    4  A    between atoms: N_4  and  C_5
REMARK    5  A    between atoms: C_5  and  C_6
REMARK    6  A    between atoms: C_9  and  C_10
REMARK    7  A    between atoms: C_10  and  O_11
REMARK    8  A    between atoms: C_10  and  C_12
REMARK    9  A    between atoms: C_12  and  C_13
REMARK   10  A    between atoms: C_21  and  C_23
REMARK                            x       y       z     vdW  Elec       q    Type
REMARK                         _______ _______ _______ _____ _____    ______ ____
ROOT
ATOM      1  N   UNL     1      48.095   8.040  13.944  0.00  0.00    +0.000 N 
ATOM      2  C   UNL     1      48.860   8.365  15.087  0.00  0.00    +0.000 C 
ATOM      3  O   UNL     1      48.546   9.330  15.784  0.00  0.00    +0.000 OA
ENDROOT
BRANCH   2   4
ATOM      4  C   UNL     1      50.075   7.602  15.452  0.00  0.00    +0.000 A 
ATOM      5  C   UNL     1      51.379   7.944  15.151  0.00  0.00    +0.000 A 
ATOM      6  S   UNL     1      52.581   6.986  15.876  0.00  0.00    +0.000 S 
ATOM      7  C   UNL     1      51.405   6.040  16.634  0.00  0.00    +0.000 A 
ATOM      8  N   UNL     1      51.781   5.028  17.453  0.00  0.00    +0.000 NA
ATOM      9  C   UNL     1      50.782   4.391  17.984  0.00  0.00    +0.000 A 
ATOM     10  N   UNL     1      49.470   4.666  17.748  0.00  0.00    +0.000 N 
ATOM     11  C   UNL     1      49.042   5.614  16.837  0.00  0.00    +0.000 A 
ATOM     12  O   UNL     1      47.870   5.659  16.478  0.00  0.00    +0.000 OA
ATOM     13  C   UNL     1      50.117   6.425  16.299  0.00  0.00    +0.000 A 
ATOM     14  H   UNL     1      48.742   4.074  18.130  0.00  0.00    +0.000 HD
ENDBRANCH   2   4
BRANCH   1  15
ATOM     15  C   UNL     1      46.887   8.849  13.683  0.00  0.00    +0.000 C 
BRANCH  15  17
ATOM     16  C   UNL     1      45.651  10.185  11.834  0.00  0.00    +0.000 C 
ATOM     17  C   UNL     1      46.978   9.816  12.483  0.00  0.00    +0.000 C 
ENDBRANCH  15  17
ENDBRANCH   1  15
BRANCH   1  18
ATOM     18  C   UNL     1      48.207   6.794  13.199  0.00  0.00    +0.000 C 
BRANCH  18  19
ATOM     19  C   UNL     1      46.935   6.139  12.670  0.00  0.00    +0.000 A 
ATOM     20  C   UNL     1      46.378   6.397  11.413  0.00  0.00    +0.000 A 
ATOM     21  C   UNL     1      45.604   5.426  10.755  0.00  0.00    +0.000 A 
ATOM     22  C   UNL     1      45.229   4.244  11.407  0.00  0.00    +0.000 A 
ATOM     23  C   UNL     1      45.619   4.089  12.743  0.00  0.00    +0.000 A 
ATOM     24  C   UNL     1      46.467   5.013  13.361  0.00  0.00    +0.000 A 
BRANCH  22  25
ATOM     25  C   UNL     1      44.486   3.151  10.648  0.00  0.00    +0.000 C 
BRANCH  25  26
ATOM     26  O   UNL     1      43.157   3.075  11.173  0.00  0.00    +0.000 OA
ATOM     27  H   UNL     1      43.092   3.701  11.912  0.00  0.00    +0.000 HD
ENDBRANCH  25  26
BRANCH  25  28
ATOM     28  C   UNL     1      44.447   3.402   9.128  0.00  0.00    +0.000 C 
BRANCH  28  29
ATOM     29  C   UNL     1      45.541   2.802   8.268  0.00  0.00    +0.000 A 
ATOM     30  C   UNL     1      45.834   1.437   8.444  0.00  0.00    +0.000 A 
ATOM     31  C   UNL     1      46.821   0.812   7.686  0.00  0.00    +0.000 A 
ATOM     32  C   UNL     1      47.520   1.542   6.725  0.00  0.00    +0.000 A 
ATOM     33  C   UNL     1      47.227   2.889   6.528  0.00  0.00    +0.000 A 
ATOM     34  C   UNL     1      46.239   3.516   7.292  0.00  0.00    +0.000 A 
ENDBRANCH  28  29
ENDBRANCH  25  28
ENDBRANCH  22  25
ENDBRANCH  18  19
ENDBRANCH   1  18
TORSDOF 9
ENDMDL
MODEL 5
REMARK VINA RESULT:    -7.585      3.612      8.262
REMARK INTER + INTRA:         -13.049
REMARK INTER:                 -10.996
REMARK INTRA:                  -2.053
REMARK UNBOUND:                -1.694
REMARK  Name = 
REMARK  10 active torsions:
REMARK  status: ('A' for Active; 'I' for Inactive)
REMARK    1  A    between atoms: C_1  and  C_2
REMARK    2  A    between atoms: C_2  and  C_3
REMARK    3  A    between atoms: C_3  and  N_4
REMARK    4  A    between atoms: N_4  and  C_5
REMARK    5  A    between atoms: C_5  and  C_6
REMARK    6  A    between atoms: C_9  and  C_10
REMARK    7  A    between atoms: C_10  and  O_11
REMARK    8  A    between atoms: C_10  and  C_12
REMARK    9  A    between atoms: C_12  and  C_13
REMARK   10  A    between atoms: C_21  and  C_23
REMARK                            x       y       z     vdW  Elec       q    Type
REMARK                         _______ _______ _______ _____ _____    ______ ____
ROOT
ATOM      1  N   UNL     1      45.888   7.159  12.199  0.00  0.00    +0.000 N 
ATOM      2  C   UNL     1      44.628   6.654  11.803  0.00  0.00    +0.000 C 
ATOM      3  O   UNL     1      43.678   7.423  11.648  0.00  0.00    +0.000 OA
ENDROOT
BRANCH   2   4
ATOM      4  C   UNL     1      44.395   5.205  11.615  0.00  0.00    +0.000 A 
ATOM      5  C   UNL     1      43.769   4.353  12.503  0.00  0.00    +0.000 A 
ATOM      6  S   UNL     1      43.461   2.783  11.930  0.00  0.00    +0.000 S 
ATOM      7  C   UNL     1      44.170   3.158  10.444  0.00  0.00    +0.000 A 
ATOM      8  N   UNL     1      44.206   2.227   9.461  0.00  0.00    +0.000 NA
ATOM      9  C   UNL     1      44.762   2.648   8.365  0.00  0.00    +0.000 A 
ATOM     10  N   UNL     1      45.292   3.890   8.190  0.00  0.00    +0.000 N 
ATOM     11  C   UNL     1      45.377   4.832   9.198  0.00  0.00    +0.000 A 
ATOM     12  O   UNL     1      46.073   5.833   9.069  0.00  0.00    +0.000 OA
ATOM     13  C   UNL     1      44.673   4.449  10.407  0.00  0.00    +0.000 A 
ATOM     14  H   UNL     1      45.787   4.124   7.337  0.00  0.00    +0.000 HD
ENDBRANCH   2   4
BRANCH   1  15
ATOM     15  C   UNL     1      46.020   8.624  12.335  0.00  0.00    +0.000 C 
BRANCH  15  17
ATOM     16  C   UNL     1      48.111   9.972  13.069  0.00  0.00    +0.000 C 
ATOM     17  C   UNL     1      47.400   9.206  11.962  0.00  0.00    +0.000 C 
ENDBRANCH  15  17
ENDBRANCH   1  15
BRANCH   1  18
ATOM     18  C   UNL     1      47.131   6.402  12.164  0.00  0.00    +0.000 C 
BRANCH  18  19
ATOM     19  C   UNL     1      47.684   5.840  13.469  0.00  0.00    +0.000 A 
ATOM     20  C   UNL     1      48.518   6.547  14.343  0.00  0.00    +0.000 A 
ATOM     21  C   UNL     1      48.534   6.255  15.717  0.00  0.00    +0.000 A 
ATOM     22  C   UNL     1      47.848   5.143  16.224  0.00  0.00    +0.000 A 
ATOM     23  C   UNL     1      47.184   4.319  15.307  0.00  0.00    +0.000 A 
ATOM     24  C   UNL     1      47.092   4.666  13.956  0.00  0.00    +0.000 A 
BRANCH  22  25
ATOM     25  C   UNL     1      47.781   4.902  17.727  0.00  0.00    +0.000 C 
BRANCH  25  26
ATOM     26  O   UNL     1      46.432   5.118  18.149  0.00  0.00    +0.000 OA
ATOM     27  H   UNL     1      46.353   4.811  19.067  0.00  0.00    +0.000 HD
ENDBRANCH  25  26
BRANCH  25  28
ATOM     28  C   UNL     1      48.247   3.487  18.124  0.00  0.00    +0.000 C 
BRANCH  28  29
ATOM     29  C   UNL     1      49.715   3.143  17.981  0.00  0.00    +0.000 A 
ATOM     30  C   UNL     1      50.654   4.073  18.465  0.00  0.00    +0.000 A 
ATOM     31  C   UNL     1      52.021   3.825  18.377  0.00  0.00    +0.000 A 
ATOM     32  C   UNL     1      52.471   2.630  17.816  0.00  0.00    +0.000 A 
ATOM     33  C   UNL     1      51.553   1.692  17.349  0.00  0.00    +0.000 A 
ATOM     34  C   UNL     1      50.180   1.945  17.436  0.00  0.00    +0.000 A 
ENDBRANCH  28  29
ENDBRANCH  25  28
ENDBRANCH  22  25
ENDBRANCH  18  19
ENDBRANCH   1  18
TORSDOF 9
ENDMDL
MODEL 6
REMARK VINA RESULT:    -7.164      2.966      3.955
REMARK INTER + INTRA:         -12.418
REMARK INTER:                 -11.005
REMARK INTRA:                  -1.414
REMARK UNBOUND:                -1.694
REMARK  Name = 
REMARK  10 active torsions:
REMARK  status: ('A' for Active; 'I' for Inactive)
REMARK    1  A    between atoms: C_1  and  C_2
REMARK    2  A    between atoms: C_2  and  C_3
REMARK    3  A    between atoms: C_3  and  N_4
REMARK    4  A    between atoms: N_4  and  C_5
REMARK    5  A    between atoms: C_5  and  C_6
REMARK    6  A    between atoms: C_9  and  C_10
REMARK    7  A    between atoms: C_10  and  O_11
REMARK    8  A    between atoms: C_10  and  C_12
REMARK    9  A    between atoms: C_12  and  C_13
REMARK   10  A    between atoms: C_21  and  C_23
REMARK                            x       y       z     vdW  Elec       q    Type
REMARK                         _______ _______ _______ _____ _____    ______ ____
ROOT
ATOM      1  N   UNL     1      47.791   8.680  12.488  0.00  0.00    +0.000 N 
ATOM      2  C   UNL     1      48.861   9.584  12.679  0.00  0.00    +0.000 C 
ATOM      3  O   UNL     1      48.633  10.738  13.045  0.00  0.00    +0.000 OA
ENDROOT
BRANCH   2   4
ATOM      4  C   UNL     1      50.263   9.200  12.401  0.00  0.00    +0.000 A 
ATOM      5  C   UNL     1      50.958   9.426  11.229  0.00  0.00    +0.000 A 
ATOM      6  S   UNL     1      52.617   9.058  11.271  0.00  0.00    +0.000 S 
ATOM      7  C   UNL     1      52.491   8.557  12.879  0.00  0.00    +0.000 A 
ATOM      8  N   UNL     1      53.596   8.136  13.540  0.00  0.00    +0.000 NA
ATOM      9  C   UNL     1      53.367   7.796  14.772  0.00  0.00    +0.000 A 
ATOM     10  N   UNL     1      52.145   7.822  15.371  0.00  0.00    +0.000 N 
ATOM     11  C   UNL     1      50.975   8.138  14.705  0.00  0.00    +0.000 A 
ATOM     12  O   UNL     1      49.881   7.914  15.210  0.00  0.00    +0.000 OA
ATOM     13  C   UNL     1      51.193   8.629  13.357  0.00  0.00    +0.000 A 
ATOM     14  H   UNL     1      52.023   7.462  16.310  0.00  0.00    +0.000 HD
ENDBRANCH   2   4
BRANCH   1  15
ATOM     15  C   UNL     1      46.432   9.156  12.818  0.00  0.00    +0.000 C 
BRANCH  15  17
ATOM     16  C   UNL     1      44.276   9.868  11.565  0.00  0.00    +0.000 C 
ATOM     17  C   UNL     1      45.772  10.070  11.765  0.00  0.00    +0.000 C 
ENDBRANCH  15  17
ENDBRANCH   1  15
BRANCH   1  18
ATOM     18  C   UNL     1      47.943   7.243  12.311  0.00  0.00    +0.000 C 
BRANCH  18  19
ATOM     19  C   UNL     1      46.694   6.395  12.096  0.00  0.00    +0.000 A 
ATOM     20  C   UNL     1      45.853   6.496  10.982  0.00  0.00    +0.000 A 
ATOM     21  C   UNL     1      45.103   5.391  10.543  0.00  0.00    +0.000 A 
ATOM     22  C   UNL     1      45.046   4.215  11.302  0.00  0.00    +0.000 A 
ATOM     23  C   UNL     1      45.728   4.199  12.525  0.00  0.00    +0.000 A 
ATOM     24  C   UNL     1      46.547   5.263  12.911  0.00  0.00    +0.000 A 
BRANCH  22  25
ATOM     25  C   UNL     1      44.322   2.987  10.761  0.00  0.00    +0.000 C 
BRANCH  25  26
ATOM     26  O   UNL     1      43.023   2.943  11.359  0.00  0.00    +0.000 OA
ATOM     27  H   UNL     1      42.792   3.844  11.639  0.00  0.00    +0.000 HD
ENDBRANCH  25  26
BRANCH  25  28
ATOM     28  C   UNL     1      44.204   2.994   9.225  0.00  0.00    +0.000 C 
BRANCH  28  29
ATOM     29  C   UNL     1      45.421   2.617   8.405  0.00  0.00    +0.000 A 
ATOM     30  C   UNL     1      45.813   1.265   8.403  0.00  0.00    +0.000 A 
ATOM     31  C   UNL     1      46.917   0.839   7.668  0.00  0.00    +0.000 A 
ATOM     32  C   UNL     1      47.638   1.760   6.909  0.00  0.00    +0.000 A 
ATOM     33  C   UNL     1      47.250   3.098   6.887  0.00  0.00    +0.000 A 
ATOM     34  C   UNL     1      46.144   3.524   7.628  0.00  0.00    +0.000 A 
ENDBRANCH  28  29
ENDBRANCH  25  28
ENDBRANCH  22  25
ENDBRANCH  18  19
ENDBRANCH   1  18
TORSDOF 9
ENDMDL
MODEL 7
REMARK VINA RESULT:    -7.059      2.151      2.878
REMARK INTER + INTRA:         -12.261
REMARK INTER:                 -10.372
REMARK INTRA:                  -1.888
REMARK UNBOUND:                -1.694
REMARK  Name = 
REMARK  10 active torsions:
REMARK  status: ('A' for Active; 'I' for Inactive)
REMARK    1  A    between atoms: C_1  and  C_2
REMARK    2  A    between atoms: C_2  and  C_3
REMARK    3  A    between atoms: C_3  and  N_4
REMARK    4  A    between atoms: N_4  and  C_5
REMARK    5  A    between atoms: C_5  and  C_6
REMARK    6  A    between atoms: C_9  and  C_10
REMARK    7  A    between atoms: C_10  and  O_11
REMARK    8  A    between atoms: C_10  and  C_12
REMARK    9  A    between atoms: C_12  and  C_13
REMARK   10  A    between atoms: C_21  and  C_23
REMARK                            x       y       z     vdW  Elec       q    Type
REMARK                         _______ _______ _______ _____ _____    ______ ____
ROOT
ATOM      1  N   UNL     1      49.471   8.113  13.073  0.00  0.00    +0.000 N 
ATOM      2  C   UNL     1      49.692   8.656  14.360  0.00  0.00    +0.000 C 
ATOM      3  O   UNL     1      49.879   9.866  14.493  0.00  0.00    +0.000 OA
ENDROOT
BRANCH   2   4
ATOM      4  C   UNL     1      49.759   7.799  15.565  0.00  0.00    +0.000 A 
ATOM      5  C   UNL     1      48.698   7.426  16.365  0.00  0.00    +0.000 A 
ATOM      6  S   UNL     1      49.045   6.268  17.561  0.00  0.00    +0.000 S 
ATOM      7  C   UNL     1      50.661   6.212  17.073  0.00  0.00    +0.000 A 
ATOM      8  N   UNL     1      51.521   5.368  17.691  0.00  0.00    +0.000 NA
ATOM      9  C   UNL     1      52.727   5.410  17.210  0.00  0.00    +0.000 A 
ATOM     10  N   UNL     1      53.133   6.226  16.200  0.00  0.00    +0.000 N 
ATOM     11  C   UNL     1      52.320   7.179  15.616  0.00  0.00    +0.000 A 
ATOM     12  O   UNL     1      52.788   8.049  14.890  0.00  0.00    +0.000 OA
ATOM     13  C   UNL     1      50.935   7.098  16.043  0.00  0.00    +0.000 A 
ATOM     14  H   UNL     1      54.109   6.268  15.931  0.00  0.00    +0.000 HD
ENDBRANCH   2   4
BRANCH   1  15
ATOM     15  C   UNL     1      49.398   9.059  11.940  0.00  0.00    +0.000 C 
BRANCH  15  17
ATOM     16  C   UNL     1      51.622   8.278  10.858  0.00  0.00    +0.000 C 
ATOM     17  C   UNL     1      50.751   9.443  11.305  0.00  0.00    +0.000 C 
ENDBRANCH  15  17
ENDBRANCH   1  15
BRANCH   1  18
ATOM     18  C   UNL     1      48.989   6.764  12.816  0.00  0.00    +0.000 C 
BRANCH  18  19
ATOM     19  C   UNL     1      47.538   6.429  13.144  0.00  0.00    +0.000 A 
ATOM     20  C   UNL     1      46.441   7.209  12.763  0.00  0.00    +0.000 A 
ATOM     21  C   UNL     1      45.176   6.628  12.571  0.00  0.00    +0.000 A 
ATOM     22  C   UNL     1      44.939   5.292  12.918  0.00  0.00    +0.000 A 
ATOM     23  C   UNL     1      45.995   4.575  13.496  0.00  0.00    +0.000 A 
ATOM     24  C   UNL     1      47.274   5.128  13.597  0.00  0.00    +0.000 A 
BRANCH  22  25
ATOM     25  C   UNL     1      43.596   4.643  12.602  0.00  0.00    +0.000 C 
BRANCH  25  26
ATOM     26  O   UNL     1      42.598   5.282  13.404  0.00  0.00    +0.000 OA
ATOM     27  H   UNL     1      41.728   5.009  13.071  0.00  0.00    +0.000 HD
ENDBRANCH  25  26
BRANCH  25  28
ATOM     28  C   UNL     1      43.225   4.738  11.110  0.00  0.00    +0.000 C 
BRANCH  28  29
ATOM     29  C   UNL     1      44.134   4.074  10.096  0.00  0.00    +0.000 A 
ATOM     30  C   UNL     1      44.137   2.668  10.043  0.00  0.00    +0.000 A 
ATOM     31  C   UNL     1      44.939   1.986   9.133  0.00  0.00    +0.000 A 
ATOM     32  C   UNL     1      45.743   2.703   8.247  0.00  0.00    +0.000 A 
ATOM     33  C   UNL     1      45.736   4.096   8.275  0.00  0.00    +0.000 A 
ATOM     34  C   UNL     1      44.932   4.779   9.192  0.00  0.00    +0.000 A 
ENDBRANCH  28  29
ENDBRANCH  25  28
ENDBRANCH  22  25
ENDBRANCH  18  19
ENDBRANCH   1  18
TORSDOF 9
ENDMDL
MODEL 8
REMARK VINA RESULT:    -6.127      1.999      3.174
REMARK INTER + INTRA:         -10.866
REMARK INTER:                  -8.942
REMARK INTRA:                  -1.924
REMARK UNBOUND:                -1.694
REMARK  Name = 
REMARK  10 active torsions:
REMARK  status: ('A' for Active; 'I' for Inactive)
REMARK    1  A    between atoms: C_1  and  C_2
REMARK    2  A    between atoms: C_2  and  C_3
REMARK    3  A    between atoms: C_3  and  N_4
REMARK    4  A    between atoms: N_4  and  C_5
REMARK    5  A    between atoms: C_5  and  C_6
REMARK    6  A    between atoms: C_9  and  C_10
REMARK    7  A    between atoms: C_10  and  O_11
REMARK    8  A    between atoms: C_10  and  C_12
REMARK    9  A    between atoms: C_12  and  C_13
REMARK   10  A    between atoms: C_21  and  C_23
REMARK                            x       y       z     vdW  Elec       q    Type
REMARK                         _______ _______ _______ _____ _____    ______ ____
ROOT
ATOM      1  N   UNL     1      50.841   8.645  15.846  0.00  0.00    +0.000 N 
ATOM      2  C   UNL     1      51.003   8.128  17.152  0.00  0.00    +0.000 C 
ATOM      3  O   UNL     1      52.132   7.895  17.585  0.00  0.00    +0.000 OA
ENDROOT
BRANCH   2   4
ATOM      4  C   UNL     1      49.841   7.805  18.010  0.00  0.00    +0.000 A 
ATOM      5  C   UNL     1      49.243   8.642  18.931  0.00  0.00    +0.000 A 
ATOM      6  S   UNL     1      47.799   8.071  19.622  0.00  0.00    +0.000 S 
ATOM      7  C   UNL     1      47.904   6.645  18.723  0.00  0.00    +0.000 A 
ATOM      8  N   UNL     1      46.930   5.709  18.831  0.00  0.00    +0.000 NA
ATOM      9  C   UNL     1      47.122   4.670  18.076  0.00  0.00    +0.000 A 
ATOM     10  N   UNL     1      48.196   4.490  17.259  0.00  0.00    +0.000 N 
ATOM     11  C   UNL     1      49.264   5.364  17.200  0.00  0.00    +0.000 A 
ATOM     12  O   UNL     1      50.310   5.046  16.645  0.00  0.00    +0.000 OA
ATOM     13  C   UNL     1      49.048   6.592  17.943  0.00  0.00    +0.000 A 
ATOM     14  H   UNL     1      48.324   3.616  16.761  0.00  0.00    +0.000 HD
ENDBRANCH   2   4
BRANCH   1  15
ATOM     15  C   UNL     1      52.066   8.956  15.082  0.00  0.00    +0.000 C 
BRANCH  15  17
ATOM     16  C   UNL     1      52.646  11.322  15.974  0.00  0.00    +0.000 C 
ATOM     17  C   UNL     1      52.299  10.450  14.775  0.00  0.00    +0.000 C 
ENDBRANCH  15  17
ENDBRANCH   1  15
BRANCH   1  18
ATOM     18  C   UNL     1      49.599   9.197  15.322  0.00  0.00    +0.000 C 
BRANCH  18  19
ATOM     19  C   UNL     1      48.863   8.434  14.227  0.00  0.00    +0.000 A 
ATOM     20  C   UNL     1      48.995   7.060  13.996  0.00  0.00    +0.000 A 
ATOM     21  C   UNL     1      47.947   6.323  13.417  0.00  0.00    +0.000 A 
ATOM     22  C   UNL     1      46.814   6.968  12.903  0.00  0.00    +0.000 A 
ATOM     23  C   UNL     1      46.786   8.367  12.952  0.00  0.00    +0.000 A 
ATOM     24  C   UNL     1      47.785   9.088  13.612  0.00  0.00    +0.000 A 
BRANCH  22  25
ATOM     25  C   UNL     1      45.637   6.151  12.380  0.00  0.00    +0.000 C 
BRANCH  25  26
ATOM     26  O   UNL     1      44.445   6.659  12.987  0.00  0.00    +0.000 OA
ATOM     27  H   UNL     1      44.275   7.541  12.618  0.00  0.00    +0.000 HD
ENDBRANCH  25  26
BRANCH  25  28
ATOM     28  C   UNL     1      45.518   6.196  10.845  0.00  0.00    +0.000 C 
BRANCH  28  29
ATOM     29  C   UNL     1      45.243   4.904  10.104  0.00  0.00    +0.000 A 
ATOM     30  C   UNL     1      44.539   3.895  10.788  0.00  0.00    +0.000 A 
ATOM     31  C   UNL     1      44.242   2.683  10.171  0.00  0.00    +0.000 A 
ATOM     32  C   UNL     1      44.632   2.466   8.850  0.00  0.00    +0.000 A 
ATOM     33  C   UNL     1      45.313   3.462   8.155  0.00  0.00    +0.000 A 
ATOM     34  C   UNL     1      45.613   4.678   8.776  0.00  0.00    +0.000 A 
ENDBRANCH  28  29
ENDBRANCH  25  28
ENDBRANCH  22  25
ENDBRANCH  18  19
ENDBRANCH   1  18
TORSDOF 9
ENDMDL
MODEL 9
REMARK VINA RESULT:    -6.054      4.004      7.695
REMARK INTER + INTRA:         -10.757
REMARK INTER:                  -8.477
REMARK INTRA:                  -2.280
REMARK UNBOUND:                -1.694
REMARK  Name = 
REMARK  10 active torsions:
REMARK  status: ('A' for Active; 'I' for Inactive)
REMARK    1  A    between atoms: C_1  and  C_2
REMARK    2  A    between atoms: C_2  and  C_3
REMARK    3  A    between atoms: C_3  and  N_4
REMARK    4  A    between atoms: N_4  and  C_5
REMARK    5  A    between atoms: C_5  and  C_6
REMARK    6  A    between atoms: C_9  and  C_10
REMARK    7  A    between atoms: C_10  and  O_11
REMARK    8  A    between atoms: C_10  and  C_12
REMARK    9  A    between atoms: C_12  and  C_13
REMARK   10  A    between atoms: C_21  and  C_23
REMARK                            x       y       z     vdW  Elec       q    Type
REMARK                         _______ _______ _______ _____ _____    ______ ____
ROOT
ATOM      1  N   UNL     1      47.763   8.629  12.971  0.00  0.00    +0.000 N 
ATOM      2  C   UNL     1      47.728   7.474  12.156  0.00  0.00    +0.000 C 
ATOM      3  O   UNL     1      48.225   7.503  11.029  0.00  0.00    +0.000 OA
ENDROOT
BRANCH   2   4
ATOM      4  C   UNL     1      47.059   6.230  12.597  0.00  0.00    +0.000 A 
ATOM      5  C   UNL     1      47.653   5.165  13.244  0.00  0.00    +0.000 A 
ATOM      6  S   UNL     1      46.595   3.962  13.812  0.00  0.00    +0.000 S 
ATOM      7  C   UNL     1      45.266   4.807  13.203  0.00  0.00    +0.000 A 
ATOM      8  N   UNL     1      44.016   4.317  13.386  0.00  0.00    +0.000 NA
ATOM      9  C   UNL     1      43.084   5.071  12.885  0.00  0.00    +0.000 A 
ATOM     10  N   UNL     1      43.302   6.234  12.213  0.00  0.00    +0.000 N 
ATOM     11  C   UNL     1      44.562   6.714  11.908  0.00  0.00    +0.000 A 
ATOM     12  O   UNL     1      44.712   7.624  11.100  0.00  0.00    +0.000 OA
ATOM     13  C   UNL     1      45.633   5.966  12.539  0.00  0.00    +0.000 A 
ATOM     14  H   UNL     1      42.533   6.729  11.775  0.00  0.00    +0.000 HD
ENDBRANCH   2   4
BRANCH   1  15
ATOM     15  C   UNL     1      48.476   9.811  12.446  0.00  0.00    +0.000 C 
BRANCH  15  17
ATOM     16  C   UNL     1      46.139  10.746  11.823  0.00  0.00    +0.000 C 
ATOM     17  C   UNL     1      47.639  10.756  11.560  0.00  0.00    +0.000 C 
ENDBRANCH  15  17
ENDBRANCH   1  15
BRANCH   1  18
ATOM     18  C   UNL     1      47.447   8.648  14.393  0.00  0.00    +0.000 C 
BRANCH  18  19
ATOM     19  C   UNL     1      48.588   8.527  15.398  0.00  0.00    +0.000 A 
ATOM     20  C   UNL     1      48.526   8.978  16.721  0.00  0.00    +0.000 A 
ATOM     21  C   UNL     1      49.303   8.375  17.725  0.00  0.00    +0.000 A 
ATOM     22  C   UNL     1      50.279   7.423  17.403  0.00  0.00    +0.000 A 
ATOM     23  C   UNL     1      50.477   7.131  16.047  0.00  0.00    +0.000 A 
ATOM     24  C   UNL     1      49.639   7.662  15.063  0.00  0.00    +0.000 A 
BRANCH  22  25
ATOM     25  C   UNL     1      51.036   6.696  18.508  0.00  0.00    +0.000 C 
BRANCH  25  26
ATOM     26  O   UNL     1      51.541   7.678  19.418  0.00  0.00    +0.000 OA
ATOM     27  H   UNL     1      51.791   7.224  20.238  0.00  0.00    +0.000 HD
ENDBRANCH  25  26
BRANCH  25  28
ATOM     28  C   UNL     1      50.159   5.673  19.256  0.00  0.00    +0.000 C 
BRANCH  28  29
ATOM     29  C   UNL     1      49.430   4.619  18.448  0.00  0.00    +0.000 A 
ATOM     30  C   UNL     1      50.198   3.590  17.873  0.00  0.00    +0.000 A 
ATOM     31  C   UNL     1      49.599   2.581  17.123  0.00  0.00    +0.000 A 
ATOM     32  C   UNL     1      48.215   2.577  16.951  0.00  0.00    +0.000 A 
ATOM     33  C   UNL     1      47.441   3.579  17.531  0.00  0.00    +0.000 A 
ATOM     34  C   UNL     1      48.044   4.593  18.280  0.00  0.00    +0.000 A 
ENDBRANCH  28  29
ENDBRANCH  25  28
ENDBRANCH  22  25
ENDBRANCH  18  19
ENDBRANCH   1  18
TORSDOF 9
ENDMDL
