MODEL 1
REMARK VINA RESULT:    -7.370      0.000      0.000
REMARK INTER + INTRA:         -10.154
REMARK INTER:                  -9.524
REMARK INTRA:                  -0.630
REMARK UNBOUND:                -0.630
REMARK  Name = 
REMARK  7 active torsions:
REMARK  status: ('A' for Active; 'I' for Inactive)
REMARK    1  A    between atoms: C_1  and  C_2
REMARK    2  A    between atoms: C_2  and  C_3
REMARK    3  A    between atoms: C_2  and  C_4
REMARK    4  A    between atoms: C_2  and  C_18
REMARK    5  A    between atoms: C_5  and  C_6
REMARK    6  A    between atoms: C_8  and  C_9
REMARK    7  A    between atoms: C_21  and  C_22
REMARK                            x       y       z     vdW  Elec       q    Type
REMARK                         _______ _______ _______ _____ _____    ______ ____
ROOT
ATOM      1  C   UNL     1      45.346   4.608  12.013  0.00  0.00    +0.000 C 
ATOM      2  C   UNL     1      45.984   5.793  12.058  0.00  0.00    +0.000 C 
ENDROOT
BRANCH   2   3
ATOM      3  C   UNL     1      46.933   6.167  13.112  0.00  0.00    +0.000 A 
ATOM      4  C   UNL     1      47.109   5.331  14.213  0.00  0.00    +0.000 A 
ATOM      5  C   UNL     1      47.990   5.703  15.236  0.00  0.00    +0.000 A 
ATOM      6  C   UNL     1      48.670   6.919  15.078  0.00  0.00    +0.000 A 
ATOM      7  C   UNL     1      48.443   7.685  13.947  0.00  0.00    +0.000 A 
ATOM      8  N   UNL     1      47.590   7.334  12.970  0.00  0.00    +0.000 NA
BRANCH   5   9
ATOM      9  C   UNL     1      48.176   4.865  16.434  0.00  0.00    +0.000 A 
ATOM     10  C   UNL     1      49.120   5.121  17.418  0.00  0.00    +0.000 A 
ATOM     11  N   UNL     1      49.324   4.358  18.515  0.00  0.00    +0.000 NA
ATOM     12  C   UNL     1      48.529   3.286  18.631  0.00  0.00    +0.000 A 
ATOM     13  N   UNL     1      47.574   2.922  17.765  0.00  0.00    +0.000 NA
ATOM     14  C   UNL     1      47.428   3.723  16.687  0.00  0.00    +0.000 A 
ENDBRANCH   5   9
ENDBRANCH   2   3
BRANCH   1  16
ATOM     15  C   UNL     1      43.505   2.947  11.483  0.00  0.00    +0.000 C 
ATOM     16  C   UNL     1      44.348   4.130  10.956  0.00  0.00    +0.000 C 
ATOM     17  C   UNL     1      43.399   5.301  10.636  0.00  0.00    +0.000 C 
BRANCH  16  18
ATOM     18  C   UNL     1      45.056   3.720   9.654  0.00  0.00    +0.000 A 
ATOM     19  N   UNL     1      45.286   2.408   9.405  0.00  0.00    +0.000 NA
ATOM     20  C   UNL     1      45.907   2.125   8.237  0.00  0.00    +0.000 A 
ATOM     21  C   UNL     1      46.310   3.098   7.356  0.00  0.00    +0.000 A 
ATOM     22  N   UNL     1      46.101   4.393   7.645  0.00  0.00    +0.000 NA
ATOM     23  N   UNL     1      45.470   4.704   8.818  0.00  0.00    +0.000 NA
BRANCH  21  24
ATOM     24  C   UNL     1      46.947   2.797   6.120  0.00  0.00    +0.000 C 
ATOM     25  N   UNL     1      47.495   2.532   5.129  0.00  0.00    +0.000 NA
ENDBRANCH  21  24
ENDBRANCH  16  18
ENDBRANCH   1  16
TORSDOF 5
ENDMDL
MODEL 2
REMARK VINA RESULT:    -7.222      1.503      3.473
REMARK INTER + INTRA:          -9.963
REMARK INTER:                  -9.300
REMARK INTRA:                  -0.662
REMARK UNBOUND:                -0.630
REMARK  Name = 
REMARK  7 active torsions:
REMARK  status: ('A' for Active; 'I' for Inactive)
REMARK    1  A    between atoms: C_1  and  C_2
REMARK    2  A    between atoms: C_2  and  C_3
REMARK    3  A    between atoms: C_2  and  C_4
REMARK    4  A    between atoms: C_2  and  C_18
REMARK    5  A    between atoms: C_5  and  C_6
REMARK    6  A    between atoms: C_8  and  C_9
REMARK    7  A    between atoms: C_21  and  C_22
REMARK                            x       y       z     vdW  Elec       q    Type
REMARK                         _______ _______ _______ _____ _____    ______ ____
ROOT
ATOM      1  C   UNL     1      45.070   4.710  12.323  0.00  0.00    +0.000 C 
ATOM      2  C   UNL     1      45.864   4.035  13.175  0.00  0.00    +0.000 C 
ENDROOT
BRANCH   2   3
ATOM      3  C   UNL     1      46.766   4.682  14.135  0.00  0.00    +0.000 A 
ATOM      4  C   UNL     1      47.377   5.889  13.802  0.00  0.00    +0.000 A 
ATOM      5  C   UNL     1      48.264   6.492  14.704  0.00  0.00    +0.000 A 
ATOM      6  C   UNL     1      48.476   5.832  15.923  0.00  0.00    +0.000 A 
ATOM      7  C   UNL     1      47.819   4.639  16.176  0.00  0.00    +0.000 A 
ATOM      8  N   UNL     1      46.977   4.055  15.308  0.00  0.00    +0.000 NA
BRANCH   5   9
ATOM      9  C   UNL     1      48.960   7.748  14.375  0.00  0.00    +0.000 A 
ATOM     10  C   UNL     1      50.064   7.824  13.539  0.00  0.00    +0.000 A 
ATOM     11  N   UNL     1      50.732   8.960  13.237  0.00  0.00    +0.000 NA
ATOM     12  C   UNL     1      50.257  10.079  13.801  0.00  0.00    +0.000 A 
ATOM     13  N   UNL     1      49.200  10.155  14.620  0.00  0.00    +0.000 NA
ATOM     14  C   UNL     1      48.583   8.983  14.886  0.00  0.00    +0.000 A 
ENDBRANCH   5   9
ENDBRANCH   2   3
BRANCH   1  16
ATOM     15  C   UNL     1      43.387   2.872  11.856  0.00  0.00    +0.000 C 
ATOM     16  C   UNL     1      44.099   4.123  11.295  0.00  0.00    +0.000 C 
ATOM     17  C   UNL     1      43.034   5.193  10.986  0.00  0.00    +0.000 C 
BRANCH  16  18
ATOM     18  C   UNL     1      44.814   3.766   9.982  0.00  0.00    +0.000 A 
ATOM     19  N   UNL     1      44.965   2.464   9.638  0.00  0.00    +0.000 NA
ATOM     20  C   UNL     1      45.597   2.229   8.466  0.00  0.00    +0.000 A 
ATOM     21  C   UNL     1      46.085   3.237   7.670  0.00  0.00    +0.000 A 
ATOM     22  N   UNL     1      45.953   4.517   8.053  0.00  0.00    +0.000 NA
ATOM     23  N   UNL     1      45.312   4.780   9.232  0.00  0.00    +0.000 NA
BRANCH  21  24
ATOM     24  C   UNL     1      46.734   2.988   6.429  0.00  0.00    +0.000 C 
ATOM     25  N   UNL     1      47.259   2.820   5.404  0.00  0.00    +0.000 NA
ENDBRANCH  21  24
ENDBRANCH  16  18
ENDBRANCH   1  16
TORSDOF 5
ENDMDL
MODEL 3
REMARK VINA RESULT:    -6.196      3.359      5.284
REMARK INTER + INTRA:          -8.637
REMARK INTER:                  -7.979
REMARK INTRA:                  -0.658
REMARK UNBOUND:                -0.630
REMARK  Name = 
REMARK  7 active torsions:
REMARK  status: ('A' for Active; 'I' for Inactive)
REMARK    1  A    between atoms: C_1  and  C_2
REMARK    2  A    between atoms: C_2  and  C_3
REMARK    3  A    between atoms: C_2  and  C_4
REMARK    4  A    between atoms: C_2  and  C_18
REMARK    5  A    between atoms: C_5  and  C_6
REMARK    6  A    between atoms: C_8  and  C_9
REMARK    7  A    between atoms: C_21  and  C_22
REMARK                            x       y       z     vdW  Elec       q    Type
REMARK                         _______ _______ _______ _____ _____    ______ ____
ROOT
ATOM      1  C   UNL     1      48.500   6.443  14.852  0.00  0.00    +0.000 C 
ATOM      2  C   UNL     1      48.972   7.159  15.891  0.00  0.00    +0.000 C 
ENDROOT
BRANCH   2   3
ATOM      3  C   UNL     1      49.663   6.567  17.041  0.00  0.00    +0.000 A 
ATOM      4  C   UNL     1      50.236   5.302  16.927  0.00  0.00    +0.000 A 
ATOM      5  C   UNL     1      50.868   4.721  18.034  0.00  0.00    +0.000 A 
ATOM      6  C   UNL     1      50.897   5.475  19.216  0.00  0.00    +0.000 A 
ATOM      7  C   UNL     1      50.311   6.729  19.240  0.00  0.00    +0.000 A 
ATOM      8  N   UNL     1      49.696   7.283  18.181  0.00  0.00    +0.000 NA
BRANCH   5   9
ATOM      9  C   UNL     1      51.453   3.371  17.965  0.00  0.00    +0.000 A 
ATOM     10  C   UNL     1      50.852   2.301  17.318  0.00  0.00    +0.000 A 
ATOM     11  N   UNL     1      51.357   1.048  17.257  0.00  0.00    +0.000 NA
ATOM     12  C   UNL     1      52.533   0.866  17.874  0.00  0.00    +0.000 A 
ATOM     13  N   UNL     1      53.226   1.807  18.529  0.00  0.00    +0.000 NA
ATOM     14  C   UNL     1      52.662   3.033  18.559  0.00  0.00    +0.000 A 
ENDBRANCH   5   9
ENDBRANCH   2   3
BRANCH   1  16
ATOM     15  C   UNL     1      47.163   8.366  13.880  0.00  0.00    +0.000 C 
ATOM     16  C   UNL     1      47.774   6.972  13.613  0.00  0.00    +0.000 C 
ATOM     17  C   UNL     1      48.808   7.102  12.478  0.00  0.00    +0.000 C 
BRANCH  16  18
ATOM     18  C   UNL     1      46.672   6.005  13.148  0.00  0.00    +0.000 A 
ATOM     19  N   UNL     1      45.680   6.462  12.347  0.00  0.00    +0.000 NA
ATOM     20  C   UNL     1      44.752   5.552  11.974  0.00  0.00    +0.000 A 
ATOM     21  C   UNL     1      44.783   4.244  12.394  0.00  0.00    +0.000 A 
ATOM     22  N   UNL     1      45.759   3.828  13.218  0.00  0.00    +0.000 NA
ATOM     23  N   UNL     1      46.712   4.728  13.604  0.00  0.00    +0.000 NA
BRANCH  21  24
ATOM     24  C   UNL     1      43.815   3.284  11.986  0.00  0.00    +0.000 C 
ATOM     25  N   UNL     1      43.052   2.480  11.637  0.00  0.00    +0.000 NA
ENDBRANCH  21  24
ENDBRANCH  16  18
ENDBRANCH   1  16
TORSDOF 5
ENDMDL
MODEL 4
REMARK VINA RESULT:    -5.761      4.511      7.356
REMARK INTER + INTRA:          -8.074
REMARK INTER:                  -7.446
REMARK INTRA:                  -0.628
REMARK UNBOUND:                -0.630
REMARK  Name = 
REMARK  7 active torsions:
REMARK  status: ('A' for Active; 'I' for Inactive)
REMARK    1  A    between atoms: C_1  and  C_2
REMARK    2  A    between atoms: C_2  and  C_3
REMARK    3  A    between atoms: C_2  and  C_4
REMARK    4  A    between atoms: C_2  and  C_18
REMARK    5  A    between atoms: C_5  and  C_6
REMARK    6  A    between atoms: C_8  and  C_9
REMARK    7  A    between atoms: C_21  and  C_22
REMARK                            x       y       z     vdW  Elec       q    Type
REMARK                         _______ _______ _______ _____ _____    ______ ____
ROOT
ATOM      1  C   UNL     1      49.101   7.483  12.428  0.00  0.00    +0.000 C 
ATOM      2  C   UNL     1      49.918   8.553  12.401  0.00  0.00    +0.000 C 
ENDROOT
BRANCH   2   3
ATOM      3  C   UNL     1      50.984   8.739  11.410  0.00  0.00    +0.000 A 
ATOM      4  C   UNL     1      51.348   7.679  10.581  0.00  0.00    +0.000 A 
ATOM      5  C   UNL     1      52.389   7.845   9.657  0.00  0.00    +0.000 A 
ATOM      6  C   UNL     1      53.006   9.103   9.614  0.00  0.00    +0.000 A 
ATOM      7  C   UNL     1      52.574  10.104  10.468  0.00  0.00    +0.000 A 
ATOM      8  N   UNL     1      51.584   9.944  11.361  0.00  0.00    +0.000 NA
BRANCH   5   9
ATOM      9  C   UNL     1      52.829   6.739   8.789  0.00  0.00    +0.000 A 
ATOM     10  C   UNL     1      53.804   5.818   9.145  0.00  0.00    +0.000 A 
ATOM     11  N   UNL     1      54.240   4.807   8.359  0.00  0.00    +0.000 NA
ATOM     12  C   UNL     1      53.657   4.715   7.156  0.00  0.00    +0.000 A 
ATOM     13  N   UNL     1      52.702   5.527   6.685  0.00  0.00    +0.000 NA
ATOM     14  C   UNL     1      52.319   6.520   7.516  0.00  0.00    +0.000 A 
ENDBRANCH   5   9
ENDBRANCH   2   3
BRANCH   1  16
ATOM     15  C   UNL     1      48.509   6.630  14.742  0.00  0.00    +0.000 C 
ATOM     16  C   UNL     1      47.965   7.208  13.415  0.00  0.00    +0.000 C 
ATOM     17  C   UNL     1      47.265   8.547  13.718  0.00  0.00    +0.000 C 
BRANCH  16  18
ATOM     18  C   UNL     1      46.922   6.246  12.823  0.00  0.00    +0.000 A 
ATOM     19  N   UNL     1      46.466   6.450  11.563  0.00  0.00    +0.000 NA
ATOM     20  C   UNL     1      45.556   5.559  11.109  0.00  0.00    +0.000 A 
ATOM     21  C   UNL     1      45.091   4.518  11.874  0.00  0.00    +0.000 A 
ATOM     22  N   UNL     1      45.533   4.360  13.132  0.00  0.00    +0.000 NA
ATOM     23  N   UNL     1      46.458   5.245  13.612  0.00  0.00    +0.000 NA
BRANCH  21  24
ATOM     24  C   UNL     1      44.146   3.571  11.388  0.00  0.00    +0.000 C 
ATOM     25  N   UNL     1      43.356   2.800  11.024  0.00  0.00    +0.000 NA
ENDBRANCH  21  24
ENDBRANCH  16  18
ENDBRANCH   1  16
TORSDOF 5
ENDMDL
MODEL 5
REMARK VINA RESULT:    -5.684      2.042      8.151
REMARK INTER + INTRA:          -7.975
REMARK INTER:                  -7.386
REMARK INTRA:                  -0.589
REMARK UNBOUND:                -0.630
REMARK  Name = 
REMARK  7 active torsions:
REMARK  status: ('A' for Active; 'I' for Inactive)
REMARK    1  A    between atoms: C_1  and  C_2
REMARK    2  A    between atoms: C_2  and  C_3
REMARK    3  A    between atoms: C_2  and  C_4
REMARK    4  A    between atoms: C_2  and  C_18
REMARK    5  A    between atoms: C_5  and  C_6
REMARK    6  A    between atoms: C_8  and  C_9
REMARK    7  A    between atoms: C_21  and  C_22
REMARK                            x       y       z     vdW  Elec       q    Type
REMARK                         _______ _______ _______ _____ _____    ______ ____
ROOT
ATOM      1  C   UNL     1      48.033   7.232  15.248  0.00  0.00    +0.000 C 
ATOM      2  C   UNL     1      48.006   7.902  14.080  0.00  0.00    +0.000 C 
ENDROOT
BRANCH   2   3
ATOM      3  C   UNL     1      46.862   7.893  13.162  0.00  0.00    +0.000 A 
ATOM      4  C   UNL     1      46.511   6.714  12.508  0.00  0.00    +0.000 A 
ATOM      5  C   UNL     1      45.439   6.712  11.605  0.00  0.00    +0.000 A 
ATOM      6  C   UNL     1      44.761   7.925  11.422  0.00  0.00    +0.000 A 
ATOM      7  C   UNL     1      45.171   9.048  12.120  0.00  0.00    +0.000 A 
ATOM      8  N   UNL     1      46.205   9.054  12.978  0.00  0.00    +0.000 NA
BRANCH   5   9
ATOM      9  C   UNL     1      45.059   5.496  10.866  0.00  0.00    +0.000 A 
ATOM     10  C   UNL     1      44.138   4.566  11.328  0.00  0.00    +0.000 A 
ATOM     11  N   UNL     1      43.788   3.433  10.679  0.00  0.00    +0.000 NA
ATOM     12  C   UNL     1      44.390   3.230   9.499  0.00  0.00    +0.000 A 
ATOM     13  N   UNL     1      45.289   4.043   8.930  0.00  0.00    +0.000 NA
ATOM     14  C   UNL     1      45.601   5.153   9.634  0.00  0.00    +0.000 A 
ENDBRANCH   5   9
ENDBRANCH   2   3
BRANCH   1  16
ATOM     15  C   UNL     1      50.401   7.978  15.762  0.00  0.00    +0.000 C 
ATOM     16  C   UNL     1      49.174   7.186  16.267  0.00  0.00    +0.000 C 
ATOM     17  C   UNL     1      48.673   7.840  17.569  0.00  0.00    +0.000 C 
BRANCH  16  18
ATOM     18  C   UNL     1      49.588   5.740  16.587  0.00  0.00    +0.000 A 
ATOM     19  N   UNL     1      48.644   4.771  16.635  0.00  0.00    +0.000 NA
ATOM     20  C   UNL     1      49.086   3.524  16.916  0.00  0.00    +0.000 A 
ATOM     21  C   UNL     1      50.407   3.243  17.164  0.00  0.00    +0.000 A 
ATOM     22  N   UNL     1      51.318   4.230  17.144  0.00  0.00    +0.000 NA
ATOM     23  N   UNL     1      50.895   5.498  16.858  0.00  0.00    +0.000 NA
BRANCH  21  24
ATOM     24  C   UNL     1      50.872   1.927  17.441  0.00  0.00    +0.000 C 
ATOM     25  N   UNL     1      51.236   0.854  17.702  0.00  0.00    +0.000 NA
ENDBRANCH  21  24
ENDBRANCH  16  18
ENDBRANCH   1  16
TORSDOF 5
ENDMDL
MODEL 6
REMARK VINA RESULT:    -5.650      2.953      8.626
REMARK INTER + INTRA:          -7.931
REMARK INTER:                  -7.260
REMARK INTRA:                  -0.671
REMARK UNBOUND:                -0.630
REMARK  Name = 
REMARK  7 active torsions:
REMARK  status: ('A' for Active; 'I' for Inactive)
REMARK    1  A    between atoms: C_1  and  C_2
REMARK    2  A    between atoms: C_2  and  C_3
REMARK    3  A    between atoms: C_2  and  C_4
REMARK    4  A    between atoms: C_2  and  C_18
REMARK    5  A    between atoms: C_5  and  C_6
REMARK    6  A    between atoms: C_8  and  C_9
REMARK    7  A    between atoms: C_21  and  C_22
REMARK                            x       y       z     vdW  Elec       q    Type
REMARK                         _______ _______ _______ _____ _____    ______ ____
ROOT
ATOM      1  C   UNL     1      48.199   7.783  14.541  0.00  0.00    +0.000 C 
ATOM      2  C   UNL     1      47.395   8.710  13.987  0.00  0.00    +0.000 C 
ENDROOT
BRANCH   2   3
ATOM      3  C   UNL     1      46.300   8.393  13.064  0.00  0.00    +0.000 A 
ATOM      4  C   UNL     1      45.829   7.084  12.975  0.00  0.00    +0.000 A 
ATOM      5  C   UNL     1      44.806   6.772  12.070  0.00  0.00    +0.000 A 
ATOM      6  C   UNL     1      44.298   7.828  11.299  0.00  0.00    +0.000 A 
ATOM      7  C   UNL     1      44.818   9.101  11.458  0.00  0.00    +0.000 A 
ATOM      8  N   UNL     1      45.806   9.399  12.318  0.00  0.00    +0.000 NA
BRANCH   5   9
ATOM      9  C   UNL     1      44.306   5.395  11.919  0.00  0.00    +0.000 A 
ATOM     10  C   UNL     1      43.870   4.858  10.716  0.00  0.00    +0.000 A 
ATOM     11  N   UNL     1      43.388   3.606  10.555  0.00  0.00    +0.000 NA
ATOM     12  C   UNL     1      43.351   2.851  11.662  0.00  0.00    +0.000 A 
ATOM     13  N   UNL     1      43.744   3.236  12.883  0.00  0.00    +0.000 NA
ATOM     14  C   UNL     1      44.207   4.501  12.976  0.00  0.00    +0.000 A 
ENDBRANCH   5   9
ENDBRANCH   2   3
BRANCH   1  16
ATOM     15  C   UNL     1      50.712   7.670  14.858  0.00  0.00    +0.000 C 
ATOM     16  C   UNL     1      49.357   8.018  15.514  0.00  0.00    +0.000 C 
ATOM     17  C   UNL     1      49.366   9.514  15.886  0.00  0.00    +0.000 C 
BRANCH  16  18
ATOM     18  C   UNL     1      49.184   7.204  16.806  0.00  0.00    +0.000 A 
ATOM     19  N   UNL     1      49.749   7.649  17.955  0.00  0.00    +0.000 NA
ATOM     20  C   UNL     1      49.547   6.883  19.051  0.00  0.00    +0.000 A 
ATOM     21  C   UNL     1      48.836   5.708  19.016  0.00  0.00    +0.000 A 
ATOM     22  N   UNL     1      48.317   5.273  17.856  0.00  0.00    +0.000 NA
ATOM     23  N   UNL     1      48.503   6.033  16.735  0.00  0.00    +0.000 NA
BRANCH  21  24
ATOM     24  C   UNL     1      48.610   4.913  20.174  0.00  0.00    +0.000 C 
ATOM     25  N   UNL     1      48.453   4.283  21.138  0.00  0.00    +0.000 NA
ENDBRANCH  21  24
ENDBRANCH  16  18
ENDBRANCH   1  16
TORSDOF 5
ENDMDL
MODEL 7
REMARK VINA RESULT:    -5.644      4.638      8.233
REMARK INTER + INTRA:          -7.924
REMARK INTER:                  -7.283
REMARK INTRA:                  -0.641
REMARK UNBOUND:                -0.630
REMARK  Name = 
REMARK  7 active torsions:
REMARK  status: ('A' for Active; 'I' for Inactive)
REMARK    1  A    between atoms: C_1  and  C_2
REMARK    2  A    between atoms: C_2  and  C_3
REMARK    3  A    between atoms: C_2  and  C_4
REMARK    4  A    between atoms: C_2  and  C_18
REMARK    5  A    between atoms: C_5  and  C_6
REMARK    6  A    between atoms: C_8  and  C_9
REMARK    7  A    between atoms: C_21  and  C_22
REMARK                            x       y       z     vdW  Elec       q    Type
REMARK                         _______ _______ _______ _____ _____    ______ ____
ROOT
ATOM      1  C   UNL     1      49.062   7.252  11.811  0.00  0.00    +0.000 C 
ATOM      2  C   UNL     1      49.916   8.292  11.860  0.00  0.00    +0.000 C 
ENDROOT
BRANCH   2   3
ATOM      3  C   UNL     1      51.261   8.270  11.275  0.00  0.00    +0.000 A 
ATOM      4  C   UNL     1      51.560   7.354  10.268  0.00  0.00    +0.000 A 
ATOM      5  C   UNL     1      52.854   7.309   9.730  0.00  0.00    +0.000 A 
ATOM      6  C   UNL     1      53.786   8.222  10.243  0.00  0.00    +0.000 A 
ATOM      7  C   UNL     1      53.401   9.105  11.238  0.00  0.00    +0.000 A 
ATOM      8  N   UNL     1      52.164   9.142  11.761  0.00  0.00    +0.000 NA
BRANCH   5   9
ATOM      9  C   UNL     1      53.221   6.331   8.692  0.00  0.00    +0.000 A 
ATOM     10  C   UNL     1      54.249   5.408   8.828  0.00  0.00    +0.000 A 
ATOM     11  N   UNL     1      54.619   4.515   7.884  0.00  0.00    +0.000 NA
ATOM     12  C   UNL     1      53.912   4.546   6.746  0.00  0.00    +0.000 A 
ATOM     13  N   UNL     1      52.894   5.375   6.481  0.00  0.00    +0.000 NA
ATOM     14  C   UNL     1      52.581   6.248   7.463  0.00  0.00    +0.000 A 
ENDBRANCH   5   9
ENDBRANCH   2   3
BRANCH   1  16
ATOM     15  C   UNL     1      47.173   8.578  12.863  0.00  0.00    +0.000 C 
ATOM     16  C   UNL     1      47.645   7.186  12.387  0.00  0.00    +0.000 C 
ATOM     17  C   UNL     1      46.700   6.709  11.266  0.00  0.00    +0.000 C 
BRANCH  16  18
ATOM     18  C   UNL     1      47.553   6.183  13.549  0.00  0.00    +0.000 A 
ATOM     19  N   UNL     1      46.576   5.245  13.545  0.00  0.00    +0.000 NA
ATOM     20  C   UNL     1      46.564   4.395  14.597  0.00  0.00    +0.000 A 
ATOM     21  C   UNL     1      47.466   4.480  15.629  0.00  0.00    +0.000 A 
ATOM     22  N   UNL     1      48.402   5.442  15.626  0.00  0.00    +0.000 NA
ATOM     23  N   UNL     1      48.438   6.310  14.569  0.00  0.00    +0.000 NA
BRANCH  21  24
ATOM     24  C   UNL     1      47.462   3.573  16.727  0.00  0.00    +0.000 C 
ATOM     25  N   UNL     1      47.424   2.823  17.614  0.00  0.00    +0.000 NA
ENDBRANCH  21  24
ENDBRANCH  16  18
ENDBRANCH   1  16
TORSDOF 5
ENDMDL
MODEL 8
REMARK VINA RESULT:    -5.490      2.084      8.581
REMARK INTER + INTRA:          -7.725
REMARK INTER:                  -7.134
REMARK INTRA:                  -0.591
REMARK UNBOUND:                -0.630
REMARK  Name = 
REMARK  7 active torsions:
REMARK  status: ('A' for Active; 'I' for Inactive)
REMARK    1  A    between atoms: C_1  and  C_2
REMARK    2  A    between atoms: C_2  and  C_3
REMARK    3  A    between atoms: C_2  and  C_4
REMARK    4  A    between atoms: C_2  and  C_18
REMARK    5  A    between atoms: C_5  and  C_6
REMARK    6  A    between atoms: C_8  and  C_9
REMARK    7  A    between atoms: C_21  and  C_22
REMARK                            x       y       z     vdW  Elec       q    Type
REMARK                         _______ _______ _______ _____ _____    ______ ____
ROOT
ATOM      1  C   UNL     1      47.264   4.894  15.534  0.00  0.00    +0.000 C 
ATOM      2  C   UNL     1      47.665   5.814  14.636  0.00  0.00    +0.000 C 
ENDROOT
BRANCH   2   3
ATOM      3  C   UNL     1      46.876   6.206  13.463  0.00  0.00    +0.000 A 
ATOM      4  C   UNL     1      46.425   5.229  12.577  0.00  0.00    +0.000 A 
ATOM      5  C   UNL     1      45.699   5.605  11.438  0.00  0.00    +0.000 A 
ATOM      6  C   UNL     1      45.454   6.975  11.265  0.00  0.00    +0.000 A 
ATOM      7  C   UNL     1      45.931   7.877  12.201  0.00  0.00    +0.000 A 
ATOM      8  N   UNL     1      46.636   7.519  13.287  0.00  0.00    +0.000 NA
BRANCH   5   9
ATOM      9  C   UNL     1      45.237   4.608  10.458  0.00  0.00    +0.000 A 
ATOM     10  C   UNL     1      44.482   3.491  10.788  0.00  0.00    +0.000 A 
ATOM     11  N   UNL     1      44.063   2.551   9.911  0.00  0.00    +0.000 NA
ATOM     12  C   UNL     1      44.416   2.752   8.634  0.00  0.00    +0.000 A 
ATOM     13  N   UNL     1      45.134   3.784   8.173  0.00  0.00    +0.000 NA
ATOM     14  C   UNL     1      45.527   4.682   9.102  0.00  0.00    +0.000 A 
ENDBRANCH   5   9
ENDBRANCH   2   3
BRANCH   1  16
ATOM     15  C   UNL     1      47.074   4.381  18.010  0.00  0.00    +0.000 C 
ATOM     16  C   UNL     1      48.014   4.427  16.784  0.00  0.00    +0.000 C 
ATOM     17  C   UNL     1      48.537   3.003  16.517  0.00  0.00    +0.000 C 
BRANCH  16  18
ATOM     18  C   UNL     1      49.219   5.331  17.091  0.00  0.00    +0.000 A 
ATOM     19  N   UNL     1      49.019   6.526  17.695  0.00  0.00    +0.000 NA
ATOM     20  C   UNL     1      50.128   7.262  17.938  0.00  0.00    +0.000 A 
ATOM     21  C   UNL     1      51.387   6.847  17.578  0.00  0.00    +0.000 A 
ATOM     22  N   UNL     1      51.553   5.673  16.948  0.00  0.00    +0.000 NA
ATOM     23  N   UNL     1      50.447   4.909  16.696  0.00  0.00    +0.000 NA
BRANCH  21  24
ATOM     24  C   UNL     1      52.554   7.614  17.851  0.00  0.00    +0.000 C 
ATOM     25  N   UNL     1      53.529   8.211  18.065  0.00  0.00    +0.000 NA
ENDBRANCH  21  24
ENDBRANCH  16  18
ENDBRANCH   1  16
TORSDOF 5
ENDMDL
MODEL 9
REMARK VINA RESULT:    -5.370      4.410      7.141
REMARK INTER + INTRA:          -7.569
REMARK INTER:                  -7.063
REMARK INTRA:                  -0.506
REMARK UNBOUND:                -0.630
REMARK  Name = 
REMARK  7 active torsions:
REMARK  status: ('A' for Active; 'I' for Inactive)
REMARK    1  A    between atoms: C_1  and  C_2
REMARK    2  A    between atoms: C_2  and  C_3
REMARK    3  A    between atoms: C_2  and  C_4
REMARK    4  A    between atoms: C_2  and  C_18
REMARK    5  A    between atoms: C_5  and  C_6
REMARK    6  A    between atoms: C_8  and  C_9
REMARK    7  A    between atoms: C_21  and  C_22
REMARK                            x       y       z     vdW  Elec       q    Type
REMARK                         _______ _______ _______ _____ _____    ______ ____
ROOT
ATOM      1  C   UNL     1      49.891   9.024  11.679  0.00  0.00    +0.000 C 
ATOM      2  C   UNL     1      49.193   7.924  12.017  0.00  0.00    +0.000 C 
ENDROOT
BRANCH   2   3
ATOM      3  C   UNL     1      47.727   7.870  12.062  0.00  0.00    +0.000 A 
ATOM      4  C   UNL     1      47.078   6.640  11.972  0.00  0.00    +0.000 A 
ATOM      5  C   UNL     1      45.677   6.591  11.982  0.00  0.00    +0.000 A 
ATOM      6  C   UNL     1      45.000   7.813  12.098  0.00  0.00    +0.000 A 
ATOM      7  C   UNL     1      45.725   8.989  12.192  0.00  0.00    +0.000 A 
ATOM      8  N   UNL     1      47.067   9.039  12.173  0.00  0.00    +0.000 NA
BRANCH   5   9
ATOM      9  C   UNL     1      44.953   5.315  11.851  0.00  0.00    +0.000 A 
ATOM     10  C   UNL     1      44.591   4.752  10.635  0.00  0.00    +0.000 A 
ATOM     11  N   UNL     1      43.908   3.595  10.489  0.00  0.00    +0.000 NA
ATOM     12  C   UNL     1      43.582   2.966  11.626  0.00  0.00    +0.000 A 
ATOM     13  N   UNL     1      43.871   3.388  12.864  0.00  0.00    +0.000 NA
ATOM     14  C   UNL     1      44.546   4.555  12.940  0.00  0.00    +0.000 A 
ENDBRANCH   5   9
ENDBRANCH   2   3
BRANCH   1  16
ATOM     15  C   UNL     1      51.833  10.655  11.705  0.00  0.00    +0.000 C 
ATOM     16  C   UNL     1      51.412   9.171  11.600  0.00  0.00    +0.000 C 
ATOM     17  C   UNL     1      52.024   8.406  12.790  0.00  0.00    +0.000 C 
BRANCH  16  18
ATOM     18  C   UNL     1      51.973   8.566  10.303  0.00  0.00    +0.000 A 
ATOM     19  N   UNL     1      52.002   7.220  10.154  0.00  0.00    +0.000 NA
ATOM     20  C   UNL     1      52.502   6.762   8.983  0.00  0.00    +0.000 A 
ATOM     21  C   UNL     1      52.980   7.598   8.003  0.00  0.00    +0.000 A 
ATOM     22  N   UNL     1      52.972   8.927   8.193  0.00  0.00    +0.000 NA
ATOM     23  N   UNL     1      52.465   9.414   9.366  0.00  0.00    +0.000 NA
BRANCH  21  24
ATOM     24  C   UNL     1      53.489   7.115   6.765  0.00  0.00    +0.000 C 
ATOM     25  N   UNL     1      53.939   6.739   5.761  0.00  0.00    +0.000 NA
ENDBRANCH  21  24
ENDBRANCH  16  18
ENDBRANCH   1  16
TORSDOF 5
ENDMDL
