MODEL 1
REMARK VINA RESULT:    -7.254      0.000      0.000
REMARK INTER + INTRA:         -12.953
REMARK INTER:                 -11.919
REMARK INTRA:                  -1.033
REMARK UNBOUND:                -1.033
REMARK  Name = 
REMARK  12 active torsions:
REMARK  status: ('A' for Active; 'I' for Inactive)
REMARK    1  A    between atoms: C_1  and  C_2
REMARK    2  A    between atoms: C_2  and  O_3
REMARK    3  A    between atoms: O_3  and  C_4
REMARK    4  A    between atoms: C_4  and  C_5
REMARK    5  A    between atoms: C_4  and  C_22
REMARK    6  A    between atoms: C_5  and  N_6
REMARK    7  A    between atoms: N_6  and  C_7
REMARK    8  A    between atoms: C_7  and  C_8
REMARK    9  A    between atoms: C_11  and  C_12
REMARK   10  A    between atoms: C_12  and  N_13
REMARK   11  A    between atoms: N_13  and  C_14
REMARK   12  A    between atoms: C_14  and  C_15
REMARK                            x       y       z     vdW  Elec       q    Type
REMARK                         _______ _______ _______ _____ _____    ______ ____
ROOT
ATOM      1  N   UNL     1      47.583   4.316  15.540  0.00  0.00    +0.000 NA
ATOM      2  H   UNL     1      46.644   3.971  15.761  0.00  0.00    +0.000 HD
ENDROOT
BRANCH   1   3
ATOM      3  C   UNL     1      48.142   4.798  16.810  0.00  0.00    +0.000 C 
BRANCH   3   4
ATOM      4  C   UNL     1      49.619   5.296  16.664  0.00  0.00    +0.000 C 
BRANCH   4   5
ATOM      5  C   UNL     1      50.568   4.579  17.616  0.00  0.00    +0.000 A 
ATOM      6  C   UNL     1      51.186   5.252  18.661  0.00  0.00    +0.000 A 
ATOM      7  S   UNL     1      52.413   4.342  19.417  0.00  0.00    +0.000 S 
ATOM      8  C   UNL     1      52.096   2.993  18.432  0.00  0.00    +0.000 A 
ATOM      9  N   UNL     1      52.862   1.871  18.521  0.00  0.00    +0.000 NA
ATOM     10  C   UNL     1      52.491   0.915  17.735  0.00  0.00    +0.000 A 
ATOM     11  N   UNL     1      51.400   0.964  16.907  0.00  0.00    +0.000 N 
ATOM     12  C   UNL     1      50.540   2.044  16.851  0.00  0.00    +0.000 A 
ATOM     13  O   UNL     1      49.456   1.948  16.289  0.00  0.00    +0.000 OA
ATOM     14  C   UNL     1      51.006   3.201  17.604  0.00  0.00    +0.000 A 
ATOM     15  H   UNL     1      51.100   0.140  16.412  0.00  0.00    +0.000 HD
ENDBRANCH   4   5
BRANCH   4  16
ATOM     16  O   UNL     1      49.626   6.728  16.753  0.00  0.00    +0.000 OA
BRANCH  16  18
ATOM     17  C   UNL     1      50.641   8.785  16.080  0.00  0.00    +0.000 C 
ATOM     18  C   UNL     1      50.361   7.344  15.700  0.00  0.00    +0.000 C 
ENDBRANCH  16  18
ENDBRANCH   4  16
ENDBRANCH   3   4
ENDBRANCH   1   3
BRANCH   1  19
ATOM     19  C   UNL     1      47.510   5.348  14.507  0.00  0.00    +0.000 C 
BRANCH  19  20
ATOM     20  C   UNL     1      46.601   4.947  13.368  0.00  0.00    +0.000 A 
ATOM     21  C   UNL     1      46.293   5.812  12.311  0.00  0.00    +0.000 A 
ATOM     22  C   UNL     1      45.454   5.398  11.286  0.00  0.00    +0.000 A 
ATOM     23  C   UNL     1      44.928   4.111  11.322  0.00  0.00    +0.000 A 
ATOM     24  N   UNL     1      45.232   3.232  12.313  0.00  0.00    +0.000 NA
ATOM     25  C   UNL     1      46.058   3.666  13.299  0.00  0.00    +0.000 A 
BRANCH  23  26
ATOM     26  C   UNL     1      43.957   3.672  10.240  0.00  0.00    +0.000 C 
BRANCH  26  27
ATOM     27  N   UNL     1      44.049   4.440   8.986  0.00  0.00    +0.000 NA
ATOM     28  H   UNL     1      44.711   5.201   9.162  0.00  0.00    +0.000 HD
BRANCH  27  29
ATOM     29  C   UNL     1      44.569   3.631   7.870  0.00  0.00    +0.000 C 
BRANCH  29  30
ATOM     30  C   UNL     1      46.113   3.527   7.949  0.00  0.00    +0.000 C 
ATOM     31  C   UNL     1      46.610   2.088   7.920  0.00  0.00    +0.000 C 
ATOM     32  C   UNL     1      46.709   1.767   6.443  0.00  0.00    +0.000 C 
ATOM     33  C   UNL     1      46.962   3.110   5.771  0.00  0.00    +0.000 C 
ATOM     34  N   UNL     1      46.785   4.142   6.794  0.00  0.00    +0.000 NA
ATOM     35  H   UNL     1      46.195   4.903   6.449  0.00  0.00    +0.000 HD
ENDBRANCH  29  30
ENDBRANCH  27  29
ENDBRANCH  26  27
ENDBRANCH  23  26
ENDBRANCH  19  20
ENDBRANCH   1  19
TORSDOF 11
ENDMDL
MODEL 2
REMARK VINA RESULT:    -7.054      1.600      1.968
REMARK INTER + INTRA:         -12.624
REMARK INTER:                 -11.488
REMARK INTRA:                  -1.135
REMARK UNBOUND:                -1.033
REMARK  Name = 
REMARK  12 active torsions:
REMARK  status: ('A' for Active; 'I' for Inactive)
REMARK    1  A    between atoms: C_1  and  C_2
REMARK    2  A    between atoms: C_2  and  O_3
REMARK    3  A    between atoms: O_3  and  C_4
REMARK    4  A    between atoms: C_4  and  C_5
REMARK    5  A    between atoms: C_4  and  C_22
REMARK    6  A    between atoms: C_5  and  N_6
REMARK    7  A    between atoms: N_6  and  C_7
REMARK    8  A    between atoms: C_7  and  C_8
REMARK    9  A    between atoms: C_11  and  C_12
REMARK   10  A    between atoms: C_12  and  N_13
REMARK   11  A    between atoms: N_13  and  C_14
REMARK   12  A    between atoms: C_14  and  C_15
REMARK                            x       y       z     vdW  Elec       q    Type
REMARK                         _______ _______ _______ _____ _____    ______ ____
ROOT
ATOM      1  N   UNL     1      48.674   5.878  15.520  0.00  0.00    +0.000 NA
ATOM      2  H   UNL     1      47.911   5.897  16.202  0.00  0.00    +0.000 HD
ENDROOT
BRANCH   1   3
ATOM      3  C   UNL     1      49.823   6.504  16.187  0.00  0.00    +0.000 C 
BRANCH   3   4
ATOM      4  C   UNL     1      49.784   6.327  17.741  0.00  0.00    +0.000 C 
BRANCH   4   5
ATOM      5  C   UNL     1      50.786   5.290  18.232  0.00  0.00    +0.000 A 
ATOM      6  C   UNL     1      51.853   5.646  19.044  0.00  0.00    +0.000 A 
ATOM      7  S   UNL     1      52.999   4.399  19.238  0.00  0.00    +0.000 S 
ATOM      8  C   UNL     1      52.061   3.320  18.318  0.00  0.00    +0.000 A 
ATOM      9  N   UNL     1      52.518   2.069  18.035  0.00  0.00    +0.000 NA
ATOM     10  C   UNL     1      51.691   1.348  17.352  0.00  0.00    +0.000 A 
ATOM     11  N   UNL     1      50.437   1.748  16.971  0.00  0.00    +0.000 N 
ATOM     12  C   UNL     1      49.896   2.971  17.313  0.00  0.00    +0.000 A 
ATOM     13  O   UNL     1      48.698   3.187  17.165  0.00  0.00    +0.000 OA
ATOM     14  C   UNL     1      50.847   3.873  17.949  0.00  0.00    +0.000 A 
ATOM     15  H   UNL     1      49.801   1.092  16.545  0.00  0.00    +0.000 HD
ENDBRANCH   4   5
BRANCH   4  16
ATOM     16  O   UNL     1      48.423   6.102  18.137  0.00  0.00    +0.000 OA
BRANCH  16  18
ATOM     17  C   UNL     1      47.517   8.142  18.993  0.00  0.00    +0.000 C 
ATOM     18  C   UNL     1      48.078   6.778  19.343  0.00  0.00    +0.000 C 
ENDBRANCH  16  18
ENDBRANCH   4  16
ENDBRANCH   3   4
ENDBRANCH   1   3
BRANCH   1  19
ATOM     19  C   UNL     1      48.270   6.562  14.292  0.00  0.00    +0.000 C 
BRANCH  19  20
ATOM     20  C   UNL     1      47.084   5.894  13.636  0.00  0.00    +0.000 A 
ATOM     21  C   UNL     1      46.446   6.431  12.511  0.00  0.00    +0.000 A 
ATOM     22  C   UNL     1      45.360   5.780  11.941  0.00  0.00    +0.000 A 
ATOM     23  C   UNL     1      44.920   4.585  12.501  0.00  0.00    +0.000 A 
ATOM     24  N   UNL     1      45.535   4.016  13.571  0.00  0.00    +0.000 NA
ATOM     25  C   UNL     1      46.596   4.675  14.103  0.00  0.00    +0.000 A 
BRANCH  23  26
ATOM     26  C   UNL     1      43.693   3.901  11.924  0.00  0.00    +0.000 C 
BRANCH  26  27
ATOM     27  N   UNL     1      43.978   2.683  11.146  0.00  0.00    +0.000 NA
ATOM     28  H   UNL     1      43.142   2.499  10.583  0.00  0.00    +0.000 HD
BRANCH  27  29
ATOM     29  C   UNL     1      45.117   2.857  10.229  0.00  0.00    +0.000 C 
BRANCH  29  30
ATOM     30  C   UNL     1      44.794   2.249   8.840  0.00  0.00    +0.000 C 
ATOM     31  C   UNL     1      44.910   3.263   7.710  0.00  0.00    +0.000 C 
ATOM     32  C   UNL     1      46.377   3.223   7.335  0.00  0.00    +0.000 C 
ATOM     33  C   UNL     1      46.832   1.818   7.703  0.00  0.00    +0.000 C 
ATOM     34  N   UNL     1      45.738   1.192   8.448  0.00  0.00    +0.000 NA
ATOM     35  H   UNL     1      46.085   0.741   9.298  0.00  0.00    +0.000 HD
ENDBRANCH  29  30
ENDBRANCH  27  29
ENDBRANCH  26  27
ENDBRANCH  23  26
ENDBRANCH  19  20
ENDBRANCH   1  19
TORSDOF 11
ENDMDL
MODEL 3
REMARK VINA RESULT:    -6.925      2.566      3.291
REMARK INTER + INTRA:         -12.412
REMARK INTER:                 -11.350
REMARK INTRA:                  -1.062
REMARK UNBOUND:                -1.033
REMARK  Name = 
REMARK  12 active torsions:
REMARK  status: ('A' for Active; 'I' for Inactive)
REMARK    1  A    between atoms: C_1  and  C_2
REMARK    2  A    between atoms: C_2  and  O_3
REMARK    3  A    between atoms: O_3  and  C_4
REMARK    4  A    between atoms: C_4  and  C_5
REMARK    5  A    between atoms: C_4  and  C_22
REMARK    6  A    between atoms: C_5  and  N_6
REMARK    7  A    between atoms: N_6  and  C_7
REMARK    8  A    between atoms: C_7  and  C_8
REMARK    9  A    between atoms: C_11  and  C_12
REMARK   10  A    between atoms: C_12  and  N_13
REMARK   11  A    between atoms: N_13  and  C_14
REMARK   12  A    between atoms: C_14  and  C_15
REMARK                            x       y       z     vdW  Elec       q    Type
REMARK                         _______ _______ _______ _____ _____    ______ ____
ROOT
ATOM      1  N   UNL     1      46.861   8.494  12.557  0.00  0.00    +0.000 NA
ATOM      2  H   UNL     1      47.272   7.902  11.829  0.00  0.00    +0.000 HD
ENDROOT
BRANCH   1   3
ATOM      3  C   UNL     1      47.759   8.387  13.714  0.00  0.00    +0.000 C 
BRANCH   3   4
ATOM      4  C   UNL     1      48.326   6.940  13.902  0.00  0.00    +0.000 C 
BRANCH   4   5
ATOM      5  C   UNL     1      48.519   6.579  15.369  0.00  0.00    +0.000 A 
ATOM      6  C   UNL     1      49.178   7.433  16.241  0.00  0.00    +0.000 A 
ATOM      7  S   UNL     1      49.533   6.718  17.747  0.00  0.00    +0.000 S 
ATOM      8  C   UNL     1      48.739   5.278  17.312  0.00  0.00    +0.000 A 
ATOM      9  N   UNL     1      48.736   4.205  18.150  0.00  0.00    +0.000 NA
ATOM     10  C   UNL     1      48.072   3.190  17.704  0.00  0.00    +0.000 A 
ATOM     11  N   UNL     1      47.376   3.170  16.524  0.00  0.00    +0.000 N 
ATOM     12  C   UNL     1      47.273   4.264  15.687  0.00  0.00    +0.000 A 
ATOM     13  O   UNL     1      46.450   4.279  14.779  0.00  0.00    +0.000 OA
ATOM     14  C   UNL     1      48.130   5.377  16.073  0.00  0.00    +0.000 A 
ATOM     15  H   UNL     1      46.783   2.388  16.297  0.00  0.00    +0.000 HD
ENDBRANCH   4   5
BRANCH   4  16
ATOM     16  O   UNL     1      49.491   6.798  13.076  0.00  0.00    +0.000 OA
BRANCH  16  18
ATOM     17  C   UNL     1      50.524   8.158  11.402  0.00  0.00    +0.000 C 
ATOM     18  C   UNL     1      50.179   8.029  12.873  0.00  0.00    +0.000 C 
ENDBRANCH  16  18
ENDBRANCH   4  16
ENDBRANCH   3   4
ENDBRANCH   1   3
BRANCH   1  19
ATOM     19  C   UNL     1      45.492   8.065  12.842  0.00  0.00    +0.000 C 
BRANCH  19  20
ATOM     20  C   UNL     1      45.149   6.768  12.146  0.00  0.00    +0.000 A 
ATOM     21  C   UNL     1      45.845   6.313  11.020  0.00  0.00    +0.000 A 
ATOM     22  C   UNL     1      45.495   5.114  10.413  0.00  0.00    +0.000 A 
ATOM     23  C   UNL     1      44.446   4.370  10.945  0.00  0.00    +0.000 A 
ATOM     24  N   UNL     1      43.770   4.763  12.057  0.00  0.00    +0.000 NA
ATOM     25  C   UNL     1      44.139   5.938  12.628  0.00  0.00    +0.000 A 
BRANCH  23  26
ATOM     26  C   UNL     1      44.014   3.091  10.251  0.00  0.00    +0.000 C 
BRANCH  26  27
ATOM     27  N   UNL     1      45.118   2.293   9.691  0.00  0.00    +0.000 NA
ATOM     28  H   UNL     1      44.892   1.313   9.885  0.00  0.00    +0.000 HD
BRANCH  27  29
ATOM     29  C   UNL     1      45.241   2.452   8.232  0.00  0.00    +0.000 C 
BRANCH  29  30
ATOM     30  C   UNL     1      46.671   2.914   7.854  0.00  0.00    +0.000 C 
ATOM     31  C   UNL     1      47.493   1.815   7.194  0.00  0.00    +0.000 C 
ATOM     32  C   UNL     1      47.123   1.914   5.729  0.00  0.00    +0.000 C 
ATOM     33  C   UNL     1      46.736   3.371   5.525  0.00  0.00    +0.000 C 
ATOM     34  N   UNL     1      46.675   3.990   6.851  0.00  0.00    +0.000 NA
ATOM     35  H   UNL     1      45.817   4.534   6.963  0.00  0.00    +0.000 HD
ENDBRANCH  29  30
ENDBRANCH  27  29
ENDBRANCH  26  27
ENDBRANCH  23  26
ENDBRANCH  19  20
ENDBRANCH   1  19
TORSDOF 11
ENDMDL
MODEL 4
REMARK VINA RESULT:    -6.541      2.227      3.012
REMARK INTER + INTRA:         -11.781
REMARK INTER:                 -10.822
REMARK INTRA:                  -0.959
REMARK UNBOUND:                -1.033
REMARK  Name = 
REMARK  12 active torsions:
REMARK  status: ('A' for Active; 'I' for Inactive)
REMARK    1  A    between atoms: C_1  and  C_2
REMARK    2  A    between atoms: C_2  and  O_3
REMARK    3  A    between atoms: O_3  and  C_4
REMARK    4  A    between atoms: C_4  and  C_5
REMARK    5  A    between atoms: C_4  and  C_22
REMARK    6  A    between atoms: C_5  and  N_6
REMARK    7  A    between atoms: N_6  and  C_7
REMARK    8  A    between atoms: C_7  and  C_8
REMARK    9  A    between atoms: C_11  and  C_12
REMARK   10  A    between atoms: C_12  and  N_13
REMARK   11  A    between atoms: N_13  and  C_14
REMARK   12  A    between atoms: C_14  and  C_15
REMARK                            x       y       z     vdW  Elec       q    Type
REMARK                         _______ _______ _______ _____ _____    ______ ____
ROOT
ATOM      1  N   UNL     1      48.140   5.682  15.422  0.00  0.00    +0.000 NA
ATOM      2  H   UNL     1      47.195   5.490  15.766  0.00  0.00    +0.000 HD
ENDROOT
BRANCH   1   3
ATOM      3  C   UNL     1      48.840   6.353  16.525  0.00  0.00    +0.000 C 
BRANCH   3   4
ATOM      4  C   UNL     1      49.938   5.447  17.178  0.00  0.00    +0.000 C 
BRANCH   4   5
ATOM      5  C   UNL     1      51.348   5.935  16.872  0.00  0.00    +0.000 A 
ATOM      6  C   UNL     1      51.569   7.047  16.072  0.00  0.00    +0.000 A 
ATOM      7  S   UNL     1      53.203   7.245  15.628  0.00  0.00    +0.000 S 
ATOM      8  C   UNL     1      53.676   5.906  16.563  0.00  0.00    +0.000 A 
ATOM      9  N   UNL     1      54.969   5.480  16.564  0.00  0.00    +0.000 NA
ATOM     10  C   UNL     1      55.191   4.471  17.340  0.00  0.00    +0.000 A 
ATOM     11  N   UNL     1      54.251   3.883  18.145  0.00  0.00    +0.000 N 
ATOM     12  C   UNL     1      52.951   4.338  18.247  0.00  0.00    +0.000 A 
ATOM     13  O   UNL     1      52.222   3.944  19.150  0.00  0.00    +0.000 OA
ATOM     14  C   UNL     1      52.617   5.374  17.279  0.00  0.00    +0.000 A 
ATOM     15  H   UNL     1      54.523   3.179  18.812  0.00  0.00    +0.000 HD
ENDBRANCH   4   5
BRANCH   4  16
ATOM     16  O   UNL     1      49.669   4.083  16.823  0.00  0.00    +0.000 OA
BRANCH  16  18
ATOM     17  C   UNL     1      47.706   2.981  17.626  0.00  0.00    +0.000 C 
ATOM     18  C   UNL     1      49.156   3.319  17.910  0.00  0.00    +0.000 C 
ENDBRANCH  16  18
ENDBRANCH   4  16
ENDBRANCH   3   4
ENDBRANCH   1   3
BRANCH   1  19
ATOM     19  C   UNL     1      48.078   6.482  14.200  0.00  0.00    +0.000 C 
BRANCH  19  20
ATOM     20  C   UNL     1      46.951   6.045  13.292  0.00  0.00    +0.000 A 
ATOM     21  C   UNL     1      46.775   6.570  12.007  0.00  0.00    +0.000 A 
ATOM     22  C   UNL     1      45.725   6.137  11.208  0.00  0.00    +0.000 A 
ATOM     23  C   UNL     1      44.857   5.168  11.703  0.00  0.00    +0.000 A 
ATOM     24  N   UNL     1      45.017   4.611  12.932  0.00  0.00    +0.000 NA
ATOM     25  C   UNL     1      46.055   5.054  13.686  0.00  0.00    +0.000 A 
BRANCH  23  26
ATOM     26  C   UNL     1      43.668   4.736  10.862  0.00  0.00    +0.000 C 
BRANCH  26  27
ATOM     27  N   UNL     1      43.612   3.292  10.575  0.00  0.00    +0.000 NA
ATOM     28  H   UNL     1      42.927   3.175   9.823  0.00  0.00    +0.000 HD
BRANCH  27  29
ATOM     29  C   UNL     1      44.903   2.765  10.101  0.00  0.00    +0.000 C 
BRANCH  29  30
ATOM     30  C   UNL     1      44.766   2.201   8.663  0.00  0.00    +0.000 C 
ATOM     31  C   UNL     1      44.953   3.265   7.591  0.00  0.00    +0.000 C 
ATOM     32  C   UNL     1      46.453   3.308   7.381  0.00  0.00    +0.000 C 
ATOM     33  C   UNL     1      46.936   1.912   7.745  0.00  0.00    +0.000 C 
ATOM     34  N   UNL     1      45.800   1.206   8.341  0.00  0.00    +0.000 NA
ATOM     35  H   UNL     1      46.073   0.737   9.207  0.00  0.00    +0.000 HD
ENDBRANCH  29  30
ENDBRANCH  27  29
ENDBRANCH  26  27
ENDBRANCH  23  26
ENDBRANCH  19  20
ENDBRANCH   1  19
TORSDOF 11
ENDMDL
MODEL 5
REMARK VINA RESULT:    -6.540      2.227      2.856
REMARK INTER + INTRA:         -11.780
REMARK INTER:                 -10.616
REMARK INTRA:                  -1.163
REMARK UNBOUND:                -1.033
REMARK  Name = 
REMARK  12 active torsions:
REMARK  status: ('A' for Active; 'I' for Inactive)
REMARK    1  A    between atoms: C_1  and  C_2
REMARK    2  A    between atoms: C_2  and  O_3
REMARK    3  A    between atoms: O_3  and  C_4
REMARK    4  A    between atoms: C_4  and  C_5
REMARK    5  A    between atoms: C_4  and  C_22
REMARK    6  A    between atoms: C_5  and  N_6
REMARK    7  A    between atoms: N_6  and  C_7
REMARK    8  A    between atoms: C_7  and  C_8
REMARK    9  A    between atoms: C_11  and  C_12
REMARK   10  A    between atoms: C_12  and  N_13
REMARK   11  A    between atoms: N_13  and  C_14
REMARK   12  A    between atoms: C_14  and  C_15
REMARK                            x       y       z     vdW  Elec       q    Type
REMARK                         _______ _______ _______ _____ _____    ______ ____
ROOT
ATOM      1  N   UNL     1      48.685   6.182  13.705  0.00  0.00    +0.000 NA
ATOM      2  H   UNL     1      49.495   5.556  13.737  0.00  0.00    +0.000 HD
ENDROOT
BRANCH   1   3
ATOM      3  C   UNL     1      49.072   7.376  14.469  0.00  0.00    +0.000 C 
BRANCH   3   4
ATOM      4  C   UNL     1      49.986   7.034  15.692  0.00  0.00    +0.000 C 
BRANCH   4   5
ATOM      5  C   UNL     1      49.211   6.996  17.003  0.00  0.00    +0.000 A 
ATOM      6  C   UNL     1      48.572   8.124  17.496  0.00  0.00    +0.000 A 
ATOM      7  S   UNL     1      48.014   7.940  19.096  0.00  0.00    +0.000 S 
ATOM      8  C   UNL     1      48.530   6.320  19.147  0.00  0.00    +0.000 A 
ATOM      9  N   UNL     1      48.411   5.588  20.288  0.00  0.00    +0.000 NA
ATOM     10  C   UNL     1      48.816   4.366  20.175  0.00  0.00    +0.000 A 
ATOM     11  N   UNL     1      49.283   3.802  19.017  0.00  0.00    +0.000 N 
ATOM     12  C   UNL     1      49.334   4.477  17.813  0.00  0.00    +0.000 A 
ATOM     13  O   UNL     1      49.523   3.871  16.765  0.00  0.00    +0.000 OA
ATOM     14  C   UNL     1      49.033   5.898  17.928  0.00  0.00    +0.000 A 
ATOM     15  H   UNL     1      49.468   2.813  18.972  0.00  0.00    +0.000 HD
ENDBRANCH   4   5
BRANCH   4  16
ATOM     16  O   UNL     1      51.118   7.916  15.674  0.00  0.00    +0.000 OA
BRANCH  16  18
ATOM     17  C   UNL     1      51.271  10.297  15.509  0.00  0.00    +0.000 C 
ATOM     18  C   UNL     1      50.953   9.009  14.774  0.00  0.00    +0.000 C 
ENDBRANCH  16  18
ENDBRANCH   4  16
ENDBRANCH   3   4
ENDBRANCH   1   3
BRANCH   1  19
ATOM     19  C   UNL     1      47.504   5.506  14.241  0.00  0.00    +0.000 C 
BRANCH  19  20
ATOM     20  C   UNL     1      46.512   5.154  13.157  0.00  0.00    +0.000 A 
ATOM     21  C   UNL     1      45.946   3.879  13.041  0.00  0.00    +0.000 A 
ATOM     22  C   UNL     1      45.038   3.602  12.029  0.00  0.00    +0.000 A 
ATOM     23  C   UNL     1      44.694   4.612  11.136  0.00  0.00    +0.000 A 
ATOM     24  N   UNL     1      45.196   5.871  11.238  0.00  0.00    +0.000 NA
ATOM     25  C   UNL     1      46.079   6.110  12.240  0.00  0.00    +0.000 A 
BRANCH  23  26
ATOM     26  C   UNL     1      43.751   4.301   9.987  0.00  0.00    +0.000 C 
BRANCH  26  27
ATOM     27  N   UNL     1      44.359   4.405   8.649  0.00  0.00    +0.000 NA
ATOM     28  H   UNL     1      45.151   5.047   8.742  0.00  0.00    +0.000 HD
BRANCH  27  29
ATOM     29  C   UNL     1      44.873   3.112   8.165  0.00  0.00    +0.000 C 
BRANCH  29  30
ATOM     30  C   UNL     1      46.406   3.185   7.946  0.00  0.00    +0.000 C 
ATOM     31  C   UNL     1      47.006   1.851   7.522  0.00  0.00    +0.000 C 
ATOM     32  C   UNL     1      46.838   1.839   6.017  0.00  0.00    +0.000 C 
ATOM     33  C   UNL     1      46.840   3.307   5.615  0.00  0.00    +0.000 C 
ATOM     34  N   UNL     1      46.782   4.091   6.850  0.00  0.00    +0.000 NA
ATOM     35  H   UNL     1      46.074   4.826   6.785  0.00  0.00    +0.000 HD
ENDBRANCH  29  30
ENDBRANCH  27  29
ENDBRANCH  26  27
ENDBRANCH  23  26
ENDBRANCH  19  20
ENDBRANCH   1  19
TORSDOF 11
ENDMDL
MODEL 6
REMARK VINA RESULT:    -6.479      2.148      3.077
REMARK INTER + INTRA:         -11.679
REMARK INTER:                 -10.416
REMARK INTRA:                  -1.263
REMARK UNBOUND:                -1.033
REMARK  Name = 
REMARK  12 active torsions:
REMARK  status: ('A' for Active; 'I' for Inactive)
REMARK    1  A    between atoms: C_1  and  C_2
REMARK    2  A    between atoms: C_2  and  O_3
REMARK    3  A    between atoms: O_3  and  C_4
REMARK    4  A    between atoms: C_4  and  C_5
REMARK    5  A    between atoms: C_4  and  C_22
REMARK    6  A    between atoms: C_5  and  N_6
REMARK    7  A    between atoms: N_6  and  C_7
REMARK    8  A    between atoms: C_7  and  C_8
REMARK    9  A    between atoms: C_11  and  C_12
REMARK   10  A    between atoms: C_12  and  N_13
REMARK   11  A    between atoms: N_13  and  C_14
REMARK   12  A    between atoms: C_14  and  C_15
REMARK                            x       y       z     vdW  Elec       q    Type
REMARK                         _______ _______ _______ _____ _____    ______ ____
ROOT
ATOM      1  N   UNL     1      49.673   6.842  15.284  0.00  0.00    +0.000 NA
ATOM      2  H   UNL     1      49.460   5.847  15.402  0.00  0.00    +0.000 HD
ENDROOT
BRANCH   1   3
ATOM      3  C   UNL     1      49.062   7.522  16.434  0.00  0.00    +0.000 C 
BRANCH   3   4
ATOM      4  C   UNL     1      49.687   7.072  17.797  0.00  0.00    +0.000 C 
BRANCH   4   5
ATOM      5  C   UNL     1      50.120   5.612  17.782  0.00  0.00    +0.000 A 
ATOM      6  C   UNL     1      51.426   5.244  18.071  0.00  0.00    +0.000 A 
ATOM      7  S   UNL     1      51.760   3.610  17.720  0.00  0.00    +0.000 S 
ATOM      8  C   UNL     1      50.150   3.323  17.256  0.00  0.00    +0.000 A 
ATOM      9  N   UNL     1      49.772   2.109  16.768  0.00  0.00    +0.000 NA
ATOM     10  C   UNL     1      48.515   2.024  16.482  0.00  0.00    +0.000 A 
ATOM     11  N   UNL     1      47.599   3.023  16.683  0.00  0.00    +0.000 N 
ATOM     12  C   UNL     1      47.917   4.237  17.261  0.00  0.00    +0.000 A 
ATOM     13  O   UNL     1      47.034   4.996  17.643  0.00  0.00    +0.000 OA
ATOM     14  C   UNL     1      49.347   4.433  17.457  0.00  0.00    +0.000 A 
ATOM     15  H   UNL     1      46.616   2.846  16.550  0.00  0.00    +0.000 HD
ENDBRANCH   4   5
BRANCH   4  16
ATOM     16  O   UNL     1      48.782   7.434  18.851  0.00  0.00    +0.000 OA
BRANCH  16  18
ATOM     17  C   UNL     1      47.147   9.046  19.514  0.00  0.00    +0.000 C 
ATOM     18  C   UNL     1      48.514   8.832  18.894  0.00  0.00    +0.000 C 
ENDBRANCH  16  18
ENDBRANCH   4  16
ENDBRANCH   3   4
ENDBRANCH   1   3
BRANCH   1  19
ATOM     19  C   UNL     1      49.171   7.315  13.994  0.00  0.00    +0.000 C 
BRANCH  19  20
ATOM     20  C   UNL     1      47.783   6.793  13.701  0.00  0.00    +0.000 A 
ATOM     21  C   UNL     1      47.409   5.468  13.957  0.00  0.00    +0.000 A 
ATOM     22  C   UNL     1      46.122   5.034  13.672  0.00  0.00    +0.000 A 
ATOM     23  C   UNL     1      45.209   5.935  13.135  0.00  0.00    +0.000 A 
ATOM     24  N   UNL     1      45.526   7.237  12.904  0.00  0.00    +0.000 NA
ATOM     25  C   UNL     1      46.791   7.631  13.197  0.00  0.00    +0.000 A 
BRANCH  23  26
ATOM     26  C   UNL     1      43.819   5.453  12.759  0.00  0.00    +0.000 C 
BRANCH  26  27
ATOM     27  N   UNL     1      43.342   5.916  11.445  0.00  0.00    +0.000 NA
ATOM     28  H   UNL     1      43.981   6.662  11.154  0.00  0.00    +0.000 HD
BRANCH  27  29
ATOM     29  C   UNL     1      43.386   4.854  10.426  0.00  0.00    +0.000 C 
BRANCH  29  30
ATOM     30  C   UNL     1      44.852   4.447  10.127  0.00  0.00    +0.000 C 
ATOM     31  C   UNL     1      45.078   2.944  10.218  0.00  0.00    +0.000 C 
ATOM     32  C   UNL     1      44.705   2.437   8.840  0.00  0.00    +0.000 C 
ATOM     33  C   UNL     1      44.975   3.611   7.909  0.00  0.00    +0.000 C 
ATOM     34  N   UNL     1      45.264   4.772   8.753  0.00  0.00    +0.000 NA
ATOM     35  H   UNL     1      44.734   5.590   8.445  0.00  0.00    +0.000 HD
ENDBRANCH  29  30
ENDBRANCH  27  29
ENDBRANCH  26  27
ENDBRANCH  23  26
ENDBRANCH  19  20
ENDBRANCH   1  19
TORSDOF 11
ENDMDL
MODEL 7
REMARK VINA RESULT:    -6.438      2.217      3.144
REMARK INTER + INTRA:         -11.611
REMARK INTER:                 -10.475
REMARK INTRA:                  -1.137
REMARK UNBOUND:                -1.033
REMARK  Name = 
REMARK  12 active torsions:
REMARK  status: ('A' for Active; 'I' for Inactive)
REMARK    1  A    between atoms: C_1  and  C_2
REMARK    2  A    between atoms: C_2  and  O_3
REMARK    3  A    between atoms: O_3  and  C_4
REMARK    4  A    between atoms: C_4  and  C_5
REMARK    5  A    between atoms: C_4  and  C_22
REMARK    6  A    between atoms: C_5  and  N_6
REMARK    7  A    between atoms: N_6  and  C_7
REMARK    8  A    between atoms: C_7  and  C_8
REMARK    9  A    between atoms: C_11  and  C_12
REMARK   10  A    between atoms: C_12  and  N_13
REMARK   11  A    between atoms: N_13  and  C_14
REMARK   12  A    between atoms: C_14  and  C_15
REMARK                            x       y       z     vdW  Elec       q    Type
REMARK                         _______ _______ _______ _____ _____    ______ ____
ROOT
ATOM      1  N   UNL     1      49.637   6.854  15.652  0.00  0.00    +0.000 NA
ATOM      2  H   UNL     1      49.318   5.885  15.744  0.00  0.00    +0.000 HD
ENDROOT
BRANCH   1   3
ATOM      3  C   UNL     1      49.131   7.556  16.839  0.00  0.00    +0.000 C 
BRANCH   3   4
ATOM      4  C   UNL     1      48.968   6.606  18.073  0.00  0.00    +0.000 C 
BRANCH   4   5
ATOM      5  C   UNL     1      48.844   5.144  17.666  0.00  0.00    +0.000 A 
ATOM      6  C   UNL     1      47.605   4.553  17.464  0.00  0.00    +0.000 A 
ATOM      7  S   UNL     1      47.682   2.859  17.299  0.00  0.00    +0.000 S 
ATOM      8  C   UNL     1      49.380   2.872  17.402  0.00  0.00    +0.000 A 
ATOM      9  N   UNL     1      50.085   1.708  17.400  0.00  0.00    +0.000 NA
ATOM     10  C   UNL     1      51.366   1.868  17.455  0.00  0.00    +0.000 A 
ATOM     11  N   UNL     1      52.002   3.082  17.465  0.00  0.00    +0.000 N 
ATOM     12  C   UNL     1      51.333   4.287  17.375  0.00  0.00    +0.000 A 
ATOM     13  O   UNL     1      51.945   5.323  17.141  0.00  0.00    +0.000 OA
ATOM     14  C   UNL     1      49.885   4.160  17.465  0.00  0.00    +0.000 A 
ATOM     15  H   UNL     1      53.005   3.131  17.388  0.00  0.00    +0.000 HD
ENDBRANCH   4   5
BRANCH   4  16
ATOM     16  O   UNL     1      47.903   7.108  18.894  0.00  0.00    +0.000 OA
BRANCH  16  18
ATOM     17  C   UNL     1      47.173   9.269  19.610  0.00  0.00    +0.000 C 
ATOM     18  C   UNL     1      48.287   8.241  19.666  0.00  0.00    +0.000 C 
ENDBRANCH  16  18
ENDBRANCH   4  16
ENDBRANCH   3   4
ENDBRANCH   1   3
BRANCH   1  19
ATOM     19  C   UNL     1      49.162   7.424  14.393  0.00  0.00    +0.000 C 
BRANCH  19  20
ATOM     20  C   UNL     1      47.847   6.818  13.957  0.00  0.00    +0.000 A 
ATOM     21  C   UNL     1      46.925   7.513  13.165  0.00  0.00    +0.000 A 
ATOM     22  C   UNL     1      45.731   6.914  12.788  0.00  0.00    +0.000 A 
ATOM     23  C   UNL     1      45.468   5.613  13.204  0.00  0.00    +0.000 A 
ATOM     24  N   UNL     1      46.353   4.895  13.944  0.00  0.00    +0.000 NA
ATOM     25  C   UNL     1      47.513   5.508  14.293  0.00  0.00    +0.000 A 
BRANCH  23  26
ATOM     26  C   UNL     1      44.136   4.974  12.851  0.00  0.00    +0.000 C 
BRANCH  26  27
ATOM     27  N   UNL     1      44.197   3.523  12.605  0.00  0.00    +0.000 NA
ATOM     28  H   UNL     1      43.242   3.229  12.380  0.00  0.00    +0.000 HD
BRANCH  27  29
ATOM     29  C   UNL     1      45.060   3.184  11.461  0.00  0.00    +0.000 C 
BRANCH  29  30
ATOM     30  C   UNL     1      44.212   2.990  10.178  0.00  0.00    +0.000 C 
ATOM     31  C   UNL     1      44.387   4.124   9.177  0.00  0.00    +0.000 C 
ATOM     32  C   UNL     1      45.607   3.716   8.377  0.00  0.00    +0.000 C 
ATOM     33  C   UNL     1      45.624   2.196   8.443  0.00  0.00    +0.000 C 
ATOM     34  N   UNL     1      44.603   1.796   9.413  0.00  0.00    +0.000 NA
ATOM     35  H   UNL     1      44.971   1.103  10.068  0.00  0.00    +0.000 HD
ENDBRANCH  29  30
ENDBRANCH  27  29
ENDBRANCH  26  27
ENDBRANCH  23  26
ENDBRANCH  19  20
ENDBRANCH   1  19
TORSDOF 11
ENDMDL
MODEL 8
REMARK VINA RESULT:    -6.282      2.768      3.538
REMARK INTER + INTRA:         -11.355
REMARK INTER:                 -10.293
REMARK INTRA:                  -1.062
REMARK UNBOUND:                -1.033
REMARK  Name = 
REMARK  12 active torsions:
REMARK  status: ('A' for Active; 'I' for Inactive)
REMARK    1  A    between atoms: C_1  and  C_2
REMARK    2  A    between atoms: C_2  and  O_3
REMARK    3  A    between atoms: O_3  and  C_4
REMARK    4  A    between atoms: C_4  and  C_5
REMARK    5  A    between atoms: C_4  and  C_22
REMARK    6  A    between atoms: C_5  and  N_6
REMARK    7  A    between atoms: N_6  and  C_7
REMARK    8  A    between atoms: C_7  and  C_8
REMARK    9  A    between atoms: C_11  and  C_12
REMARK   10  A    between atoms: C_12  and  N_13
REMARK   11  A    between atoms: N_13  and  C_14
REMARK   12  A    between atoms: C_14  and  C_15
REMARK                            x       y       z     vdW  Elec       q    Type
REMARK                         _______ _______ _______ _____ _____    ______ ____
ROOT
ATOM      1  N   UNL     1      48.894   6.365  13.638  0.00  0.00    +0.000 NA
ATOM      2  H   UNL     1      49.655   5.744  13.931  0.00  0.00    +0.000 HD
ENDROOT
BRANCH   1   3
ATOM      3  C   UNL     1      49.249   7.698  14.144  0.00  0.00    +0.000 C 
BRANCH   3   4
ATOM      4  C   UNL     1      50.528   7.677  15.044  0.00  0.00    +0.000 C 
BRANCH   4   5
ATOM      5  C   UNL     1      50.305   6.926  16.351  0.00  0.00    +0.000 A 
ATOM      6  C   UNL     1      51.125   5.872  16.726  0.00  0.00    +0.000 A 
ATOM      7  S   UNL     1      50.532   4.998  18.064  0.00  0.00    +0.000 S 
ATOM      8  C   UNL     1      49.210   6.054  18.237  0.00  0.00    +0.000 A 
ATOM      9  N   UNL     1      48.254   5.822  19.177  0.00  0.00    +0.000 NA
ATOM     10  C   UNL     1      47.324   6.719  19.215  0.00  0.00    +0.000 A 
ATOM     11  N   UNL     1      47.292   7.845  18.434  0.00  0.00    +0.000 N 
ATOM     12  C   UNL     1      48.287   8.169  17.533  0.00  0.00    +0.000 A 
ATOM     13  O   UNL     1      48.342   9.290  17.041  0.00  0.00    +0.000 OA
ATOM     14  C   UNL     1      49.274   7.113  17.347  0.00  0.00    +0.000 A 
ATOM     15  H   UNL     1      46.603   8.560  18.601  0.00  0.00    +0.000 HD
ENDBRANCH   4   5
BRANCH   4  16
ATOM     16  O   UNL     1      51.008   9.022  15.183  0.00  0.00    +0.000 OA
BRANCH  16  18
ATOM     17  C   UNL     1      52.010   9.785  13.151  0.00  0.00    +0.000 C 
ATOM     18  C   UNL     1      52.261   9.233  14.541  0.00  0.00    +0.000 C 
ENDBRANCH  16  18
ENDBRANCH   4  16
ENDBRANCH   3   4
ENDBRANCH   1   3
BRANCH   1  19
ATOM     19  C   UNL     1      47.616   5.870  14.147  0.00  0.00    +0.000 C 
BRANCH  19  20
ATOM     20  C   UNL     1      46.666   5.502  13.031  0.00  0.00    +0.000 A 
ATOM     21  C   UNL     1      46.464   6.324  11.915  0.00  0.00    +0.000 A 
ATOM     22  C   UNL     1      45.581   5.944  10.913  0.00  0.00    +0.000 A 
ATOM     23  C   UNL     1      44.906   4.734  11.032  0.00  0.00    +0.000 A 
ATOM     24  N   UNL     1      45.102   3.895  12.083  0.00  0.00    +0.000 NA
ATOM     25  C   UNL     1      45.974   4.293  13.044  0.00  0.00    +0.000 A 
BRANCH  23  26
ATOM     26  C   UNL     1      43.890   4.341   9.974  0.00  0.00    +0.000 C 
BRANCH  26  27
ATOM     27  N   UNL     1      44.333   4.562   8.586  0.00  0.00    +0.000 NA
ATOM     28  H   UNL     1      45.117   5.219   8.636  0.00  0.00    +0.000 HD
BRANCH  27  29
ATOM     29  C   UNL     1      44.813   3.326   7.947  0.00  0.00    +0.000 C 
BRANCH  29  30
ATOM     30  C   UNL     1      46.358   3.347   7.814  0.00  0.00    +0.000 C 
ATOM     31  C   UNL     1      46.954   1.958   7.627  0.00  0.00    +0.000 C 
ATOM     32  C   UNL     1      46.874   1.727   6.133  0.00  0.00    +0.000 C 
ATOM     33  C   UNL     1      46.930   3.120   5.522  0.00  0.00    +0.000 C 
ATOM     34  N   UNL     1      46.817   4.078   6.623  0.00  0.00    +0.000 NA
ATOM     35  H   UNL     1      46.129   4.803   6.409  0.00  0.00    +0.000 HD
ENDBRANCH  29  30
ENDBRANCH  27  29
ENDBRANCH  26  27
ENDBRANCH  23  26
ENDBRANCH  19  20
ENDBRANCH   1  19
TORSDOF 11
ENDMDL
MODEL 9
REMARK VINA RESULT:    -6.189      3.803      8.790
REMARK INTER + INTRA:         -11.203
REMARK INTER:                  -9.443
REMARK INTRA:                  -1.760
REMARK UNBOUND:                -1.033
REMARK  Name = 
REMARK  12 active torsions:
REMARK  status: ('A' for Active; 'I' for Inactive)
REMARK    1  A    between atoms: C_1  and  C_2
REMARK    2  A    between atoms: C_2  and  O_3
REMARK    3  A    between atoms: O_3  and  C_4
REMARK    4  A    between atoms: C_4  and  C_5
REMARK    5  A    between atoms: C_4  and  C_22
REMARK    6  A    between atoms: C_5  and  N_6
REMARK    7  A    between atoms: N_6  and  C_7
REMARK    8  A    between atoms: C_7  and  C_8
REMARK    9  A    between atoms: C_11  and  C_12
REMARK   10  A    between atoms: C_12  and  N_13
REMARK   11  A    between atoms: N_13  and  C_14
REMARK   12  A    between atoms: C_14  and  C_15
REMARK                            x       y       z     vdW  Elec       q    Type
REMARK                         _______ _______ _______ _____ _____    ______ ____
ROOT
ATOM      1  N   UNL     1      47.432   8.784  14.759  0.00  0.00    +0.000 NA
ATOM      2  H   UNL     1      47.445   7.765  14.871  0.00  0.00    +0.000 HD
ENDROOT
BRANCH   1   3
ATOM      3  C   UNL     1      47.614   9.031  13.323  0.00  0.00    +0.000 C 
BRANCH   3   4
ATOM      4  C   UNL     1      47.837   7.712  12.511  0.00  0.00    +0.000 C 
BRANCH   4   5
ATOM      5  C   UNL     1      46.713   6.706  12.721  0.00  0.00    +0.000 A 
ATOM      6  C   UNL     1      46.918   5.532  13.433  0.00  0.00    +0.000 A 
ATOM      7  S   UNL     1      45.625   4.429  13.303  0.00  0.00    +0.000 S 
ATOM      8  C   UNL     1      44.716   5.519  12.367  0.00  0.00    +0.000 A 
ATOM      9  N   UNL     1      43.508   5.157  11.856  0.00  0.00    +0.000 NA
ATOM     10  C   UNL     1      42.916   6.092  11.188  0.00  0.00    +0.000 A 
ATOM     11  N   UNL     1      43.402   7.364  11.028  0.00  0.00    +0.000 N 
ATOM     12  C   UNL     1      44.577   7.804  11.605  0.00  0.00    +0.000 A 
ATOM     13  O   UNL     1      44.844   8.999  11.640  0.00  0.00    +0.000 OA
ATOM     14  C   UNL     1      45.351   6.743  12.236  0.00  0.00    +0.000 A 
ATOM     15  H   UNL     1      42.832   8.075  10.598  0.00  0.00    +0.000 HD
ENDBRANCH   4   5
BRANCH   4  16
ATOM     16  O   UNL     1      49.157   7.224  12.791  0.00  0.00    +0.000 OA
BRANCH  16  18
ATOM     17  C   UNL     1      50.720   7.689  11.042  0.00  0.00    +0.000 C 
ATOM     18  C   UNL     1      50.179   8.131  12.388  0.00  0.00    +0.000 C 
ENDBRANCH  16  18
ENDBRANCH   4  16
ENDBRANCH   3   4
ENDBRANCH   1   3
BRANCH   1  19
ATOM     19  C   UNL     1      48.467   9.395  15.591  0.00  0.00    +0.000 C 
BRANCH  19  20
ATOM     20  C   UNL     1      49.182   8.374  16.447  0.00  0.00    +0.000 A 
ATOM     21  C   UNL     1      48.625   7.858  17.623  0.00  0.00    +0.000 A 
ATOM     22  C   UNL     1      49.318   6.920  18.377  0.00  0.00    +0.000 A 
ATOM     23  C   UNL     1      50.571   6.498  17.941  0.00  0.00    +0.000 A 
ATOM     24  N   UNL     1      51.128   6.950  16.787  0.00  0.00    +0.000 NA
ATOM     25  C   UNL     1      50.423   7.864  16.072  0.00  0.00    +0.000 A 
BRANCH  23  26
ATOM     26  C   UNL     1      51.364   5.522  18.793  0.00  0.00    +0.000 C 
BRANCH  26  27
ATOM     27  N   UNL     1      50.787   4.169  18.876  0.00  0.00    +0.000 NA
ATOM     28  H   UNL     1      49.832   4.285  19.229  0.00  0.00    +0.000 HD
BRANCH  27  29
ATOM     29  C   UNL     1      50.710   3.511  17.560  0.00  0.00    +0.000 C 
BRANCH  29  30
ATOM     30  C   UNL     1      49.584   2.445  17.551  0.00  0.00    +0.000 C 
ATOM     31  C   UNL     1      48.313   2.922  18.240  0.00  0.00    +0.000 C 
ATOM     32  C   UNL     1      47.563   3.657  17.149  0.00  0.00    +0.000 C 
ATOM     33  C   UNL     1      48.020   3.001  15.854  0.00  0.00    +0.000 C 
ATOM     34  N   UNL     1      49.130   2.108  16.193  0.00  0.00    +0.000 NA
ATOM     35  H   UNL     1      49.916   2.240  15.552  0.00  0.00    +0.000 HD
ENDBRANCH  29  30
ENDBRANCH  27  29
ENDBRANCH  26  27
ENDBRANCH  23  26
ENDBRANCH  19  20
ENDBRANCH   1  19
TORSDOF 11
ENDMDL
