MODEL 1
REMARK VINA RESULT:    -8.243      0.000      0.000
REMARK INTER + INTRA:         -14.675
REMARK INTER:                 -12.821
REMARK INTRA:                  -1.854
REMARK UNBOUND:                -1.854
REMARK  Name = 
REMARK  11 active torsions:
REMARK  status: ('A' for Active; 'I' for Inactive)
REMARK    1  A    between atoms: C_1  and  O_2
REMARK    2  A    between atoms: O_2  and  C_3
REMARK    3  A    between atoms: C_10  and  C_11
REMARK    4  A    between atoms: N_13  and  C_14
REMARK    5  A    between atoms: C_14  and  C_15
REMARK    6  A    between atoms: C_18  and  C_19
REMARK    7  A    between atoms: C_19  and  N_20
REMARK    8  A    between atoms: N_20  and  CA_21
REMARK    9  A    between atoms: CA_21  and  C_22
REMARK   10  A    between atoms: CA_21  and  C_24
REMARK   11  A    between atoms: C_22  and  O_23
REMARK                            x       y       z     vdW  Elec       q    Type
REMARK                         _______ _______ _______ _____ _____    ______ ____
ROOT
ATOM      1  C   UNL     1      46.628   7.664  12.597  0.00  0.00    +0.000 A 
ATOM      2  C   UNL     1      47.016   6.668  11.691  0.00  0.00    +0.000 A 
ATOM      3  C   UNL     1      46.058   5.891  11.020  0.00  0.00    +0.000 A 
ATOM      4  C   UNL     1      44.690   6.141  11.183  0.00  0.00    +0.000 A 
ATOM      5  C   UNL     1      44.313   7.238  11.973  0.00  0.00    +0.000 A 
ATOM      6  C   UNL     1      45.266   7.983  12.682  0.00  0.00    +0.000 A 
ENDROOT
BRANCH   1   7
ATOM      7  C   UNL     1      47.646   8.337  13.489  0.00  0.00    +0.000 C 
BRANCH   7  10
ATOM      8  C   UNL     1      49.075   7.014  15.012  0.00  0.00    +0.000 C 
ATOM      9  O   UNL     1      50.030   7.061  14.230  0.00  0.00    +0.000 OA
ATOM     10  N   UNL     1      47.882   7.616  14.710  0.00  0.00    +0.000 N 
ATOM     11  H   UNL     1      47.161   7.675  15.424  0.00  0.00    +0.000 HD
BRANCH   8  19
ATOM     12  C   UNL     1      47.374   4.315  16.294  0.00  0.00    +0.000 A 
ATOM     13  N   UNL     1      46.963   3.218  16.958  0.00  0.00    +0.000 NA
ATOM     14  C   UNL     1      47.569   2.911  18.106  0.00  0.00    +0.000 A 
ATOM     15  N   UNL     1      48.545   3.593  18.700  0.00  0.00    +0.000 NA
ATOM     16  C   UNL     1      48.934   4.673  18.000  0.00  0.00    +0.000 A 
ATOM     17  S   UNL     1      50.158   5.676  18.614  0.00  0.00    +0.000 S 
ATOM     18  C   UNL     1      50.092   6.679  17.245  0.00  0.00    +0.000 A 
ATOM     19  C   UNL     1      49.162   6.278  16.287  0.00  0.00    +0.000 A 
ATOM     20  C   UNL     1      48.433   5.103  16.775  0.00  0.00    +0.000 A 
BRANCH  12  22
ATOM     21  C   UNL     1      47.020   3.868  14.017  0.00  0.00    +0.000 C 
ATOM     22  O   UNL     1      46.702   4.675  15.145  0.00  0.00    +0.000 OA
ENDBRANCH  12  22
ENDBRANCH   8  19
ENDBRANCH   7  10
ENDBRANCH   1   7
BRANCH   4  23
ATOM     23  C   UNL     1      43.637   5.334  10.443  0.00  0.00    +0.000 C 
BRANCH  23  24
ATOM     24  N   UNL     1      44.104   4.751   9.180  0.00  0.00    +0.000 NA
ATOM     25  H   UNL     1      45.045   5.126   9.016  0.00  0.00    +0.000 HD
BRANCH  24  26
ATOM     26  CA  UNL     1      44.278   3.257   9.205  0.00  0.00    +0.000 C 
BRANCH  26  27
ATOM     27  C   UNL     1      45.500   2.749   8.419  0.00  0.00    +0.000 A 
ATOM     28  C   UNL     1      46.254   3.571   7.583  0.00  0.00    +0.000 A 
ATOM     29  C   UNL     1      47.240   3.007   6.771  0.00  0.00    +0.000 A 
ATOM     30  C   UNL     1      47.509   1.650   6.864  0.00  0.00    +0.000 A 
ATOM     31  C   UNL     1      46.789   0.913   7.787  0.00  0.00    +0.000 A 
ATOM     32  N   UNL     1      45.790   1.421   8.546  0.00  0.00    +0.000 NA
ENDBRANCH  26  27
BRANCH  26  33
ATOM     33  C   UNL     1      44.054   2.642  10.621  0.00  0.00    +0.000 C 
BRANCH  33  34
ATOM     34  O   UNL     1      45.217   2.548  11.440  0.00  0.00    +0.000 OA
ATOM     35  H   UNL     1      44.954   2.152  12.283  0.00  0.00    +0.000 HD
ENDBRANCH  33  34
ENDBRANCH  26  33
ENDBRANCH  24  26
ENDBRANCH  23  24
ENDBRANCH   4  23
TORSDOF 10
ENDMDL
MODEL 2
REMARK VINA RESULT:    -7.593      1.299      1.648
REMARK INTER + INTRA:         -13.664
REMARK INTER:                 -12.526
REMARK INTRA:                  -1.138
REMARK UNBOUND:                -1.854
REMARK  Name = 
REMARK  11 active torsions:
REMARK  status: ('A' for Active; 'I' for Inactive)
REMARK    1  A    between atoms: C_1  and  O_2
REMARK    2  A    between atoms: O_2  and  C_3
REMARK    3  A    between atoms: C_10  and  C_11
REMARK    4  A    between atoms: N_13  and  C_14
REMARK    5  A    between atoms: C_14  and  C_15
REMARK    6  A    between atoms: C_18  and  C_19
REMARK    7  A    between atoms: C_19  and  N_20
REMARK    8  A    between atoms: N_20  and  CA_21
REMARK    9  A    between atoms: CA_21  and  C_22
REMARK   10  A    between atoms: CA_21  and  C_24
REMARK   11  A    between atoms: C_22  and  O_23
REMARK                            x       y       z     vdW  Elec       q    Type
REMARK                         _______ _______ _______ _____ _____    ______ ____
ROOT
ATOM      1  C   UNL     1      47.045   7.733  12.855  0.00  0.00    +0.000 A 
ATOM      2  C   UNL     1      47.041   6.335  12.759  0.00  0.00    +0.000 A 
ATOM      3  C   UNL     1      45.918   5.650  12.268  0.00  0.00    +0.000 A 
ATOM      4  C   UNL     1      44.802   6.350  11.792  0.00  0.00    +0.000 A 
ATOM      5  C   UNL     1      44.874   7.751  11.751  0.00  0.00    +0.000 A 
ATOM      6  C   UNL     1      45.975   8.436  12.286  0.00  0.00    +0.000 A 
ENDROOT
BRANCH   1   7
ATOM      7  C   UNL     1      48.150   8.453  13.594  0.00  0.00    +0.000 C 
BRANCH   7  10
ATOM      8  C   UNL     1      49.066   7.367  15.618  0.00  0.00    +0.000 C 
ATOM      9  O   UNL     1      49.962   6.815  14.971  0.00  0.00    +0.000 OA
ATOM     10  N   UNL     1      48.148   8.179  15.006  0.00  0.00    +0.000 N 
ATOM     11  H   UNL     1      47.507   8.723  15.577  0.00  0.00    +0.000 HD
BRANCH   8  19
ATOM     12  C   UNL     1      48.671   4.549  17.548  0.00  0.00    +0.000 A 
ATOM     13  N   UNL     1      48.644   3.619  18.521  0.00  0.00    +0.000 NA
ATOM     14  C   UNL     1      48.702   4.029  19.789  0.00  0.00    +0.000 A 
ATOM     15  N   UNL     1      48.764   5.286  20.218  0.00  0.00    +0.000 NA
ATOM     16  C   UNL     1      48.801   6.183  19.218  0.00  0.00    +0.000 A 
ATOM     17  S   UNL     1      48.862   7.841  19.576  0.00  0.00    +0.000 S 
ATOM     18  C   UNL     1      48.927   8.247  17.929  0.00  0.00    +0.000 A 
ATOM     19  C   UNL     1      48.920   7.149  17.069  0.00  0.00    +0.000 A 
ATOM     20  C   UNL     1      48.789   5.916  17.852  0.00  0.00    +0.000 A 
BRANCH  12  22
ATOM     21  C   UNL     1      47.192   4.106  15.780  0.00  0.00    +0.000 C 
ATOM     22  O   UNL     1      48.539   4.134  16.241  0.00  0.00    +0.000 OA
ENDBRANCH  12  22
ENDBRANCH   8  19
ENDBRANCH   7  10
ENDBRANCH   1   7
BRANCH   4  23
ATOM     23  C   UNL     1      43.588   5.631  11.228  0.00  0.00    +0.000 C 
BRANCH  23  24
ATOM     24  N   UNL     1      43.788   5.082   9.881  0.00  0.00    +0.000 NA
ATOM     25  H   UNL     1      44.673   5.470   9.537  0.00  0.00    +0.000 HD
BRANCH  24  26
ATOM     26  CA  UNL     1      43.971   3.589   9.834  0.00  0.00    +0.000 C 
BRANCH  26  27
ATOM     27  C   UNL     1      45.023   3.113   8.818  0.00  0.00    +0.000 A 
ATOM     28  C   UNL     1      45.460   1.791   8.747  0.00  0.00    +0.000 A 
ATOM     29  C   UNL     1      46.538   1.465   7.921  0.00  0.00    +0.000 A 
ATOM     30  C   UNL     1      47.108   2.446   7.122  0.00  0.00    +0.000 A 
ATOM     31  C   UNL     1      46.558   3.714   7.169  0.00  0.00    +0.000 A 
ATOM     32  N   UNL     1      45.552   4.071   8.002  0.00  0.00    +0.000 NA
ENDBRANCH  26  27
BRANCH  26  33
ATOM     33  C   UNL     1      44.021   2.937  11.250  0.00  0.00    +0.000 C 
BRANCH  33  34
ATOM     34  O   UNL     1      43.073   1.899  11.481  0.00  0.00    +0.000 OA
ATOM     35  H   UNL     1      43.217   1.560  12.376  0.00  0.00    +0.000 HD
ENDBRANCH  33  34
ENDBRANCH  26  33
ENDBRANCH  24  26
ENDBRANCH  23  24
ENDBRANCH   4  23
TORSDOF 10
ENDMDL
MODEL 3
REMARK VINA RESULT:    -7.521      1.784      2.128
REMARK INTER + INTRA:         -13.552
REMARK INTER:                 -12.257
REMARK INTRA:                  -1.295
REMARK UNBOUND:                -1.854
REMARK  Name = 
REMARK  11 active torsions:
REMARK  status: ('A' for Active; 'I' for Inactive)
REMARK    1  A    between atoms: C_1  and  O_2
REMARK    2  A    between atoms: O_2  and  C_3
REMARK    3  A    between atoms: C_10  and  C_11
REMARK    4  A    between atoms: N_13  and  C_14
REMARK    5  A    between atoms: C_14  and  C_15
REMARK    6  A    between atoms: C_18  and  C_19
REMARK    7  A    between atoms: C_19  and  N_20
REMARK    8  A    between atoms: N_20  and  CA_21
REMARK    9  A    between atoms: CA_21  and  C_22
REMARK   10  A    between atoms: CA_21  and  C_24
REMARK   11  A    between atoms: C_22  and  O_23
REMARK                            x       y       z     vdW  Elec       q    Type
REMARK                         _______ _______ _______ _____ _____    ______ ____
ROOT
ATOM      1  C   UNL     1      47.626   7.505  13.674  0.00  0.00    +0.000 A 
ATOM      2  C   UNL     1      47.513   6.113  13.548  0.00  0.00    +0.000 A 
ATOM      3  C   UNL     1      46.398   5.535  12.921  0.00  0.00    +0.000 A 
ATOM      4  C   UNL     1      45.406   6.335  12.340  0.00  0.00    +0.000 A 
ATOM      5  C   UNL     1      45.603   7.725  12.336  0.00  0.00    +0.000 A 
ATOM      6  C   UNL     1      46.690   8.305  13.005  0.00  0.00    +0.000 A 
ENDROOT
BRANCH   1   7
ATOM      7  C   UNL     1      48.699   8.117  14.546  0.00  0.00    +0.000 C 
BRANCH   7  10
ATOM      8  C   UNL     1      49.407   6.899  16.577  0.00  0.00    +0.000 C 
ATOM      9  O   UNL     1      48.628   7.541  17.289  0.00  0.00    +0.000 OA
ATOM     10  N   UNL     1      49.492   7.132  15.230  0.00  0.00    +0.000 N 
ATOM     11  H   UNL     1      50.041   6.503  14.651  0.00  0.00    +0.000 HD
BRANCH   8  19
ATOM     12  C   UNL     1      49.338   3.462  16.642  0.00  0.00    +0.000 A 
ATOM     13  N   UNL     1      49.613   2.145  16.694  0.00  0.00    +0.000 NA
ATOM     14  C   UNL     1      50.769   1.763  17.239  0.00  0.00    +0.000 A 
ATOM     15  N   UNL     1      51.698   2.551  17.772  0.00  0.00    +0.000 NA
ATOM     16  C   UNL     1      51.392   3.856  17.690  0.00  0.00    +0.000 A 
ATOM     17  S   UNL     1      52.454   5.012  18.336  0.00  0.00    +0.000 S 
ATOM     18  C   UNL     1      51.456   6.288  17.829  0.00  0.00    +0.000 A 
ATOM     19  C   UNL     1      50.308   5.881  17.149  0.00  0.00    +0.000 A 
ATOM     20  C   UNL     1      50.252   4.416  17.119  0.00  0.00    +0.000 A 
BRANCH  12  22
ATOM     21  C   UNL     1      47.104   3.985  17.140  0.00  0.00    +0.000 C 
ATOM     22  O   UNL     1      48.114   3.856  16.145  0.00  0.00    +0.000 OA
ENDBRANCH  12  22
ENDBRANCH   8  19
ENDBRANCH   7  10
ENDBRANCH   1   7
BRANCH   4  23
ATOM     23  C   UNL     1      44.207   5.732  11.629  0.00  0.00    +0.000 C 
BRANCH  23  24
ATOM     24  N   UNL     1      44.471   5.327  10.244  0.00  0.00    +0.000 NA
ATOM     25  H   UNL     1      45.471   5.486  10.079  0.00  0.00    +0.000 HD
BRANCH  24  26
ATOM     26  CA  UNL     1      44.257   3.864   9.966  0.00  0.00    +0.000 C 
BRANCH  26  27
ATOM     27  C   UNL     1      45.185   3.283   8.885  0.00  0.00    +0.000 A 
ATOM     28  C   UNL     1      45.479   1.923   8.794  0.00  0.00    +0.000 A 
ATOM     29  C   UNL     1      46.459   1.489   7.899  0.00  0.00    +0.000 A 
ATOM     30  C   UNL     1      47.071   2.407   7.058  0.00  0.00    +0.000 A 
ATOM     31  C   UNL     1      46.658   3.724   7.133  0.00  0.00    +0.000 A 
ATOM     32  N   UNL     1      45.752   4.182   8.029  0.00  0.00    +0.000 NA
ENDBRANCH  26  27
BRANCH  26  33
ATOM     33  C   UNL     1      44.082   3.018  11.265  0.00  0.00    +0.000 C 
BRANCH  33  34
ATOM     34  O   UNL     1      42.791   2.444  11.453  0.00  0.00    +0.000 OA
ATOM     35  H   UNL     1      42.583   2.488  12.398  0.00  0.00    +0.000 HD
ENDBRANCH  33  34
ENDBRANCH  26  33
ENDBRANCH  24  26
ENDBRANCH  23  24
ENDBRANCH   4  23
TORSDOF 10
ENDMDL
MODEL 4
REMARK VINA RESULT:    -6.761      2.821      3.811
REMARK INTER + INTRA:         -12.369
REMARK INTER:                 -11.373
REMARK INTRA:                  -0.996
REMARK UNBOUND:                -1.854
REMARK  Name = 
REMARK  11 active torsions:
REMARK  status: ('A' for Active; 'I' for Inactive)
REMARK    1  A    between atoms: C_1  and  O_2
REMARK    2  A    between atoms: O_2  and  C_3
REMARK    3  A    between atoms: C_10  and  C_11
REMARK    4  A    between atoms: N_13  and  C_14
REMARK    5  A    between atoms: C_14  and  C_15
REMARK    6  A    between atoms: C_18  and  C_19
REMARK    7  A    between atoms: C_19  and  N_20
REMARK    8  A    between atoms: N_20  and  CA_21
REMARK    9  A    between atoms: CA_21  and  C_22
REMARK   10  A    between atoms: CA_21  and  C_24
REMARK   11  A    between atoms: C_22  and  O_23
REMARK                            x       y       z     vdW  Elec       q    Type
REMARK                         _______ _______ _______ _____ _____    ______ ____
ROOT
ATOM      1  C   UNL     1      48.345   6.057  15.745  0.00  0.00    +0.000 A 
ATOM      2  C   UNL     1      47.611   4.871  15.884  0.00  0.00    +0.000 A 
ATOM      3  C   UNL     1      46.776   4.416  14.850  0.00  0.00    +0.000 A 
ATOM      4  C   UNL     1      46.713   5.096  13.628  0.00  0.00    +0.000 A 
ATOM      5  C   UNL     1      47.565   6.195  13.442  0.00  0.00    +0.000 A 
ATOM      6  C   UNL     1      48.362   6.679  14.490  0.00  0.00    +0.000 A 
ENDROOT
BRANCH   1   7
ATOM      7  C   UNL     1      49.056   6.668  16.931  0.00  0.00    +0.000 C 
BRANCH   7  10
ATOM      8  C   UNL     1      51.300   5.667  17.203  0.00  0.00    +0.000 C 
ATOM      9  O   UNL     1      51.774   6.373  16.307  0.00  0.00    +0.000 OA
ATOM     10  N   UNL     1      49.980   5.761  17.556  0.00  0.00    +0.000 N 
ATOM     11  H   UNL     1      49.650   5.267  18.381  0.00  0.00    +0.000 HD
BRANCH   8  19
ATOM     12  C   UNL     1      51.264   2.230  17.292  0.00  0.00    +0.000 A 
ATOM     13  N   UNL     1      51.545   0.917  17.395  0.00  0.00    +0.000 NA
ATOM     14  C   UNL     1      52.616   0.555  18.103  0.00  0.00    +0.000 A 
ATOM     15  N   UNL     1      53.450   1.360  18.755  0.00  0.00    +0.000 NA
ATOM     16  C   UNL     1      53.143   2.660  18.617  0.00  0.00    +0.000 A 
ATOM     17  S   UNL     1      54.088   3.836  19.397  0.00  0.00    +0.000 S 
ATOM     18  C   UNL     1      53.157   5.094  18.740  0.00  0.00    +0.000 A 
ATOM     19  C   UNL     1      52.123   4.666  17.908  0.00  0.00    +0.000 A 
ATOM     20  C   UNL     1      52.090   3.200  17.884  0.00  0.00    +0.000 A 
BRANCH  12  22
ATOM     21  C   UNL     1      48.919   2.336  17.341  0.00  0.00    +0.000 C 
ATOM     22  O   UNL     1      50.118   2.604  16.622  0.00  0.00    +0.000 OA
ENDBRANCH  12  22
ENDBRANCH   8  19
ENDBRANCH   7  10
ENDBRANCH   1   7
BRANCH   4  23
ATOM     23  C   UNL     1      45.841   4.605  12.485  0.00  0.00    +0.000 C 
BRANCH  23  24
ATOM     24  N   UNL     1      45.473   5.647  11.519  0.00  0.00    +0.000 NA
ATOM     25  H   UNL     1      46.325   5.871  10.994  0.00  0.00    +0.000 HD
BRANCH  24  26
ATOM     26  CA  UNL     1      44.475   5.214  10.479  0.00  0.00    +0.000 C 
BRANCH  26  27
ATOM     27  C   UNL     1      45.018   4.187   9.470  0.00  0.00    +0.000 A 
ATOM     28  C   UNL     1      44.811   2.815   9.605  0.00  0.00    +0.000 A 
ATOM     29  C   UNL     1      45.475   1.932   8.751  0.00  0.00    +0.000 A 
ATOM     30  C   UNL     1      46.269   2.433   7.731  0.00  0.00    +0.000 A 
ATOM     31  C   UNL     1      46.349   3.807   7.594  0.00  0.00    +0.000 A 
ATOM     32  N   UNL     1      45.763   4.686   8.441  0.00  0.00    +0.000 NA
ENDBRANCH  26  27
BRANCH  26  33
ATOM     33  C   UNL     1      43.062   4.930  11.074  0.00  0.00    +0.000 C 
BRANCH  33  34
ATOM     34  O   UNL     1      42.533   5.953  11.914  0.00  0.00    +0.000 OA
ATOM     35  H   UNL     1      43.046   5.956  12.735  0.00  0.00    +0.000 HD
ENDBRANCH  33  34
ENDBRANCH  26  33
ENDBRANCH  24  26
ENDBRANCH  23  24
ENDBRANCH   4  23
TORSDOF 10
ENDMDL
MODEL 5
REMARK VINA RESULT:    -6.558      3.384      5.456
REMARK INTER + INTRA:         -12.054
REMARK INTER:                 -10.423
REMARK INTRA:                  -1.632
REMARK UNBOUND:                -1.854
REMARK  Name = 
REMARK  11 active torsions:
REMARK  status: ('A' for Active; 'I' for Inactive)
REMARK    1  A    between atoms: C_1  and  O_2
REMARK    2  A    between atoms: O_2  and  C_3
REMARK    3  A    between atoms: C_10  and  C_11
REMARK    4  A    between atoms: N_13  and  C_14
REMARK    5  A    between atoms: C_14  and  C_15
REMARK    6  A    between atoms: C_18  and  C_19
REMARK    7  A    between atoms: C_19  and  N_20
REMARK    8  A    between atoms: N_20  and  CA_21
REMARK    9  A    between atoms: CA_21  and  C_22
REMARK   10  A    between atoms: CA_21  and  C_24
REMARK   11  A    between atoms: C_22  and  O_23
REMARK                            x       y       z     vdW  Elec       q    Type
REMARK                         _______ _______ _______ _____ _____    ______ ____
ROOT
ATOM      1  C   UNL     1      48.045   4.256  16.823  0.00  0.00    +0.000 A 
ATOM      2  C   UNL     1      48.665   5.513  16.866  0.00  0.00    +0.000 A 
ATOM      3  C   UNL     1      48.592   6.390  15.773  0.00  0.00    +0.000 A 
ATOM      4  C   UNL     1      47.838   6.063  14.639  0.00  0.00    +0.000 A 
ATOM      5  C   UNL     1      47.097   4.871  14.665  0.00  0.00    +0.000 A 
ATOM      6  C   UNL     1      47.208   3.972  15.736  0.00  0.00    +0.000 A 
ENDROOT
BRANCH   1   7
ATOM      7  C   UNL     1      48.314   3.225  17.894  0.00  0.00    +0.000 C 
BRANCH   7  10
ATOM      8  C   UNL     1      50.472   2.217  17.232  0.00  0.00    +0.000 C 
ATOM      9  O   UNL     1      49.974   1.699  16.228  0.00  0.00    +0.000 OA
ATOM     10  N   UNL     1      49.716   2.974  18.088  0.00  0.00    +0.000 N 
ATOM     11  H   UNL     1      50.177   3.494  18.830  0.00  0.00    +0.000 HD
BRANCH   8  19
ATOM     12  C   UNL     1      53.033   4.370  18.027  0.00  0.00    +0.000 A 
ATOM     13  N   UNL     1      54.147   4.971  18.486  0.00  0.00    +0.000 NA
ATOM     14  C   UNL     1      55.179   4.203  18.836  0.00  0.00    +0.000 A 
ATOM     15  N   UNL     1      55.248   2.876  18.762  0.00  0.00    +0.000 NA
ATOM     16  C   UNL     1      54.114   2.315  18.311  0.00  0.00    +0.000 A 
ATOM     17  S   UNL     1      54.022   0.629  18.133  0.00  0.00    +0.000 S 
ATOM     18  C   UNL     1      52.408   0.720  17.615  0.00  0.00    +0.000 A 
ATOM     19  C   UNL     1      51.891   2.014  17.577  0.00  0.00    +0.000 A 
ATOM     20  C   UNL     1      52.941   2.970  17.945  0.00  0.00    +0.000 A 
BRANCH  12  22
ATOM     21  C   UNL     1      52.368   6.131  16.624  0.00  0.00    +0.000 C 
ATOM     22  O   UNL     1      51.990   5.163  17.597  0.00  0.00    +0.000 OA
ENDBRANCH  12  22
ENDBRANCH   8  19
ENDBRANCH   7  10
ENDBRANCH   1   7
BRANCH   4  23
ATOM     23  C   UNL     1      47.720   7.010  13.457  0.00  0.00    +0.000 C 
BRANCH  23  24
ATOM     24  N   UNL     1      47.546   6.337  12.164  0.00  0.00    +0.000 NA
ATOM     25  H   UNL     1      47.594   5.330  12.351  0.00  0.00    +0.000 HD
BRANCH  24  26
ATOM     26  CA  UNL     1      46.202   6.552  11.521  0.00  0.00    +0.000 C 
BRANCH  26  27
ATOM     27  C   UNL     1      45.654   5.322  10.776  0.00  0.00    +0.000 A 
ATOM     28  C   UNL     1      45.601   5.244   9.385  0.00  0.00    +0.000 A 
ATOM     29  C   UNL     1      44.937   4.176   8.780  0.00  0.00    +0.000 A 
ATOM     30  C   UNL     1      44.407   3.165   9.569  0.00  0.00    +0.000 A 
ATOM     31  C   UNL     1      44.584   3.257  10.938  0.00  0.00    +0.000 A 
ATOM     32  N   UNL     1      45.173   4.309  11.554  0.00  0.00    +0.000 NA
ENDBRANCH  26  27
BRANCH  26  33
ATOM     33  C   UNL     1      45.201   7.313  12.444  0.00  0.00    +0.000 C 
BRANCH  33  34
ATOM     34  O   UNL     1      44.121   6.533  12.951  0.00  0.00    +0.000 OA
ATOM     35  H   UNL     1      44.297   5.607  12.732  0.00  0.00    +0.000 HD
ENDBRANCH  33  34
ENDBRANCH  26  33
ENDBRANCH  24  26
ENDBRANCH  23  24
ENDBRANCH   4  23
TORSDOF 10
ENDMDL
MODEL 6
REMARK VINA RESULT:    -6.542      2.312      3.420
REMARK INTER + INTRA:         -12.029
REMARK INTER:                 -10.573
REMARK INTRA:                  -1.456
REMARK UNBOUND:                -1.854
REMARK  Name = 
REMARK  11 active torsions:
REMARK  status: ('A' for Active; 'I' for Inactive)
REMARK    1  A    between atoms: C_1  and  O_2
REMARK    2  A    between atoms: O_2  and  C_3
REMARK    3  A    between atoms: C_10  and  C_11
REMARK    4  A    between atoms: N_13  and  C_14
REMARK    5  A    between atoms: C_14  and  C_15
REMARK    6  A    between atoms: C_18  and  C_19
REMARK    7  A    between atoms: C_19  and  N_20
REMARK    8  A    between atoms: N_20  and  CA_21
REMARK    9  A    between atoms: CA_21  and  C_22
REMARK   10  A    between atoms: CA_21  and  C_24
REMARK   11  A    between atoms: C_22  and  O_23
REMARK                            x       y       z     vdW  Elec       q    Type
REMARK                         _______ _______ _______ _____ _____    ______ ____
ROOT
ATOM      1  C   UNL     1      47.441   7.590  13.553  0.00  0.00    +0.000 A 
ATOM      2  C   UNL     1      46.358   8.343  13.077  0.00  0.00    +0.000 A 
ATOM      3  C   UNL     1      45.450   7.796  12.156  0.00  0.00    +0.000 A 
ATOM      4  C   UNL     1      45.561   6.462  11.746  0.00  0.00    +0.000 A 
ATOM      5  C   UNL     1      46.556   5.672  12.342  0.00  0.00    +0.000 A 
ATOM      6  C   UNL     1      47.493   6.229  13.223  0.00  0.00    +0.000 A 
ENDROOT
BRANCH   1   7
ATOM      7  C   UNL     1      48.543   8.243  14.355  0.00  0.00    +0.000 C 
BRANCH   7  10
ATOM      8  C   UNL     1      49.434   7.066  16.338  0.00  0.00    +0.000 C 
ATOM      9  O   UNL     1      48.687   7.687  17.100  0.00  0.00    +0.000 OA
ATOM     10  N   UNL     1      49.415   7.290  14.987  0.00  0.00    +0.000 N 
ATOM     11  H   UNL     1      49.942   6.674  14.373  0.00  0.00    +0.000 HD
BRANCH   8  19
ATOM     12  C   UNL     1      52.844   6.742  16.027  0.00  0.00    +0.000 A 
ATOM     13  N   UNL     1      54.153   6.466  16.170  0.00  0.00    +0.000 NA
ATOM     14  C   UNL     1      54.502   5.454  16.965  0.00  0.00    +0.000 A 
ATOM     15  N   UNL     1      53.683   4.647  17.635  0.00  0.00    +0.000 NA
ATOM     16  C   UNL     1      52.387   4.963  17.475  0.00  0.00    +0.000 A 
ATOM     17  S   UNL     1      51.194   4.030  18.242  0.00  0.00    +0.000 S 
ATOM     18  C   UNL     1      49.956   5.018  17.631  0.00  0.00    +0.000 A 
ATOM     19  C   UNL     1      50.406   6.082  16.850  0.00  0.00    +0.000 A 
ATOM     20  C   UNL     1      51.865   6.007  16.717  0.00  0.00    +0.000 A 
BRANCH  12  22
ATOM     21  C   UNL     1      52.549   9.049  15.707  0.00  0.00    +0.000 C 
ATOM     22  O   UNL     1      52.476   7.741  15.151  0.00  0.00    +0.000 OA
ENDBRANCH  12  22
ENDBRANCH   8  19
ENDBRANCH   7  10
ENDBRANCH   1   7
BRANCH   4  23
ATOM     23  C   UNL     1      44.571   5.841  10.775  0.00  0.00    +0.000 C 
BRANCH  23  24
ATOM     24  N   UNL     1      45.192   5.243   9.586  0.00  0.00    +0.000 NA
ATOM     25  H   UNL     1      46.198   5.195   9.776  0.00  0.00    +0.000 HD
BRANCH  24  26
ATOM     26  CA  UNL     1      44.777   3.823   9.309  0.00  0.00    +0.000 C 
BRANCH  26  27
ATOM     27  C   UNL     1      45.696   3.077   8.325  0.00  0.00    +0.000 A 
ATOM     28  C   UNL     1      46.201   3.668   7.167  0.00  0.00    +0.000 A 
ATOM     29  C   UNL     1      46.885   2.884   6.237  0.00  0.00    +0.000 A 
ATOM     30  C   UNL     1      47.122   1.545   6.513  0.00  0.00    +0.000 A 
ATOM     31  C   UNL     1      46.679   1.051   7.726  0.00  0.00    +0.000 A 
ATOM     32  N   UNL     1      45.965   1.772   8.621  0.00  0.00    +0.000 NA
ENDBRANCH  26  27
BRANCH  26  33
ATOM     33  C   UNL     1      44.357   3.050  10.597  0.00  0.00    +0.000 C 
BRANCH  33  34
ATOM     34  O   UNL     1      43.739   1.784  10.377  0.00  0.00    +0.000 OA
ATOM     35  H   UNL     1      43.449   1.444  11.236  0.00  0.00    +0.000 HD
ENDBRANCH  33  34
ENDBRANCH  26  33
ENDBRANCH  24  26
ENDBRANCH  23  24
ENDBRANCH   4  23
TORSDOF 10
ENDMDL
MODEL 7
REMARK VINA RESULT:    -6.377      2.672      3.112
REMARK INTER + INTRA:         -11.772
REMARK INTER:                 -10.682
REMARK INTRA:                  -1.090
REMARK UNBOUND:                -1.854
REMARK  Name = 
REMARK  11 active torsions:
REMARK  status: ('A' for Active; 'I' for Inactive)
REMARK    1  A    between atoms: C_1  and  O_2
REMARK    2  A    between atoms: O_2  and  C_3
REMARK    3  A    between atoms: C_10  and  C_11
REMARK    4  A    between atoms: N_13  and  C_14
REMARK    5  A    between atoms: C_14  and  C_15
REMARK    6  A    between atoms: C_18  and  C_19
REMARK    7  A    between atoms: C_19  and  N_20
REMARK    8  A    between atoms: N_20  and  CA_21
REMARK    9  A    between atoms: CA_21  and  C_22
REMARK   10  A    between atoms: CA_21  and  C_24
REMARK   11  A    between atoms: C_22  and  O_23
REMARK                            x       y       z     vdW  Elec       q    Type
REMARK                         _______ _______ _______ _____ _____    ______ ____
ROOT
ATOM      1  C   UNL     1      46.990   7.374  13.307  0.00  0.00    +0.000 A 
ATOM      2  C   UNL     1      47.653   6.143  13.413  0.00  0.00    +0.000 A 
ATOM      3  C   UNL     1      46.966   4.936  13.209  0.00  0.00    +0.000 A 
ATOM      4  C   UNL     1      45.621   4.932  12.821  0.00  0.00    +0.000 A 
ATOM      5  C   UNL     1      45.007   6.169  12.569  0.00  0.00    +0.000 A 
ATOM      6  C   UNL     1      45.676   7.375  12.821  0.00  0.00    +0.000 A 
ENDROOT
BRANCH   1   7
ATOM      7  C   UNL     1      47.661   8.653  13.752  0.00  0.00    +0.000 C 
BRANCH   7  10
ATOM      8  C   UNL     1      48.401   8.717  16.110  0.00  0.00    +0.000 C 
ATOM      9  O   UNL     1      49.509   8.251  15.823  0.00  0.00    +0.000 OA
ATOM     10  N   UNL     1      47.453   8.937  15.146  0.00  0.00    +0.000 N 
ATOM     11  H   UNL     1      46.605   9.442  15.390  0.00  0.00    +0.000 HD
BRANCH   8  19
ATOM     12  C   UNL     1      47.815   6.758  18.875  0.00  0.00    +0.000 A 
ATOM     13  N   UNL     1      47.671   6.242  20.110  0.00  0.00    +0.000 NA
ATOM     14  C   UNL     1      47.511   7.084  21.132  0.00  0.00    +0.000 A 
ATOM     15  N   UNL     1      47.454   8.411  21.069  0.00  0.00    +0.000 NA
ATOM     16  C   UNL     1      47.615   8.887  19.823  0.00  0.00    +0.000 A 
ATOM     17  S   UNL     1      47.553  10.561  19.548  0.00  0.00    +0.000 S 
ATOM     18  C   UNL     1      47.863  10.352  17.892  0.00  0.00    +0.000 A 
ATOM     19  C   UNL     1      48.035   9.023  17.505  0.00  0.00    +0.000 A 
ATOM     20  C   UNL     1      47.830   8.147  18.664  0.00  0.00    +0.000 A 
BRANCH  12  22
ATOM     21  C   UNL     1      49.133   5.167  17.761  0.00  0.00    +0.000 C 
ATOM     22  O   UNL     1      47.908   5.890  17.808  0.00  0.00    +0.000 OA
ENDBRANCH  12  22
ENDBRANCH   8  19
ENDBRANCH   7  10
ENDBRANCH   1   7
BRANCH   4  23
ATOM     23  C   UNL     1      44.867   3.639  12.563  0.00  0.00    +0.000 C 
BRANCH  23  24
ATOM     24  N   UNL     1      45.258   2.951  11.327  0.00  0.00    +0.000 NA
ATOM     25  H   UNL     1      44.592   2.182  11.198  0.00  0.00    +0.000 HD
BRANCH  24  26
ATOM     26  CA  UNL     1      45.137   3.786  10.080  0.00  0.00    +0.000 C 
BRANCH  26  27
ATOM     27  C   UNL     1      45.724   3.127   8.820  0.00  0.00    +0.000 A 
ATOM     28  C   UNL     1      45.916   1.751   8.707  0.00  0.00    +0.000 A 
ATOM     29  C   UNL     1      46.609   1.241   7.607  0.00  0.00    +0.000 A 
ATOM     30  C   UNL     1      47.028   2.101   6.604  0.00  0.00    +0.000 A 
ATOM     31  C   UNL     1      46.715   3.442   6.734  0.00  0.00    +0.000 A 
ATOM     32  N   UNL     1      46.096   3.972   7.814  0.00  0.00    +0.000 NA
ENDBRANCH  26  27
BRANCH  26  33
ATOM     33  C   UNL     1      43.737   4.456   9.931  0.00  0.00    +0.000 C 
BRANCH  33  34
ATOM     34  O   UNL     1      43.321   4.716   8.592  0.00  0.00    +0.000 OA
ATOM     35  H   UNL     1      43.596   3.965   8.047  0.00  0.00    +0.000 HD
ENDBRANCH  33  34
ENDBRANCH  26  33
ENDBRANCH  24  26
ENDBRANCH  23  24
ENDBRANCH   4  23
TORSDOF 10
ENDMDL
MODEL 8
REMARK VINA RESULT:    -5.912      3.432      9.042
REMARK INTER + INTRA:         -11.049
REMARK INTER:                  -9.157
REMARK INTRA:                  -1.892
REMARK UNBOUND:                -1.854
REMARK  Name = 
REMARK  11 active torsions:
REMARK  status: ('A' for Active; 'I' for Inactive)
REMARK    1  A    between atoms: C_1  and  O_2
REMARK    2  A    between atoms: O_2  and  C_3
REMARK    3  A    between atoms: C_10  and  C_11
REMARK    4  A    between atoms: N_13  and  C_14
REMARK    5  A    between atoms: C_14  and  C_15
REMARK    6  A    between atoms: C_18  and  C_19
REMARK    7  A    between atoms: C_19  and  N_20
REMARK    8  A    between atoms: N_20  and  CA_21
REMARK    9  A    between atoms: CA_21  and  C_22
REMARK   10  A    between atoms: CA_21  and  C_24
REMARK   11  A    between atoms: C_22  and  O_23
REMARK                            x       y       z     vdW  Elec       q    Type
REMARK                         _______ _______ _______ _____ _____    ______ ____
ROOT
ATOM      1  C   UNL     1      47.763   4.302  17.960  0.00  0.00    +0.000 A 
ATOM      2  C   UNL     1      49.050   3.954  18.394  0.00  0.00    +0.000 A 
ATOM      3  C   UNL     1      49.730   4.741  19.337  0.00  0.00    +0.000 A 
ATOM      4  C   UNL     1      49.111   5.852  19.924  0.00  0.00    +0.000 A 
ATOM      5  C   UNL     1      47.770   6.105  19.598  0.00  0.00    +0.000 A 
ATOM      6  C   UNL     1      47.107   5.349  18.619  0.00  0.00    +0.000 A 
ENDROOT
BRANCH   1   7
ATOM      7  C   UNL     1      47.128   3.597  16.784  0.00  0.00    +0.000 C 
BRANCH   7  10
ATOM      8  C   UNL     1      46.830   4.225  14.411  0.00  0.00    +0.000 C 
ATOM      9  O   UNL     1      47.309   3.155  14.020  0.00  0.00    +0.000 OA
ATOM     10  N   UNL     1      46.714   4.504  15.747  0.00  0.00    +0.000 N 
ATOM     11  H   UNL     1      46.197   5.329  16.039  0.00  0.00    +0.000 HD
BRANCH   8  19
ATOM     12  C   UNL     1      43.924   4.736  12.645  0.00  0.00    +0.000 A 
ATOM     13  N   UNL     1      42.874   5.228  11.961  0.00  0.00    +0.000 NA
ATOM     14  C   UNL     1      43.009   6.412  11.362  0.00  0.00    +0.000 A 
ATOM     15  N   UNL     1      44.098   7.175  11.342  0.00  0.00    +0.000 NA
ATOM     16  C   UNL     1      45.118   6.655  12.045  0.00  0.00    +0.000 A 
ATOM     17  S   UNL     1      46.599   7.483  12.116  0.00  0.00    +0.000 S 
ATOM     18  C   UNL     1      47.269   6.302  13.134  0.00  0.00    +0.000 A 
ATOM     19  C   UNL     1      46.396   5.264  13.459  0.00  0.00    +0.000 A 
ATOM     20  C   UNL     1      45.124   5.458  12.755  0.00  0.00    +0.000 A 
BRANCH  12  22
ATOM     21  C   UNL     1      43.598   2.444  12.252  0.00  0.00    +0.000 C 
ATOM     22  O   UNL     1      43.812   3.481  13.204  0.00  0.00    +0.000 OA
ENDBRANCH  12  22
ENDBRANCH   8  19
ENDBRANCH   7  10
ENDBRANCH   1   7
BRANCH   4  23
ATOM     23  C   UNL     1      49.815   6.699  20.969  0.00  0.00    +0.000 C 
BRANCH  23  24
ATOM     24  N   UNL     1      49.816   8.137  20.675  0.00  0.00    +0.000 NA
ATOM     25  H   UNL     1      50.303   8.594  21.455  0.00  0.00    +0.000 HD
BRANCH  24  26
ATOM     26  CA  UNL     1      50.595   8.526  19.447  0.00  0.00    +0.000 C 
BRANCH  26  27
ATOM     27  C   UNL     1      49.756   8.588  18.160  0.00  0.00    +0.000 A 
ATOM     28  C   UNL     1      49.995   7.761  17.062  0.00  0.00    +0.000 A 
ATOM     29  C   UNL     1      49.308   7.987  15.868  0.00  0.00    +0.000 A 
ATOM     30  C   UNL     1      48.342   8.980  15.812  0.00  0.00    +0.000 A 
ATOM     31  C   UNL     1      48.086   9.695  16.968  0.00  0.00    +0.000 A 
ATOM     32  N   UNL     1      48.775   9.536  18.122  0.00  0.00    +0.000 NA
ENDBRANCH  26  27
BRANCH  26  33
ATOM     33  C   UNL     1      51.576   9.713  19.700  0.00  0.00    +0.000 C 
BRANCH  33  34
ATOM     34  O   UNL     1      51.717  10.631  18.619  0.00  0.00    +0.000 OA
ATOM     35  H   UNL     1      52.220  10.189  17.919  0.00  0.00    +0.000 HD
ENDBRANCH  33  34
ENDBRANCH  26  33
ENDBRANCH  24  26
ENDBRANCH  23  24
ENDBRANCH   4  23
TORSDOF 10
ENDMDL
MODEL 9
REMARK VINA RESULT:    -5.788      3.085      5.087
REMARK INTER + INTRA:         -10.856
REMARK INTER:                  -9.098
REMARK INTRA:                  -1.757
REMARK UNBOUND:                -1.854
REMARK  Name = 
REMARK  11 active torsions:
REMARK  status: ('A' for Active; 'I' for Inactive)
REMARK    1  A    between atoms: C_1  and  O_2
REMARK    2  A    between atoms: O_2  and  C_3
REMARK    3  A    between atoms: C_10  and  C_11
REMARK    4  A    between atoms: N_13  and  C_14
REMARK    5  A    between atoms: C_14  and  C_15
REMARK    6  A    between atoms: C_18  and  C_19
REMARK    7  A    between atoms: C_19  and  N_20
REMARK    8  A    between atoms: N_20  and  CA_21
REMARK    9  A    between atoms: CA_21  and  C_22
REMARK   10  A    between atoms: CA_21  and  C_24
REMARK   11  A    between atoms: C_22  and  O_23
REMARK                            x       y       z     vdW  Elec       q    Type
REMARK                         _______ _______ _______ _____ _____    ______ ____
ROOT
ATOM      1  C   UNL     1      50.326   8.056  16.755  0.00  0.00    +0.000 A 
ATOM      2  C   UNL     1      50.647   7.351  15.586  0.00  0.00    +0.000 A 
ATOM      3  C   UNL     1      49.712   7.216  14.547  0.00  0.00    +0.000 A 
ATOM      4  C   UNL     1      48.463   7.845  14.619  0.00  0.00    +0.000 A 
ATOM      5  C   UNL     1      48.208   8.674  15.723  0.00  0.00    +0.000 A 
ATOM      6  C   UNL     1      49.121   8.769  16.784  0.00  0.00    +0.000 A 
ENDROOT
BRANCH   1   7
ATOM      7  C   UNL     1      51.235   8.006  17.961  0.00  0.00    +0.000 C 
BRANCH   7  10
ATOM      8  C   UNL     1      52.935   6.212  18.028  0.00  0.00    +0.000 C 
ATOM      9  O   UNL     1      53.787   6.937  17.504  0.00  0.00    +0.000 OA
ATOM     10  N   UNL     1      51.670   6.672  18.278  0.00  0.00    +0.000 N 
ATOM     11  H   UNL     1      51.033   6.101  18.827  0.00  0.00    +0.000 HD
BRANCH   8  19
ATOM     12  C   UNL     1      51.279   3.251  17.466  0.00  0.00    +0.000 A 
ATOM     13  N   UNL     1      50.910   1.972  17.268  0.00  0.00    +0.000 NA
ATOM     14  C   UNL     1      51.725   1.006  17.695  0.00  0.00    +0.000 A 
ATOM     15  N   UNL     1      52.882   1.163  18.332  0.00  0.00    +0.000 NA
ATOM     16  C   UNL     1      53.220   2.453  18.499  0.00  0.00    +0.000 A 
ATOM     17  S   UNL     1      54.659   2.847  19.310  0.00  0.00    +0.000 S 
ATOM     18  C   UNL     1      54.394   4.508  19.078  0.00  0.00    +0.000 A 
ATOM     19  C   UNL     1      53.229   4.809  18.374  0.00  0.00    +0.000 A 
ATOM     20  C   UNL     1      52.503   3.569  18.078  0.00  0.00    +0.000 A 
BRANCH  12  22
ATOM     21  C   UNL     1      49.079   4.063  17.568  0.00  0.00    +0.000 C 
ATOM     22  O   UNL     1      50.407   4.250  17.091  0.00  0.00    +0.000 OA
ENDBRANCH  12  22
ENDBRANCH   8  19
ENDBRANCH   7  10
ENDBRANCH   1   7
BRANCH   4  23
ATOM     23  C   UNL     1      47.449   7.739  13.494  0.00  0.00    +0.000 C 
BRANCH  23  24
ATOM     24  N   UNL     1      47.383   6.413  12.868  0.00  0.00    +0.000 NA
ATOM     25  H   UNL     1      48.319   6.003  12.954  0.00  0.00    +0.000 HD
BRANCH  24  26
ATOM     26  CA  UNL     1      46.465   5.439  13.558  0.00  0.00    +0.000 C 
BRANCH  26  27
ATOM     27  C   UNL     1      45.412   4.800  12.635  0.00  0.00    +0.000 A 
ATOM     28  C   UNL     1      45.316   5.102  11.277  0.00  0.00    +0.000 A 
ATOM     29  C   UNL     1      44.234   4.619  10.540  0.00  0.00    +0.000 A 
ATOM     30  C   UNL     1      43.311   3.781  11.148  0.00  0.00    +0.000 A 
ATOM     31  C   UNL     1      43.524   3.443  12.472  0.00  0.00    +0.000 A 
ATOM     32  N   UNL     1      44.532   3.942  13.226  0.00  0.00    +0.000 NA
ENDBRANCH  26  27
BRANCH  26  33
ATOM     33  C   UNL     1      47.218   4.478  14.529  0.00  0.00    +0.000 C 
BRANCH  33  34
ATOM     34  O   UNL     1      47.253   3.110  14.132  0.00  0.00    +0.000 OA
ATOM     35  H   UNL     1      47.805   3.046  13.340  0.00  0.00    +0.000 HD
ENDBRANCH  33  34
ENDBRANCH  26  33
ENDBRANCH  24  26
ENDBRANCH  23  24
ENDBRANCH   4  23
TORSDOF 10
ENDMDL
