MODEL 1
REMARK VINA RESULT:    -8.458      0.000      0.000
REMARK INTER + INTRA:         -12.214
REMARK INTER:                 -11.424
REMARK INTRA:                  -0.789
REMARK UNBOUND:                -0.789
REMARK  Name = 
REMARK  8 active torsions:
REMARK  status: ('A' for Active; 'I' for Inactive)
REMARK    1  A    between atoms: C_1  and  C_2
REMARK    2  A    between atoms: C_2  and  C_3
REMARK    3  A    between atoms: C_2  and  C_4
REMARK    4  A    between atoms: C_2  and  C_18
REMARK    5  A    between atoms: C_5  and  C_6
REMARK    6  A    between atoms: C_11  and  O_12
REMARK    7  A    between atoms: O_12  and  C_13
REMARK    8  A    between atoms: C_21  and  C_22
REMARK                            x       y       z     vdW  Elec       q    Type
REMARK                         _______ _______ _______ _____ _____    ______ ____
ROOT
ATOM      1  C   UNL     1      45.381   4.758  11.840  0.00  0.00    +0.000 C 
ATOM      2  C   UNL     1      45.940   5.975  11.738  0.00  0.00    +0.000 C 
ENDROOT
BRANCH   2   3
ATOM      3  C   UNL     1      46.891   6.467  12.729  0.00  0.00    +0.000 A 
ATOM      4  C   UNL     1      47.434   7.748  12.575  0.00  0.00    +0.000 A 
ATOM      5  C   UNL     1      48.339   8.233  13.513  0.00  0.00    +0.000 A 
ATOM      6  C   UNL     1      48.711   7.437  14.591  0.00  0.00    +0.000 A 
ATOM      7  F   UNL     1      49.579   7.960  15.467  0.00  0.00    +0.000 F 
ATOM      8  C   UNL     1      48.195   6.148  14.750  0.00  0.00    +0.000 A 
ATOM      9  C   UNL     1      47.269   5.670  13.817  0.00  0.00    +0.000 A 
BRANCH   8  10
ATOM     10  O   UNL     1      48.517   5.286  15.777  0.00  0.00    +0.000 OA
BRANCH  10  11
ATOM     11  C   UNL     1      47.488   4.358  16.199  0.00  0.00    +0.000 C 
ATOM     12  C   UNL     1      47.041   4.441  17.678  0.00  0.00    +0.000 C 
ATOM     13  N   UNL     1      46.950   2.963  17.707  0.00  0.00    +0.000 NA
ATOM     14  C   UNL     1      47.922   2.926  16.581  0.00  0.00    +0.000 C 
ATOM     15  H   UNL     1      46.021   2.624  17.448  0.00  0.00    +0.000 HD
ENDBRANCH  10  11
ENDBRANCH   8  10
ENDBRANCH   2   3
BRANCH   1  17
ATOM     16  C   UNL     1      43.667   2.952  11.472  0.00  0.00    +0.000 C 
ATOM     17  C   UNL     1      44.395   4.153  10.835  0.00  0.00    +0.000 C 
ATOM     18  C   UNL     1      43.347   5.223  10.452  0.00  0.00    +0.000 C 
BRANCH  17  19
ATOM     19  C   UNL     1      45.135   3.650   9.579  0.00  0.00    +0.000 A 
ATOM     20  N   UNL     1      45.631   4.554   8.706  0.00  0.00    +0.000 NA
ATOM     21  C   UNL     1      46.318   4.074   7.642  0.00  0.00    +0.000 A 
ATOM     22  C   UNL     1      46.540   2.737   7.423  0.00  0.00    +0.000 A 
ATOM     23  C   UNL     1      45.972   1.889   8.343  0.00  0.00    +0.000 A 
ATOM     24  N   UNL     1      45.276   2.314   9.423  0.00  0.00    +0.000 NA
BRANCH  22  25
ATOM     25  C   UNL     1      47.333   2.291   6.269  0.00  0.00    +0.000 C 
ATOM     26  N   UNL     1      47.177   2.968   5.090  0.00  0.00    +0.000 N 
ATOM     27  O   UNL     1      48.074   1.322   6.346  0.00  0.00    +0.000 OA
ATOM     28  H   UNL     1      46.413   3.605   4.907  0.00  0.00    +0.000 HD
ATOM     29  H   UNL     1      47.649   2.577   4.284  0.00  0.00    +0.000 HD
ENDBRANCH  22  25
ENDBRANCH  17  19
ENDBRANCH   1  17
TORSDOF 6
ENDMDL
MODEL 2
REMARK VINA RESULT:    -7.690      3.147      8.657
REMARK INTER + INTRA:         -11.177
REMARK INTER:                 -10.345
REMARK INTRA:                  -0.832
REMARK UNBOUND:                -0.789
REMARK  Name = 
REMARK  8 active torsions:
REMARK  status: ('A' for Active; 'I' for Inactive)
REMARK    1  A    between atoms: C_1  and  C_2
REMARK    2  A    between atoms: C_2  and  C_3
REMARK    3  A    between atoms: C_2  and  C_4
REMARK    4  A    between atoms: C_2  and  C_18
REMARK    5  A    between atoms: C_5  and  C_6
REMARK    6  A    between atoms: C_11  and  O_12
REMARK    7  A    between atoms: O_12  and  C_13
REMARK    8  A    between atoms: C_21  and  C_22
REMARK                            x       y       z     vdW  Elec       q    Type
REMARK                         _______ _______ _______ _____ _____    ______ ____
ROOT
ATOM      1  C   UNL     1      46.767   6.295  11.962  0.00  0.00    +0.000 C 
ATOM      2  C   UNL     1      45.786   6.249  11.045  0.00  0.00    +0.000 C 
ENDROOT
BRANCH   2   3
ATOM      3  C   UNL     1      45.382   4.995  10.418  0.00  0.00    +0.000 A 
ATOM      4  C   UNL     1      44.718   4.032  11.186  0.00  0.00    +0.000 A 
ATOM      5  C   UNL     1      44.323   2.833  10.603  0.00  0.00    +0.000 A 
ATOM      6  C   UNL     1      44.603   2.592   9.262  0.00  0.00    +0.000 A 
ATOM      7  F   UNL     1      44.191   1.424   8.750  0.00  0.00    +0.000 F 
ATOM      8  C   UNL     1      45.283   3.533   8.484  0.00  0.00    +0.000 A 
ATOM      9  C   UNL     1      45.661   4.747   9.067  0.00  0.00    +0.000 A 
BRANCH   8  10
ATOM     10  O   UNL     1      45.613   3.374   7.155  0.00  0.00    +0.000 OA
BRANCH  10  11
ATOM     11  C   UNL     1      47.004   3.105   6.854  0.00  0.00    +0.000 C 
ATOM     12  C   UNL     1      47.351   2.810   5.375  0.00  0.00    +0.000 C 
ATOM     13  N   UNL     1      48.314   1.781   5.833  0.00  0.00    +0.000 NA
ATOM     14  C   UNL     1      47.529   1.674   7.093  0.00  0.00    +0.000 C 
ATOM     15  H   UNL     1      49.252   2.161   5.975  0.00  0.00    +0.000 HD
ENDBRANCH  10  11
ENDBRANCH   8  10
ENDBRANCH   2   3
BRANCH   1  17
ATOM     16  C   UNL     1      48.283   8.299  11.829  0.00  0.00    +0.000 C 
ATOM     17  C   UNL     1      47.237   7.561  12.688  0.00  0.00    +0.000 C 
ATOM     18  C   UNL     1      46.025   8.495  12.907  0.00  0.00    +0.000 C 
BRANCH  17  19
ATOM     19  C   UNL     1      47.893   7.204  14.037  0.00  0.00    +0.000 A 
ATOM     20  N   UNL     1      48.453   8.189  14.773  0.00  0.00    +0.000 NA
ATOM     21  C   UNL     1      48.974   7.844  15.974  0.00  0.00    +0.000 A 
ATOM     22  C   UNL     1      48.947   6.565  16.474  0.00  0.00    +0.000 A 
ATOM     23  C   UNL     1      48.388   5.623  15.644  0.00  0.00    +0.000 A 
ATOM     24  N   UNL     1      47.853   5.912  14.435  0.00  0.00    +0.000 NA
BRANCH  22  25
ATOM     25  C   UNL     1      49.494   6.271  17.806  0.00  0.00    +0.000 C 
ATOM     26  N   UNL     1      49.676   7.321  18.665  0.00  0.00    +0.000 N 
ATOM     27  O   UNL     1      49.815   5.135  18.122  0.00  0.00    +0.000 OA
ATOM     28  H   UNL     1      49.660   8.289  18.376  0.00  0.00    +0.000 HD
ATOM     29  H   UNL     1      50.153   7.111  19.533  0.00  0.00    +0.000 HD
ENDBRANCH  22  25
ENDBRANCH  17  19
ENDBRANCH   1  17
TORSDOF 6
ENDMDL
MODEL 3
REMARK VINA RESULT:    -7.468      1.496      2.054
REMARK INTER + INTRA:         -10.876
REMARK INTER:                 -10.452
REMARK INTRA:                  -0.425
REMARK UNBOUND:                -0.789
REMARK  Name = 
REMARK  8 active torsions:
REMARK  status: ('A' for Active; 'I' for Inactive)
REMARK    1  A    between atoms: C_1  and  C_2
REMARK    2  A    between atoms: C_2  and  C_3
REMARK    3  A    between atoms: C_2  and  C_4
REMARK    4  A    between atoms: C_2  and  C_18
REMARK    5  A    between atoms: C_5  and  C_6
REMARK    6  A    between atoms: C_11  and  O_12
REMARK    7  A    between atoms: O_12  and  C_13
REMARK    8  A    between atoms: C_21  and  C_22
REMARK                            x       y       z     vdW  Elec       q    Type
REMARK                         _______ _______ _______ _____ _____    ______ ____
ROOT
ATOM      1  C   UNL     1      45.032   4.848  12.556  0.00  0.00    +0.000 C 
ATOM      2  C   UNL     1      46.124   4.231  13.037  0.00  0.00    +0.000 C 
ENDROOT
BRANCH   2   3
ATOM      3  C   UNL     1      46.962   4.845  14.062  0.00  0.00    +0.000 A 
ATOM      4  C   UNL     1      47.693   5.995  13.745  0.00  0.00    +0.000 A 
ATOM      5  C   UNL     1      48.495   6.594  14.712  0.00  0.00    +0.000 A 
ATOM      6  C   UNL     1      48.575   6.038  15.984  0.00  0.00    +0.000 A 
ATOM      7  F   UNL     1      49.355   6.663  16.877  0.00  0.00    +0.000 F 
ATOM      8  C   UNL     1      47.868   4.879  16.313  0.00  0.00    +0.000 A 
ATOM      9  C   UNL     1      47.047   4.289  15.346  0.00  0.00    +0.000 A 
BRANCH   8  10
ATOM     10  O   UNL     1      47.898   4.252  17.541  0.00  0.00    +0.000 OA
BRANCH  10  11
ATOM     11  C   UNL     1      48.773   3.105  17.669  0.00  0.00    +0.000 C 
ATOM     12  C   UNL     1      50.274   3.340  17.379  0.00  0.00    +0.000 C 
ATOM     13  N   UNL     1      50.326   2.016  16.715  0.00  0.00    +0.000 NA
ATOM     14  C   UNL     1      48.862   2.129  16.476  0.00  0.00    +0.000 C 
ATOM     15  H   UNL     1      50.572   1.264  17.362  0.00  0.00    +0.000 HD
ENDBRANCH  10  11
ENDBRANCH   8  10
ENDBRANCH   2   3
BRANCH   1  17
ATOM     16  C   UNL     1      43.356   3.035  12.072  0.00  0.00    +0.000 C 
ATOM     17  C   UNL     1      44.084   4.268  11.501  0.00  0.00    +0.000 C 
ATOM     18  C   UNL     1      43.032   5.337  11.127  0.00  0.00    +0.000 C 
BRANCH  17  19
ATOM     19  C   UNL     1      44.868   3.823  10.249  0.00  0.00    +0.000 A 
ATOM     20  N   UNL     1      44.982   2.503   9.983  0.00  0.00    +0.000 NA
ATOM     21  C   UNL     1      45.635   2.155   8.849  0.00  0.00    +0.000 A 
ATOM     22  C   UNL     1      46.162   3.066   7.968  0.00  0.00    +0.000 A 
ATOM     23  C   UNL     1      46.028   4.383   8.334  0.00  0.00    +0.000 A 
ATOM     24  N   UNL     1      45.387   4.787   9.455  0.00  0.00    +0.000 NA
BRANCH  22  25
ATOM     25  C   UNL     1      46.820   2.616   6.733  0.00  0.00    +0.000 C 
ATOM     26  N   UNL     1      47.862   1.736   6.851  0.00  0.00    +0.000 N 
ATOM     27  O   UNL     1      46.477   3.044   5.640  0.00  0.00    +0.000 OA
ATOM     28  H   UNL     1      48.337   1.546   7.722  0.00  0.00    +0.000 HD
ATOM     29  H   UNL     1      48.368   1.526   5.999  0.00  0.00    +0.000 HD
ENDBRANCH  22  25
ENDBRANCH  17  19
ENDBRANCH   1  17
TORSDOF 6
ENDMDL
MODEL 4
REMARK VINA RESULT:    -6.994      4.142      8.030
REMARK INTER + INTRA:         -10.237
REMARK INTER:                  -9.424
REMARK INTRA:                  -0.813
REMARK UNBOUND:                -0.789
REMARK  Name = 
REMARK  8 active torsions:
REMARK  status: ('A' for Active; 'I' for Inactive)
REMARK    1  A    between atoms: C_1  and  C_2
REMARK    2  A    between atoms: C_2  and  C_3
REMARK    3  A    between atoms: C_2  and  C_4
REMARK    4  A    between atoms: C_2  and  C_18
REMARK    5  A    between atoms: C_5  and  C_6
REMARK    6  A    between atoms: C_11  and  O_12
REMARK    7  A    between atoms: O_12  and  C_13
REMARK    8  A    between atoms: C_21  and  C_22
REMARK                            x       y       z     vdW  Elec       q    Type
REMARK                         _______ _______ _______ _____ _____    ______ ____
ROOT
ATOM      1  C   UNL     1      46.939   6.714  11.431  0.00  0.00    +0.000 C 
ATOM      2  C   UNL     1      45.658   6.329  11.304  0.00  0.00    +0.000 C 
ENDROOT
BRANCH   2   3
ATOM      3  C   UNL     1      45.289   5.121  10.573  0.00  0.00    +0.000 A 
ATOM      4  C   UNL     1      44.603   4.103  11.243  0.00  0.00    +0.000 A 
ATOM      5  C   UNL     1      44.241   2.946  10.561  0.00  0.00    +0.000 A 
ATOM      6  C   UNL     1      44.577   2.802   9.218  0.00  0.00    +0.000 A 
ATOM      7  F   UNL     1      44.196   1.671   8.609  0.00  0.00    +0.000 F 
ATOM      8  C   UNL     1      45.281   3.800   8.538  0.00  0.00    +0.000 A 
ATOM      9  C   UNL     1      45.625   4.971   9.221  0.00  0.00    +0.000 A 
BRANCH   8  10
ATOM     10  O   UNL     1      45.667   3.737   7.216  0.00  0.00    +0.000 OA
BRANCH  10  11
ATOM     11  C   UNL     1      47.024   3.306   6.949  0.00  0.00    +0.000 C 
ATOM     12  C   UNL     1      47.352   2.906   5.492  0.00  0.00    +0.000 C 
ATOM     13  N   UNL     1      48.193   1.802   6.011  0.00  0.00    +0.000 NA
ATOM     14  C   UNL     1      47.388   1.839   7.261  0.00  0.00    +0.000 C 
ATOM     15  H   UNL     1      49.166   2.084   6.150  0.00  0.00    +0.000 HD
ENDBRANCH  10  11
ENDBRANCH   8  10
ENDBRANCH   2   3
BRANCH   1  17
ATOM     16  C   UNL     1      46.491   9.146  11.896  0.00  0.00    +0.000 C 
ATOM     17  C   UNL     1      47.416   7.951  12.200  0.00  0.00    +0.000 C 
ATOM     18  C   UNL     1      47.361   7.653  13.716  0.00  0.00    +0.000 C 
BRANCH  17  19
ATOM     19  C   UNL     1      48.848   8.336  11.778  0.00  0.00    +0.000 A 
ATOM     20  N   UNL     1      49.746   7.356  11.538  0.00  0.00    +0.000 NA
ATOM     21  C   UNL     1      50.978   7.734  11.122  0.00  0.00    +0.000 A 
ATOM     22  C   UNL     1      51.343   9.043  10.923  0.00  0.00    +0.000 A 
ATOM     23  C   UNL     1      50.378   9.974  11.223  0.00  0.00    +0.000 A 
ATOM     24  N   UNL     1      49.132   9.652  11.643  0.00  0.00    +0.000 NA
BRANCH  22  25
ATOM     25  C   UNL     1      52.686   9.377  10.428  0.00  0.00    +0.000 C 
ATOM     26  N   UNL     1      52.788   9.900   9.167  0.00  0.00    +0.000 N 
ATOM     27  O   UNL     1      53.682   9.155  11.101  0.00  0.00    +0.000 OA
ATOM     28  H   UNL     1      52.039   9.873   8.489  0.00  0.00    +0.000 HD
ATOM     29  H   UNL     1      53.726  10.020   8.807  0.00  0.00    +0.000 HD
ENDBRANCH  22  25
ENDBRANCH  17  19
ENDBRANCH   1  17
TORSDOF 6
ENDMDL
MODEL 5
REMARK VINA RESULT:    -6.627      3.885      8.286
REMARK INTER + INTRA:          -9.740
REMARK INTER:                  -9.087
REMARK INTRA:                  -0.653
REMARK UNBOUND:                -0.789
REMARK  Name = 
REMARK  8 active torsions:
REMARK  status: ('A' for Active; 'I' for Inactive)
REMARK    1  A    between atoms: C_1  and  C_2
REMARK    2  A    between atoms: C_2  and  C_3
REMARK    3  A    between atoms: C_2  and  C_4
REMARK    4  A    between atoms: C_2  and  C_18
REMARK    5  A    between atoms: C_5  and  C_6
REMARK    6  A    between atoms: C_11  and  O_12
REMARK    7  A    between atoms: O_12  and  C_13
REMARK    8  A    between atoms: C_21  and  C_22
REMARK                            x       y       z     vdW  Elec       q    Type
REMARK                         _______ _______ _______ _____ _____    ______ ____
ROOT
ATOM      1  C   UNL     1      48.219   5.514  16.229  0.00  0.00    +0.000 C 
ATOM      2  C   UNL     1      48.520   6.289  15.175  0.00  0.00    +0.000 C 
ENDROOT
BRANCH   2   3
ATOM      3  C   UNL     1      47.758   6.223  13.932  0.00  0.00    +0.000 A 
ATOM      4  C   UNL     1      47.806   7.304  13.045  0.00  0.00    +0.000 A 
ATOM      5  C   UNL     1      47.088   7.255  11.855  0.00  0.00    +0.000 A 
ATOM      6  C   UNL     1      46.315   6.137  11.559  0.00  0.00    +0.000 A 
ATOM      7  F   UNL     1      45.652   6.140  10.395  0.00  0.00    +0.000 F 
ATOM      8  C   UNL     1      46.239   5.056  12.443  0.00  0.00    +0.000 A 
ATOM      9  C   UNL     1      46.978   5.099  13.630  0.00  0.00    +0.000 A 
BRANCH   8  10
ATOM     10  O   UNL     1      45.490   3.917  12.239  0.00  0.00    +0.000 OA
BRANCH  10  11
ATOM     11  C   UNL     1      44.079   3.995  12.558  0.00  0.00    +0.000 C 
ATOM     12  C   UNL     1      43.096   3.987  11.364  0.00  0.00    +0.000 C 
ATOM     13  N   UNL     1      42.264   4.985  12.076  0.00  0.00    +0.000 NA
ATOM     14  C   UNL     1      43.479   5.390  12.833  0.00  0.00    +0.000 C 
ATOM     15  H   UNL     1      41.549   4.549  12.663  0.00  0.00    +0.000 HD
ENDBRANCH  10  11
ENDBRANCH   8  10
ENDBRANCH   2   3
BRANCH   1  17
ATOM     16  C   UNL     1      49.747   6.847  17.720  0.00  0.00    +0.000 C 
ATOM     17  C   UNL     1      48.948   5.536  17.577  0.00  0.00    +0.000 C 
ATOM     18  C   UNL     1      47.905   5.463  18.715  0.00  0.00    +0.000 C 
BRANCH  17  19
ATOM     19  C   UNL     1      49.941   4.359  17.680  0.00  0.00    +0.000 A 
ATOM     20  N   UNL     1      49.566   3.145  17.221  0.00  0.00    +0.000 NA
ATOM     21  C   UNL     1      50.483   2.151  17.284  0.00  0.00    +0.000 A 
ATOM     22  C   UNL     1      51.756   2.321  17.771  0.00  0.00    +0.000 A 
ATOM     23  C   UNL     1      52.038   3.580  18.246  0.00  0.00    +0.000 A 
ATOM     24  N   UNL     1      51.161   4.609  18.208  0.00  0.00    +0.000 NA
BRANCH  22  25
ATOM     25  C   UNL     1      52.712   1.206  17.768  0.00  0.00    +0.000 C 
ATOM     26  N   UNL     1      52.287   0.001  18.257  0.00  0.00    +0.000 N 
ATOM     27  O   UNL     1      53.862   1.359  17.383  0.00  0.00    +0.000 OA
ATOM     28  H   UNL     1      51.445  -0.115  18.804  0.00  0.00    +0.000 HD
ATOM     29  H   UNL     1      52.992  -0.720  18.346  0.00  0.00    +0.000 HD
ENDBRANCH  22  25
ENDBRANCH  17  19
ENDBRANCH   1  17
TORSDOF 6
ENDMDL
MODEL 6
REMARK VINA RESULT:    -6.455      3.324      5.307
REMARK INTER + INTRA:          -9.509
REMARK INTER:                  -8.698
REMARK INTRA:                  -0.811
REMARK UNBOUND:                -0.789
REMARK  Name = 
REMARK  8 active torsions:
REMARK  status: ('A' for Active; 'I' for Inactive)
REMARK    1  A    between atoms: C_1  and  C_2
REMARK    2  A    between atoms: C_2  and  C_3
REMARK    3  A    between atoms: C_2  and  C_4
REMARK    4  A    between atoms: C_2  and  C_18
REMARK    5  A    between atoms: C_5  and  C_6
REMARK    6  A    between atoms: C_11  and  O_12
REMARK    7  A    between atoms: O_12  and  C_13
REMARK    8  A    between atoms: C_21  and  C_22
REMARK                            x       y       z     vdW  Elec       q    Type
REMARK                         _______ _______ _______ _____ _____    ______ ____
ROOT
ATOM      1  C   UNL     1      48.236   6.385  14.808  0.00  0.00    +0.000 C 
ATOM      2  C   UNL     1      48.718   7.003  15.898  0.00  0.00    +0.000 C 
ENDROOT
BRANCH   2   3
ATOM      3  C   UNL     1      48.956   6.283  17.145  0.00  0.00    +0.000 A 
ATOM      4  C   UNL     1      48.042   6.420  18.196  0.00  0.00    +0.000 A 
ATOM      5  C   UNL     1      48.252   5.739  19.390  0.00  0.00    +0.000 A 
ATOM      6  C   UNL     1      49.378   4.935  19.537  0.00  0.00    +0.000 A 
ATOM      7  F   UNL     1      49.524   4.295  20.705  0.00  0.00    +0.000 F 
ATOM      8  C   UNL     1      50.312   4.802  18.507  0.00  0.00    +0.000 A 
ATOM      9  C   UNL     1      50.088   5.472  17.300  0.00  0.00    +0.000 A 
BRANCH   8  10
ATOM     10  O   UNL     1      51.460   4.040  18.569  0.00  0.00    +0.000 OA
BRANCH  10  11
ATOM     11  C   UNL     1      51.628   3.025  17.551  0.00  0.00    +0.000 C 
ATOM     12  C   UNL     1      50.505   1.969  17.429  0.00  0.00    +0.000 C 
ATOM     13  N   UNL     1      51.537   0.936  17.178  0.00  0.00    +0.000 NA
ATOM     14  C   UNL     1      52.513   1.806  17.888  0.00  0.00    +0.000 C 
ATOM     15  H   UNL     1      51.745   0.826  16.183  0.00  0.00    +0.000 HD
ENDBRANCH  10  11
ENDBRANCH   8  10
ENDBRANCH   2   3
BRANCH   1  17
ATOM     16  C   UNL     1      47.432   8.481  13.670  0.00  0.00    +0.000 C 
ATOM     17  C   UNL     1      47.980   7.056  13.454  0.00  0.00    +0.000 C 
ATOM     18  C   UNL     1      49.314   7.150  12.679  0.00  0.00    +0.000 C 
BRANCH  17  19
ATOM     19  C   UNL     1      46.939   6.263  12.639  0.00  0.00    +0.000 A 
ATOM     20  N   UNL     1      46.223   5.297  13.256  0.00  0.00    +0.000 NA
ATOM     21  C   UNL     1      45.284   4.657  12.519  0.00  0.00    +0.000 A 
ATOM     22  C   UNL     1      45.023   4.950  11.203  0.00  0.00    +0.000 A 
ATOM     23  C   UNL     1      45.820   5.922  10.648  0.00  0.00    +0.000 A 
ATOM     24  N   UNL     1      46.772   6.593  11.337  0.00  0.00    +0.000 NA
BRANCH  22  25
ATOM     25  C   UNL     1      43.957   4.244  10.478  0.00  0.00    +0.000 C 
ATOM     26  N   UNL     1      43.915   4.380   9.117  0.00  0.00    +0.000 N 
ATOM     27  O   UNL     1      43.112   3.591  11.072  0.00  0.00    +0.000 OA
ATOM     28  H   UNL     1      44.426   5.090   8.610  0.00  0.00    +0.000 HD
ATOM     29  H   UNL     1      43.112   3.975   8.651  0.00  0.00    +0.000 HD
ENDBRANCH  22  25
ENDBRANCH  17  19
ENDBRANCH   1  17
TORSDOF 6
ENDMDL
MODEL 7
REMARK VINA RESULT:    -6.415      2.849      4.312
REMARK INTER + INTRA:          -9.454
REMARK INTER:                  -8.679
REMARK INTRA:                  -0.775
REMARK UNBOUND:                -0.789
REMARK  Name = 
REMARK  8 active torsions:
REMARK  status: ('A' for Active; 'I' for Inactive)
REMARK    1  A    between atoms: C_1  and  C_2
REMARK    2  A    between atoms: C_2  and  C_3
REMARK    3  A    between atoms: C_2  and  C_4
REMARK    4  A    between atoms: C_2  and  C_18
REMARK    5  A    between atoms: C_5  and  C_6
REMARK    6  A    between atoms: C_11  and  O_12
REMARK    7  A    between atoms: O_12  and  C_13
REMARK    8  A    between atoms: C_21  and  C_22
REMARK                            x       y       z     vdW  Elec       q    Type
REMARK                         _______ _______ _______ _____ _____    ______ ____
ROOT
ATOM      1  C   UNL     1      48.126   7.071  13.786  0.00  0.00    +0.000 C 
ATOM      2  C   UNL     1      49.296   7.623  14.148  0.00  0.00    +0.000 C 
ENDROOT
BRANCH   2   3
ATOM      3  C   UNL     1      49.998   7.207  15.357  0.00  0.00    +0.000 A 
ATOM      4  C   UNL     1      51.210   7.823  15.687  0.00  0.00    +0.000 A 
ATOM      5  C   UNL     1      51.891   7.441  16.838  0.00  0.00    +0.000 A 
ATOM      6  C   UNL     1      51.369   6.438  17.648  0.00  0.00    +0.000 A 
ATOM      7  F   UNL     1      52.062   6.117  18.749  0.00  0.00    +0.000 F 
ATOM      8  C   UNL     1      50.170   5.797  17.324  0.00  0.00    +0.000 A 
ATOM      9  C   UNL     1      49.477   6.197  16.177  0.00  0.00    +0.000 A 
BRANCH   8  10
ATOM     10  O   UNL     1      49.587   4.787  18.059  0.00  0.00    +0.000 OA
BRANCH  10  11
ATOM     11  C   UNL     1      48.560   4.006  17.400  0.00  0.00    +0.000 C 
ATOM     12  C   UNL     1      47.093   4.374  17.723  0.00  0.00    +0.000 C 
ATOM     13  N   UNL     1      46.756   2.931  17.713  0.00  0.00    +0.000 NA
ATOM     14  C   UNL     1      48.183   2.643  18.018  0.00  0.00    +0.000 C 
ATOM     15  H   UNL     1      46.467   2.604  16.789  0.00  0.00    +0.000 HD
ENDBRANCH  10  11
ENDBRANCH   8  10
ENDBRANCH   2   3
BRANCH   1  17
ATOM     16  C   UNL     1      46.445   8.658  12.792  0.00  0.00    +0.000 C 
ATOM     17  C   UNL     1      47.334   7.428  12.523  0.00  0.00    +0.000 C 
ATOM     18  C   UNL     1      48.326   7.771  11.389  0.00  0.00    +0.000 C 
BRANCH  17  19
ATOM     19  C   UNL     1      46.419   6.259  12.104  0.00  0.00    +0.000 A 
ATOM     20  N   UNL     1      45.833   6.291  10.887  0.00  0.00    +0.000 NA
ATOM     21  C   UNL     1      45.077   5.224  10.537  0.00  0.00    +0.000 A 
ATOM     22  C   UNL     1      44.895   4.126  11.341  0.00  0.00    +0.000 A 
ATOM     23  C   UNL     1      45.501   4.194  12.573  0.00  0.00    +0.000 A 
ATOM     24  N   UNL     1      46.266   5.235  12.975  0.00  0.00    +0.000 NA
BRANCH  22  25
ATOM     25  C   UNL     1      44.096   2.984  10.877  0.00  0.00    +0.000 C 
ATOM     26  N   UNL     1      44.604   2.223   9.859  0.00  0.00    +0.000 N 
ATOM     27  O   UNL     1      42.995   2.746  11.353  0.00  0.00    +0.000 OA
ATOM     28  H   UNL     1      45.375   2.514   9.275  0.00  0.00    +0.000 HD
ATOM     29  H   UNL     1      43.990   1.511   9.484  0.00  0.00    +0.000 HD
ENDBRANCH  22  25
ENDBRANCH  17  19
ENDBRANCH   1  17
TORSDOF 6
ENDMDL
MODEL 8
REMARK VINA RESULT:    -6.319      3.396      8.650
REMARK INTER + INTRA:          -9.325
REMARK INTER:                  -8.516
REMARK INTRA:                  -0.810
REMARK UNBOUND:                -0.789
REMARK  Name = 
REMARK  8 active torsions:
REMARK  status: ('A' for Active; 'I' for Inactive)
REMARK    1  A    between atoms: C_1  and  C_2
REMARK    2  A    between atoms: C_2  and  C_3
REMARK    3  A    between atoms: C_2  and  C_4
REMARK    4  A    between atoms: C_2  and  C_18
REMARK    5  A    between atoms: C_5  and  C_6
REMARK    6  A    between atoms: C_11  and  O_12
REMARK    7  A    between atoms: O_12  and  C_13
REMARK    8  A    between atoms: C_21  and  C_22
REMARK                            x       y       z     vdW  Elec       q    Type
REMARK                         _______ _______ _______ _____ _____    ______ ____
ROOT
ATOM      1  C   UNL     1      47.327   6.650  12.404  0.00  0.00    +0.000 C 
ATOM      2  C   UNL     1      46.083   6.694  11.901  0.00  0.00    +0.000 C 
ENDROOT
BRANCH   2   3
ATOM      3  C   UNL     1      45.274   5.489  11.749  0.00  0.00    +0.000 A 
ATOM      4  C   UNL     1      44.539   5.020  12.842  0.00  0.00    +0.000 A 
ATOM      5  C   UNL     1      43.761   3.874  12.713  0.00  0.00    +0.000 A 
ATOM      6  C   UNL     1      43.729   3.194  11.500  0.00  0.00    +0.000 A 
ATOM      7  F   UNL     1      42.955   2.102  11.430  0.00  0.00    +0.000 F 
ATOM      8  C   UNL     1      44.473   3.636  10.403  0.00  0.00    +0.000 A 
ATOM      9  C   UNL     1      45.239   4.800  10.529  0.00  0.00    +0.000 A 
BRANCH   8  10
ATOM     10  O   UNL     1      44.513   3.019   9.170  0.00  0.00    +0.000 OA
BRANCH  10  11
ATOM     11  C   UNL     1      45.815   2.869   8.555  0.00  0.00    +0.000 C 
ATOM     12  C   UNL     1      45.911   3.188   7.044  0.00  0.00    +0.000 C 
ATOM     13  N   UNL     1      46.840   2.045   6.888  0.00  0.00    +0.000 NA
ATOM     14  C   UNL     1      46.246   1.453   8.116  0.00  0.00    +0.000 C 
ATOM     15  H   UNL     1      47.819   2.319   7.004  0.00  0.00    +0.000 HD
ENDBRANCH  10  11
ENDBRANCH   8  10
ENDBRANCH   2   3
BRANCH   1  17
ATOM     16  C   UNL     1      49.416   7.823  11.632  0.00  0.00    +0.000 C 
ATOM     17  C   UNL     1      48.235   7.866  12.622  0.00  0.00    +0.000 C 
ATOM     18  C   UNL     1      47.419   9.154  12.366  0.00  0.00    +0.000 C 
BRANCH  17  19
ATOM     19  C   UNL     1      48.811   7.868  14.053  0.00  0.00    +0.000 A 
ATOM     20  N   UNL     1      49.079   6.687  14.652  0.00  0.00    +0.000 NA
ATOM     21  C   UNL     1      49.630   6.733  15.888  0.00  0.00    +0.000 A 
ATOM     22  C   UNL     1      49.935   7.901  16.541  0.00  0.00    +0.000 A 
ATOM     23  C   UNL     1      49.598   9.053  15.871  0.00  0.00    +0.000 A 
ATOM     24  N   UNL     1      49.046   9.066  14.635  0.00  0.00    +0.000 NA
BRANCH  22  25
ATOM     25  C   UNL     1      50.573   7.874  17.864  0.00  0.00    +0.000 C 
ATOM     26  N   UNL     1      50.457   6.727  18.603  0.00  0.00    +0.000 N 
ATOM     27  O   UNL     1      51.151   8.855  18.309  0.00  0.00    +0.000 OA
ATOM     28  H   UNL     1      49.796   5.991  18.393  0.00  0.00    +0.000 HD
ATOM     29  H   UNL     1      50.809   6.769  19.551  0.00  0.00    +0.000 HD
ENDBRANCH  22  25
ENDBRANCH  17  19
ENDBRANCH   1  17
TORSDOF 6
ENDMDL
MODEL 9
REMARK VINA RESULT:    -6.035      4.645      6.870
REMARK INTER + INTRA:          -8.941
REMARK INTER:                  -8.096
REMARK INTRA:                  -0.845
REMARK UNBOUND:                -0.789
REMARK  Name = 
REMARK  8 active torsions:
REMARK  status: ('A' for Active; 'I' for Inactive)
REMARK    1  A    between atoms: C_1  and  C_2
REMARK    2  A    between atoms: C_2  and  C_3
REMARK    3  A    between atoms: C_2  and  C_4
REMARK    4  A    between atoms: C_2  and  C_18
REMARK    5  A    between atoms: C_5  and  C_6
REMARK    6  A    between atoms: C_11  and  O_12
REMARK    7  A    between atoms: O_12  and  C_13
REMARK    8  A    between atoms: C_21  and  C_22
REMARK                            x       y       z     vdW  Elec       q    Type
REMARK                         _______ _______ _______ _____ _____    ______ ____
ROOT
ATOM      1  C   UNL     1      48.727   7.696  12.058  0.00  0.00    +0.000 C 
ATOM      2  C   UNL     1      49.780   8.470  12.368  0.00  0.00    +0.000 C 
ENDROOT
BRANCH   2   3
ATOM      3  C   UNL     1      50.777   8.843  11.369  0.00  0.00    +0.000 A 
ATOM      4  C   UNL     1      50.812  10.160  10.900  0.00  0.00    +0.000 A 
ATOM      5  C   UNL     1      51.758  10.532   9.951  0.00  0.00    +0.000 A 
ATOM      6  C   UNL     1      52.655   9.588   9.463  0.00  0.00    +0.000 A 
ATOM      7  F   UNL     1      53.550  10.004   8.557  0.00  0.00    +0.000 F 
ATOM      8  C   UNL     1      52.621   8.263   9.904  0.00  0.00    +0.000 A 
ATOM      9  C   UNL     1      51.683   7.896  10.874  0.00  0.00    +0.000 A 
BRANCH   8  10
ATOM     10  O   UNL     1      53.460   7.259   9.467  0.00  0.00    +0.000 OA
BRANCH  10  11
ATOM     11  C   UNL     1      52.869   6.221   8.649  0.00  0.00    +0.000 C 
ATOM     12  C   UNL     1      53.845   5.313   7.865  0.00  0.00    +0.000 C 
ATOM     13  N   UNL     1      52.901   5.327   6.723  0.00  0.00    +0.000 NA
ATOM     14  C   UNL     1      52.362   6.612   7.244  0.00  0.00    +0.000 C 
ATOM     15  H   UNL     1      52.226   4.560   6.765  0.00  0.00    +0.000 HD
ENDBRANCH  10  11
ENDBRANCH   8  10
ENDBRANCH   2   3
BRANCH   1  17
ATOM     16  C   UNL     1      48.249   6.730  14.333  0.00  0.00    +0.000 C 
ATOM     17  C   UNL     1      47.622   7.278  13.035  0.00  0.00    +0.000 C 
ATOM     18  C   UNL     1      46.764   8.515  13.383  0.00  0.00    +0.000 C 
BRANCH  17  19
ATOM     19  C   UNL     1      46.744   6.168  12.423  0.00  0.00    +0.000 A 
ATOM     20  N   UNL     1      46.490   5.058  13.151  0.00  0.00    +0.000 NA
ATOM     21  C   UNL     1      45.675   4.129  12.598  0.00  0.00    +0.000 A 
ATOM     22  C   UNL     1      45.094   4.268  11.362  0.00  0.00    +0.000 A 
ATOM     23  C   UNL     1      45.433   5.412  10.680  0.00  0.00    +0.000 A 
ATOM     24  N   UNL     1      46.242   6.372  11.184  0.00  0.00    +0.000 NA
BRANCH  22  25
ATOM     25  C   UNL     1      44.183   3.238  10.844  0.00  0.00    +0.000 C 
ATOM     26  N   UNL     1      44.703   2.294  10.000  0.00  0.00    +0.000 N 
ATOM     27  O   UNL     1      42.993   3.247  11.123  0.00  0.00    +0.000 OA
ATOM     28  H   UNL     1      45.604   2.383   9.550  0.00  0.00    +0.000 HD
ATOM     29  H   UNL     1      44.038   1.663   9.571  0.00  0.00    +0.000 HD
ENDBRANCH  22  25
ENDBRANCH  17  19
ENDBRANCH   1  17
TORSDOF 6
ENDMDL
