MODEL 1
REMARK VINA RESULT:    -8.672      0.000      0.000
REMARK INTER + INTRA:         -11.951
REMARK INTER:                 -11.207
REMARK INTRA:                  -0.743
REMARK UNBOUND:                -0.743
REMARK  Name = 
REMARK  5 active torsions:
REMARK  status: ('A' for Active; 'I' for Inactive)
REMARK    1  A    between atoms: C_2  and  C_4
REMARK    2  A    between atoms: C_7  and  N_8
REMARK    3  A    between atoms: N_8  and  C_9
REMARK    4  A    between atoms: C_9  and  C_10
REMARK    5  A    between atoms: C_14  and  C_15
REMARK                            x       y       z     vdW  Elec       q    Type
REMARK                         _______ _______ _______ _____ _____    ______ ____
ROOT
ATOM      1  C   UNL     1      43.625   4.372  11.246  0.00  0.00    +0.000 C 
ENDROOT
BRANCH   1   2
ATOM      2  C   UNL     1      44.867   4.804  12.010  0.00  0.00    +0.000 A 
ATOM      3  C   UNL     1      45.531   3.898  12.833  0.00  0.00    +0.000 A 
ATOM      4  C   UNL     1      46.677   4.312  13.502  0.00  0.00    +0.000 A 
ATOM      5  C   UNL     1      47.138   5.612  13.322  0.00  0.00    +0.000 A 
ATOM      6  C   UNL     1      46.449   6.471  12.466  0.00  0.00    +0.000 A 
ATOM      7  N   UNL     1      45.324   6.072  11.814  0.00  0.00    +0.000 NA
BRANCH   6   8
ATOM      8  C   UNL     1      46.890   7.859  12.207  0.00  0.00    +0.000 A 
ATOM      9  C   UNL     1      48.244   8.151  11.947  0.00  0.00    +0.000 A 
ATOM     10  C   UNL     1      48.682   9.459  11.710  0.00  0.00    +0.000 A 
ATOM     11  C   UNL     1      47.770  10.510  11.732  0.00  0.00    +0.000 A 
ATOM     12  C   UNL     1      46.433  10.240  11.985  0.00  0.00    +0.000 A 
ATOM     13  F   UNL     1      45.551  11.248  12.010  0.00  0.00    +0.000 F 
ATOM     14  C   UNL     1      45.990   8.940  12.219  0.00  0.00    +0.000 A 
ENDBRANCH   6   8
ENDBRANCH   1   2
BRANCH   1  15
ATOM     15  N   UNL     1      43.761   4.748   9.839  0.00  0.00    +0.000 N 
ATOM     16  H   UNL     1      42.859   4.676   9.373  0.00  0.00    +0.000 HD
BRANCH  15  20
ATOM     17  C   UNL     1      46.488   2.504   7.716  0.00  0.00    +0.000 A 
ATOM     18  C   UNL     1      46.441   3.884   7.572  0.00  0.00    +0.000 A 
ATOM     19  N   UNL     1      45.561   4.670   8.258  0.00  0.00    +0.000 NA
ATOM     20  C   UNL     1      44.732   4.037   9.118  0.00  0.00    +0.000 A 
ATOM     21  C   UNL     1      44.797   2.640   9.246  0.00  0.00    +0.000 A 
ATOM     22  N   UNL     1      45.661   1.839   8.565  0.00  0.00    +0.000 NA
BRANCH  17  24
ATOM     23  N   UNL     1      48.544   2.382   6.441  0.00  0.00    +0.000 N 
ATOM     24  C   UNL     1      47.453   1.703   6.915  0.00  0.00    +0.000 C 
ATOM     25  O   UNL     1      47.292   0.509   6.699  0.00  0.00    +0.000 OA
ATOM     26  H   UNL     1      49.248   1.889   5.912  0.00  0.00    +0.000 HD
ATOM     27  H   UNL     1      48.663   3.367   6.661  0.00  0.00    +0.000 HD
ENDBRANCH  17  24
ENDBRANCH  15  20
ENDBRANCH   1  15
TORSDOF 5
ENDMDL
MODEL 2
REMARK VINA RESULT:    -8.303      4.084      7.385
REMARK INTER + INTRA:         -11.474
REMARK INTER:                 -11.059
REMARK INTRA:                  -0.414
REMARK UNBOUND:                -0.743
REMARK  Name = 
REMARK  5 active torsions:
REMARK  status: ('A' for Active; 'I' for Inactive)
REMARK    1  A    between atoms: C_2  and  C_4
REMARK    2  A    between atoms: C_7  and  N_8
REMARK    3  A    between atoms: N_8  and  C_9
REMARK    4  A    between atoms: C_9  and  C_10
REMARK    5  A    between atoms: C_14  and  C_15
REMARK                            x       y       z     vdW  Elec       q    Type
REMARK                         _______ _______ _______ _____ _____    ______ ____
ROOT
ATOM      1  C   UNL     1      46.202   7.155  11.914  0.00  0.00    +0.000 C 
ENDROOT
BRANCH   1   2
ATOM      2  C   UNL     1      45.281   6.141  11.252  0.00  0.00    +0.000 A 
ATOM      3  C   UNL     1      43.923   6.126  11.561  0.00  0.00    +0.000 A 
ATOM      4  C   UNL     1      43.099   5.205  10.925  0.00  0.00    +0.000 A 
ATOM      5  C   UNL     1      43.648   4.334   9.988  0.00  0.00    +0.000 A 
ATOM      6  C   UNL     1      45.010   4.410   9.698  0.00  0.00    +0.000 A 
ATOM      7  N   UNL     1      45.821   5.305  10.323  0.00  0.00    +0.000 NA
BRANCH   6   8
ATOM      8  C   UNL     1      45.660   3.534   8.699  0.00  0.00    +0.000 A 
ATOM      9  C   UNL     1      46.288   4.077   7.561  0.00  0.00    +0.000 A 
ATOM     10  C   UNL     1      46.900   3.263   6.599  0.00  0.00    +0.000 A 
ATOM     11  C   UNL     1      46.894   1.881   6.756  0.00  0.00    +0.000 A 
ATOM     12  C   UNL     1      46.282   1.329   7.872  0.00  0.00    +0.000 A 
ATOM     13  F   UNL     1      46.270  -0.001   8.027  0.00  0.00    +0.000 F 
ATOM     14  C   UNL     1      45.673   2.134   8.834  0.00  0.00    +0.000 A 
ENDBRANCH   6   8
ENDBRANCH   1   2
BRANCH   1  15
ATOM     15  N   UNL     1      47.460   6.505  12.283  0.00  0.00    +0.000 N 
ATOM     16  H   UNL     1      47.737   5.850  11.553  0.00  0.00    +0.000 HD
BRANCH  15  20
ATOM     17  C   UNL     1      47.433   4.448  15.852  0.00  0.00    +0.000 A 
ATOM     18  C   UNL     1      48.200   5.595  15.702  0.00  0.00    +0.000 A 
ATOM     19  N   UNL     1      48.236   6.313  14.542  0.00  0.00    +0.000 NA
ATOM     20  C   UNL     1      47.461   5.863  13.530  0.00  0.00    +0.000 A 
ATOM     21  C   UNL     1      46.695   4.699  13.706  0.00  0.00    +0.000 A 
ATOM     22  N   UNL     1      46.652   3.965  14.850  0.00  0.00    +0.000 NA
BRANCH  17  24
ATOM     23  N   UNL     1      48.560   3.905  17.926  0.00  0.00    +0.000 N 
ATOM     24  C   UNL     1      47.463   3.694  17.135  0.00  0.00    +0.000 C 
ATOM     25  O   UNL     1      46.560   2.939  17.473  0.00  0.00    +0.000 OA
ATOM     26  H   UNL     1      48.628   3.442  18.821  0.00  0.00    +0.000 HD
ATOM     27  H   UNL     1      49.280   4.559  17.632  0.00  0.00    +0.000 HD
ENDBRANCH  17  24
ENDBRANCH  15  20
ENDBRANCH   1  15
TORSDOF 5
ENDMDL
MODEL 3
REMARK VINA RESULT:    -8.243      2.779      4.076
REMARK INTER + INTRA:         -11.396
REMARK INTER:                 -10.957
REMARK INTRA:                  -0.439
REMARK UNBOUND:                -0.743
REMARK  Name = 
REMARK  5 active torsions:
REMARK  status: ('A' for Active; 'I' for Inactive)
REMARK    1  A    between atoms: C_2  and  C_4
REMARK    2  A    between atoms: C_7  and  N_8
REMARK    3  A    between atoms: N_8  and  C_9
REMARK    4  A    between atoms: C_9  and  C_10
REMARK    5  A    between atoms: C_14  and  C_15
REMARK                            x       y       z     vdW  Elec       q    Type
REMARK                         _______ _______ _______ _____ _____    ______ ____
ROOT
ATOM      1  C   UNL     1      44.124   4.405  11.602  0.00  0.00    +0.000 C 
ENDROOT
BRANCH   1   2
ATOM      2  C   UNL     1      45.312   5.209  12.106  0.00  0.00    +0.000 A 
ATOM      3  C   UNL     1      45.766   6.310  11.385  0.00  0.00    +0.000 A 
ATOM      4  C   UNL     1      46.840   7.042  11.880  0.00  0.00    +0.000 A 
ATOM      5  C   UNL     1      47.422   6.665  13.086  0.00  0.00    +0.000 A 
ATOM      6  C   UNL     1      46.911   5.568  13.780  0.00  0.00    +0.000 A 
ATOM      7  N   UNL     1      45.866   4.846  13.296  0.00  0.00    +0.000 NA
BRANCH   6   8
ATOM      8  C   UNL     1      47.463   5.120  15.077  0.00  0.00    +0.000 A 
ATOM      9  C   UNL     1      48.496   5.840  15.711  0.00  0.00    +0.000 A 
ATOM     10  C   UNL     1      49.038   5.426  16.934  0.00  0.00    +0.000 A 
ATOM     11  C   UNL     1      48.558   4.275  17.550  0.00  0.00    +0.000 A 
ATOM     12  C   UNL     1      47.541   3.555  16.940  0.00  0.00    +0.000 A 
ATOM     13  F   UNL     1      47.078   2.444  17.527  0.00  0.00    +0.000 F 
ATOM     14  C   UNL     1      46.996   3.962  15.725  0.00  0.00    +0.000 A 
ENDBRANCH   6   8
ENDBRANCH   1   2
BRANCH   1  15
ATOM     15  N   UNL     1      43.951   4.634  10.167  0.00  0.00    +0.000 N 
ATOM     16  H   UNL     1      42.996   4.412   9.894  0.00  0.00    +0.000 HD
BRANCH  15  20
ATOM     17  C   UNL     1      46.494   2.486   7.738  0.00  0.00    +0.000 A 
ATOM     18  C   UNL     1      46.391   3.865   7.614  0.00  0.00    +0.000 A 
ATOM     19  N   UNL     1      45.569   4.619   8.399  0.00  0.00    +0.000 NA
ATOM     20  C   UNL     1      44.858   3.957   9.338  0.00  0.00    +0.000 A 
ATOM     21  C   UNL     1      44.977   2.561   9.444  0.00  0.00    +0.000 A 
ATOM     22  N   UNL     1      45.784   1.791   8.666  0.00  0.00    +0.000 NA
BRANCH  17  24
ATOM     23  N   UNL     1      48.455   2.410   6.319  0.00  0.00    +0.000 N 
ATOM     24  C   UNL     1      47.388   1.719   6.829  0.00  0.00    +0.000 C 
ATOM     25  O   UNL     1      47.193   0.542   6.558  0.00  0.00    +0.000 OA
ATOM     26  H   UNL     1      49.113   1.939   5.715  0.00  0.00    +0.000 HD
ATOM     27  H   UNL     1      48.605   3.379   6.584  0.00  0.00    +0.000 HD
ENDBRANCH  17  24
ENDBRANCH  15  20
ENDBRANCH   1  15
TORSDOF 5
ENDMDL
MODEL 4
REMARK VINA RESULT:    -8.117      1.120      1.577
REMARK INTER + INTRA:         -11.234
REMARK INTER:                 -10.534
REMARK INTRA:                  -0.700
REMARK UNBOUND:                -0.743
REMARK  Name = 
REMARK  5 active torsions:
REMARK  status: ('A' for Active; 'I' for Inactive)
REMARK    1  A    between atoms: C_2  and  C_4
REMARK    2  A    between atoms: C_7  and  N_8
REMARK    3  A    between atoms: N_8  and  C_9
REMARK    4  A    between atoms: C_9  and  C_10
REMARK    5  A    between atoms: C_14  and  C_15
REMARK                            x       y       z     vdW  Elec       q    Type
REMARK                         _______ _______ _______ _____ _____    ______ ____
ROOT
ATOM      1  C   UNL     1      43.946   5.092  10.875  0.00  0.00    +0.000 C 
ENDROOT
BRANCH   1   2
ATOM      2  C   UNL     1      45.122   5.230  11.830  0.00  0.00    +0.000 A 
ATOM      3  C   UNL     1      45.292   4.314  12.864  0.00  0.00    +0.000 A 
ATOM      4  C   UNL     1      46.388   4.450  13.709  0.00  0.00    +0.000 A 
ATOM      5  C   UNL     1      47.292   5.485  13.491  0.00  0.00    +0.000 A 
ATOM      6  C   UNL     1      47.087   6.359  12.424  0.00  0.00    +0.000 A 
ATOM      7  N   UNL     1      46.013   6.235  11.599  0.00  0.00    +0.000 NA
BRANCH   6   8
ATOM      8  C   UNL     1      48.015   7.470  12.115  0.00  0.00    +0.000 A 
ATOM      9  C   UNL     1      49.399   7.240  11.985  0.00  0.00    +0.000 A 
ATOM     10  C   UNL     1      50.294   8.280  11.703  0.00  0.00    +0.000 A 
ATOM     11  C   UNL     1      49.820   9.579  11.550  0.00  0.00    +0.000 A 
ATOM     12  C   UNL     1      48.460   9.823  11.674  0.00  0.00    +0.000 A 
ATOM     13  F   UNL     1      47.999  11.072  11.531  0.00  0.00    +0.000 F 
ATOM     14  C   UNL     1      47.564   8.792  11.952  0.00  0.00    +0.000 A 
ENDBRANCH   6   8
ENDBRANCH   1   2
BRANCH   1  15
ATOM     15  N   UNL     1      43.826   3.699  10.446  0.00  0.00    +0.000 N 
ATOM     16  H   UNL     1      43.930   3.080  11.248  0.00  0.00    +0.000 HD
BRANCH  15  20
ATOM     17  C   UNL     1      46.477   2.733   7.443  0.00  0.00    +0.000 A 
ATOM     18  C   UNL     1      46.023   1.763   8.326  0.00  0.00    +0.000 A 
ATOM     19  N   UNL     1      45.141   2.033   9.331  0.00  0.00    +0.000 NA
ATOM     20  C   UNL     1      44.701   3.308   9.421  0.00  0.00    +0.000 A 
ATOM     21  C   UNL     1      45.175   4.273   8.517  0.00  0.00    +0.000 A 
ATOM     22  N   UNL     1      46.061   4.026   7.514  0.00  0.00    +0.000 NA
BRANCH  17  24
ATOM     23  N   UNL     1      47.359   3.077   5.214  0.00  0.00    +0.000 N 
ATOM     24  C   UNL     1      47.463   2.378   6.387  0.00  0.00    +0.000 C 
ATOM     25  O   UNL     1      48.322   1.523   6.553  0.00  0.00    +0.000 OA
ATOM     26  H   UNL     1      48.015   2.901   4.466  0.00  0.00    +0.000 HD
ATOM     27  H   UNL     1      46.653   3.801   5.115  0.00  0.00    +0.000 HD
ENDBRANCH  17  24
ENDBRANCH  15  20
ENDBRANCH   1  15
TORSDOF 5
ENDMDL
MODEL 5
REMARK VINA RESULT:    -7.926      3.750      7.003
REMARK INTER + INTRA:         -10.986
REMARK INTER:                 -10.233
REMARK INTRA:                  -0.753
REMARK UNBOUND:                -0.743
REMARK  Name = 
REMARK  5 active torsions:
REMARK  status: ('A' for Active; 'I' for Inactive)
REMARK    1  A    between atoms: C_2  and  C_4
REMARK    2  A    between atoms: C_7  and  N_8
REMARK    3  A    between atoms: N_8  and  C_9
REMARK    4  A    between atoms: C_9  and  C_10
REMARK    5  A    between atoms: C_14  and  C_15
REMARK                            x       y       z     vdW  Elec       q    Type
REMARK                         _______ _______ _______ _____ _____    ______ ____
ROOT
ATOM      1  C   UNL     1      43.971   6.713  11.339  0.00  0.00    +0.000 C 
ENDROOT
BRANCH   1   2
ATOM      2  C   UNL     1      43.986   5.207  11.122  0.00  0.00    +0.000 A 
ATOM      3  C   UNL     1      43.228   4.377  11.943  0.00  0.00    +0.000 A 
ATOM      4  C   UNL     1      43.241   3.006  11.709  0.00  0.00    +0.000 A 
ATOM      5  C   UNL     1      43.997   2.503  10.654  0.00  0.00    +0.000 A 
ATOM      6  C   UNL     1      44.718   3.384   9.848  0.00  0.00    +0.000 A 
ATOM      7  N   UNL     1      44.713   4.724  10.077  0.00  0.00    +0.000 NA
BRANCH   6   8
ATOM      8  C   UNL     1      45.526   2.926   8.697  0.00  0.00    +0.000 A 
ATOM      9  C   UNL     1      45.947   3.833   7.703  0.00  0.00    +0.000 A 
ATOM     10  C   UNL     1      46.704   3.417   6.601  0.00  0.00    +0.000 A 
ATOM     11  C   UNL     1      47.056   2.078   6.467  0.00  0.00    +0.000 A 
ATOM     12  C   UNL     1      46.651   1.172   7.437  0.00  0.00    +0.000 A 
ATOM     13  F   UNL     1      46.984  -0.119   7.312  0.00  0.00    +0.000 F 
ATOM     14  C   UNL     1      45.899   1.579   8.537  0.00  0.00    +0.000 A 
ENDBRANCH   6   8
ENDBRANCH   1   2
BRANCH   1  15
ATOM     15  N   UNL     1      44.595   7.028  12.624  0.00  0.00    +0.000 N 
ATOM     16  H   UNL     1      44.170   7.865  13.019  0.00  0.00    +0.000 HD
BRANCH  15  20
ATOM     17  C   UNL     1      48.672   7.622  12.589  0.00  0.00    +0.000 A 
ATOM     18  C   UNL     1      48.138   6.391  12.945  0.00  0.00    +0.000 A 
ATOM     19  N   UNL     1      46.797   6.144  12.965  0.00  0.00    +0.000 NA
ATOM     20  C   UNL     1      45.991   7.165  12.596  0.00  0.00    +0.000 A 
ATOM     21  C   UNL     1      46.553   8.402  12.242  0.00  0.00    +0.000 A 
ATOM     22  N   UNL     1      47.887   8.670  12.224  0.00  0.00    +0.000 NA
BRANCH  17  24
ATOM     23  N   UNL     1      50.744   7.691  13.841  0.00  0.00    +0.000 N 
ATOM     24  C   UNL     1      50.144   7.833  12.618  0.00  0.00    +0.000 C 
ATOM     25  O   UNL     1      50.787   8.106  11.613  0.00  0.00    +0.000 OA
ATOM     26  H   UNL     1      51.745   7.797  13.922  0.00  0.00    +0.000 HD
ATOM     27  H   UNL     1      50.188   7.437  14.652  0.00  0.00    +0.000 HD
ENDBRANCH  17  24
ENDBRANCH  15  20
ENDBRANCH   1  15
TORSDOF 5
ENDMDL
MODEL 6
REMARK VINA RESULT:    -7.186      2.343      3.061
REMARK INTER + INTRA:         -10.029
REMARK INTER:                  -9.417
REMARK INTRA:                  -0.612
REMARK UNBOUND:                -0.743
REMARK  Name = 
REMARK  5 active torsions:
REMARK  status: ('A' for Active; 'I' for Inactive)
REMARK    1  A    between atoms: C_2  and  C_4
REMARK    2  A    between atoms: C_7  and  N_8
REMARK    3  A    between atoms: N_8  and  C_9
REMARK    4  A    between atoms: C_9  and  C_10
REMARK    5  A    between atoms: C_14  and  C_15
REMARK                            x       y       z     vdW  Elec       q    Type
REMARK                         _______ _______ _______ _____ _____    ______ ____
ROOT
ATOM      1  C   UNL     1      44.830   4.200  11.880  0.00  0.00    +0.000 C 
ENDROOT
BRANCH   1   2
ATOM      2  C   UNL     1      45.117   5.689  12.003  0.00  0.00    +0.000 A 
ATOM      3  C   UNL     1      44.276   6.615  11.392  0.00  0.00    +0.000 A 
ATOM      4  C   UNL     1      44.548   7.970  11.539  0.00  0.00    +0.000 A 
ATOM      5  C   UNL     1      45.641   8.366  12.303  0.00  0.00    +0.000 A 
ATOM      6  C   UNL     1      46.436   7.397  12.914  0.00  0.00    +0.000 A 
ATOM      7  N   UNL     1      46.178   6.070  12.767  0.00  0.00    +0.000 NA
BRANCH   6   8
ATOM      8  C   UNL     1      47.602   7.740  13.758  0.00  0.00    +0.000 A 
ATOM      9  C   UNL     1      48.057   9.071  13.855  0.00  0.00    +0.000 A 
ATOM     10  C   UNL     1      49.164   9.414  14.641  0.00  0.00    +0.000 A 
ATOM     11  C   UNL     1      49.846   8.427  15.346  0.00  0.00    +0.000 A 
ATOM     12  C   UNL     1      49.411   7.113  15.262  0.00  0.00    +0.000 A 
ATOM     13  F   UNL     1      50.066   6.158  15.936  0.00  0.00    +0.000 F 
ATOM     14  C   UNL     1      48.309   6.765  14.484  0.00  0.00    +0.000 A 
ENDBRANCH   6   8
ENDBRANCH   1   2
BRANCH   1  15
ATOM     15  N   UNL     1      44.102   3.944  10.637  0.00  0.00    +0.000 N 
ATOM     16  H   UNL     1      43.340   3.292  10.812  0.00  0.00    +0.000 HD
BRANCH  15  20
ATOM     17  C   UNL     1      46.507   2.785   7.499  0.00  0.00    +0.000 A 
ATOM     18  C   UNL     1      45.962   1.842   8.359  0.00  0.00    +0.000 A 
ATOM     19  N   UNL     1      45.156   2.176   9.408  0.00  0.00    +0.000 NA
ATOM     20  C   UNL     1      44.886   3.492   9.565  0.00  0.00    +0.000 A 
ATOM     21  C   UNL     1      45.449   4.427   8.682  0.00  0.00    +0.000 A 
ATOM     22  N   UNL     1      46.262   4.115   7.637  0.00  0.00    +0.000 NA
BRANCH  17  24
ATOM     23  N   UNL     1      47.216   2.988   5.192  0.00  0.00    +0.000 N 
ATOM     24  C   UNL     1      47.403   2.355   6.392  0.00  0.00    +0.000 C 
ATOM     25  O   UNL     1      48.264   1.498   6.541  0.00  0.00    +0.000 OA
ATOM     26  H   UNL     1      47.810   2.759   4.407  0.00  0.00    +0.000 HD
ATOM     27  H   UNL     1      46.512   3.715   5.106  0.00  0.00    +0.000 HD
ENDBRANCH  17  24
ENDBRANCH  15  20
ENDBRANCH   1  15
TORSDOF 5
ENDMDL
MODEL 7
REMARK VINA RESULT:    -7.177      4.739      8.014
REMARK INTER + INTRA:         -10.018
REMARK INTER:                  -9.489
REMARK INTRA:                  -0.529
REMARK UNBOUND:                -0.743
REMARK  Name = 
REMARK  5 active torsions:
REMARK  status: ('A' for Active; 'I' for Inactive)
REMARK    1  A    between atoms: C_2  and  C_4
REMARK    2  A    between atoms: C_7  and  N_8
REMARK    3  A    between atoms: N_8  and  C_9
REMARK    4  A    between atoms: C_9  and  C_10
REMARK    5  A    between atoms: C_14  and  C_15
REMARK                            x       y       z     vdW  Elec       q    Type
REMARK                         _______ _______ _______ _____ _____    ______ ____
ROOT
ATOM      1  C   UNL     1      46.164   5.716  13.679  0.00  0.00    +0.000 C 
ENDROOT
BRANCH   1   2
ATOM      2  C   UNL     1      45.140   5.354  12.614  0.00  0.00    +0.000 A 
ATOM      3  C   UNL     1      43.823   5.786  12.736  0.00  0.00    +0.000 A 
ATOM      4  C   UNL     1      42.913   5.460  11.737  0.00  0.00    +0.000 A 
ATOM      5  C   UNL     1      43.344   4.725  10.636  0.00  0.00    +0.000 A 
ATOM      6  C   UNL     1      44.682   4.340  10.552  0.00  0.00    +0.000 A 
ATOM      7  N   UNL     1      45.574   4.651  11.531  0.00  0.00    +0.000 NA
BRANCH   6   8
ATOM      8  C   UNL     1      45.219   3.577   9.405  0.00  0.00    +0.000 A 
ATOM      9  C   UNL     1      45.249   2.168   9.424  0.00  0.00    +0.000 A 
ATOM     10  C   UNL     1      45.763   1.429   8.351  0.00  0.00    +0.000 A 
ATOM     11  C   UNL     1      46.264   2.087   7.232  0.00  0.00    +0.000 A 
ATOM     12  C   UNL     1      46.241   3.474   7.197  0.00  0.00    +0.000 A 
ATOM     13  F   UNL     1      46.725   4.113   6.124  0.00  0.00    +0.000 F 
ATOM     14  C   UNL     1      45.729   4.215   8.260  0.00  0.00    +0.000 A 
ENDBRANCH   6   8
ENDBRANCH   1   2
BRANCH   1  15
ATOM     15  N   UNL     1      46.957   4.535  14.017  0.00  0.00    +0.000 N 
ATOM     16  H   UNL     1      46.390   3.696  13.911  0.00  0.00    +0.000 HD
BRANCH  15  20
ATOM     17  C   UNL     1      48.736   4.398  17.731  0.00  0.00    +0.000 A 
ATOM     18  C   UNL     1      48.842   5.530  16.936  0.00  0.00    +0.000 A 
ATOM     19  N   UNL     1      48.266   5.626  15.703  0.00  0.00    +0.000 NA
ATOM     20  C   UNL     1      47.553   4.555  15.287  0.00  0.00    +0.000 A 
ATOM     21  C   UNL     1      47.461   3.419  16.108  0.00  0.00    +0.000 A 
ATOM     22  N   UNL     1      48.035   3.302  17.336  0.00  0.00    +0.000 NA
BRANCH  17  24
ATOM     23  N   UNL     1      48.636   3.955  20.110  0.00  0.00    +0.000 N 
ATOM     24  C   UNL     1      49.415   4.348  19.054  0.00  0.00    +0.000 C 
ATOM     25  O   UNL     1      50.598   4.630  19.195  0.00  0.00    +0.000 OA
ATOM     26  H   UNL     1      49.045   3.877  21.031  0.00  0.00    +0.000 HD
ATOM     27  H   UNL     1      47.665   3.701  19.957  0.00  0.00    +0.000 HD
ENDBRANCH  17  24
ENDBRANCH  15  20
ENDBRANCH   1  15
TORSDOF 5
ENDMDL
MODEL 8
REMARK VINA RESULT:    -7.044      4.263      7.555
REMARK INTER + INTRA:          -9.847
REMARK INTER:                  -9.516
REMARK INTRA:                  -0.331
REMARK UNBOUND:                -0.743
REMARK  Name = 
REMARK  5 active torsions:
REMARK  status: ('A' for Active; 'I' for Inactive)
REMARK    1  A    between atoms: C_2  and  C_4
REMARK    2  A    between atoms: C_7  and  N_8
REMARK    3  A    between atoms: N_8  and  C_9
REMARK    4  A    between atoms: C_9  and  C_10
REMARK    5  A    between atoms: C_14  and  C_15
REMARK                            x       y       z     vdW  Elec       q    Type
REMARK                         _______ _______ _______ _____ _____    ______ ____
ROOT
ATOM      1  C   UNL     1      48.781   7.286  12.994  0.00  0.00    +0.000 C 
ENDROOT
BRANCH   1   2
ATOM      2  C   UNL     1      47.360   7.310  12.451  0.00  0.00    +0.000 A 
ATOM      3  C   UNL     1      46.540   8.409  12.690  0.00  0.00    +0.000 A 
ATOM      4  C   UNL     1      45.254   8.416  12.163  0.00  0.00    +0.000 A 
ATOM      5  C   UNL     1      44.825   7.334  11.400  0.00  0.00    +0.000 A 
ATOM      6  C   UNL     1      45.697   6.270  11.170  0.00  0.00    +0.000 A 
ATOM      7  N   UNL     1      46.954   6.257  11.689  0.00  0.00    +0.000 NA
BRANCH   6   8
ATOM      8  C   UNL     1      45.321   5.097  10.352  0.00  0.00    +0.000 A 
ATOM      9  C   UNL     1      44.568   4.042  10.904  0.00  0.00    +0.000 A 
ATOM     10  C   UNL     1      44.211   2.918  10.149  0.00  0.00    +0.000 A 
ATOM     11  C   UNL     1      44.607   2.824   8.818  0.00  0.00    +0.000 A 
ATOM     12  C   UNL     1      45.348   3.853   8.258  0.00  0.00    +0.000 A 
ATOM     13  F   UNL     1      45.735   3.767   6.979  0.00  0.00    +0.000 F 
ATOM     14  C   UNL     1      45.704   4.976   9.004  0.00  0.00    +0.000 A 
ENDBRANCH   6   8
ENDBRANCH   1   2
BRANCH   1  15
ATOM     15  N   UNL     1      48.759   7.551  14.432  0.00  0.00    +0.000 N 
ATOM     16  H   UNL     1      49.639   7.977  14.719  0.00  0.00    +0.000 HD
BRANCH  15  20
ATOM     17  C   UNL     1      47.907   4.417  16.967  0.00  0.00    +0.000 A 
ATOM     18  C   UNL     1      47.542   4.365  15.629  0.00  0.00    +0.000 A 
ATOM     19  N   UNL     1      47.808   5.374  14.750  0.00  0.00    +0.000 NA
ATOM     20  C   UNL     1      48.475   6.442  15.243  0.00  0.00    +0.000 A 
ATOM     21  C   UNL     1      48.833   6.473  16.600  0.00  0.00    +0.000 A 
ATOM     22  N   UNL     1      48.569   5.482  17.494  0.00  0.00    +0.000 NA
BRANCH  17  24
ATOM     23  N   UNL     1      48.302   3.206  19.027  0.00  0.00    +0.000 N 
ATOM     24  C   UNL     1      47.560   3.295  17.880  0.00  0.00    +0.000 C 
ATOM     25  O   UNL     1      46.661   2.502  17.631  0.00  0.00    +0.000 OA
ATOM     26  H   UNL     1      48.099   2.481  19.700  0.00  0.00    +0.000 HD
ATOM     27  H   UNL     1      49.024   3.895  19.219  0.00  0.00    +0.000 HD
ENDBRANCH  17  24
ENDBRANCH  15  20
ENDBRANCH   1  15
TORSDOF 5
ENDMDL
MODEL 9
REMARK VINA RESULT:    -6.507      5.269      8.394
REMARK INTER + INTRA:          -9.153
REMARK INTER:                  -8.518
REMARK INTRA:                  -0.635
REMARK UNBOUND:                -0.743
REMARK  Name = 
REMARK  5 active torsions:
REMARK  status: ('A' for Active; 'I' for Inactive)
REMARK    1  A    between atoms: C_2  and  C_4
REMARK    2  A    between atoms: C_7  and  N_8
REMARK    3  A    between atoms: N_8  and  C_9
REMARK    4  A    between atoms: C_9  and  C_10
REMARK    5  A    between atoms: C_14  and  C_15
REMARK                            x       y       z     vdW  Elec       q    Type
REMARK                         _______ _______ _______ _____ _____    ______ ____
ROOT
ATOM      1  C   UNL     1      49.027   7.014  13.941  0.00  0.00    +0.000 C 
ENDROOT
BRANCH   1   2
ATOM      2  C   UNL     1      47.665   7.271  13.312  0.00  0.00    +0.000 A 
ATOM      3  C   UNL     1      47.027   8.493  13.506  0.00  0.00    +0.000 A 
ATOM      4  C   UNL     1      45.794   8.711  12.902  0.00  0.00    +0.000 A 
ATOM      5  C   UNL     1      45.239   7.711  12.109  0.00  0.00    +0.000 A 
ATOM      6  C   UNL     1      45.934   6.516  11.927  0.00  0.00    +0.000 A 
ATOM      7  N   UNL     1      47.137   6.296  12.522  0.00  0.00    +0.000 NA
BRANCH   6   8
ATOM      8  C   UNL     1      45.418   5.416  11.082  0.00  0.00    +0.000 A 
ATOM      9  C   UNL     1      45.707   5.368   9.704  0.00  0.00    +0.000 A 
ATOM     10  C   UNL     1      45.220   4.341   8.886  0.00  0.00    +0.000 A 
ATOM     11  C   UNL     1      44.426   3.337   9.432  0.00  0.00    +0.000 A 
ATOM     12  C   UNL     1      44.133   3.369  10.788  0.00  0.00    +0.000 A 
ATOM     13  F   UNL     1      43.367   2.408  11.319  0.00  0.00    +0.000 F 
ATOM     14  C   UNL     1      44.617   4.387  11.608  0.00  0.00    +0.000 A 
ENDBRANCH   6   8
ENDBRANCH   1   2
BRANCH   1  15
ATOM     15  N   UNL     1      49.099   7.682  15.240  0.00  0.00    +0.000 N 
ATOM     16  H   UNL     1      49.925   8.276  15.277  0.00  0.00    +0.000 HD
BRANCH  15  20
ATOM     17  C   UNL     1      48.856   5.292  18.586  0.00  0.00    +0.000 A 
ATOM     18  C   UNL     1      49.282   4.770  17.373  0.00  0.00    +0.000 A 
ATOM     19  N   UNL     1      49.386   5.523  16.240  0.00  0.00    +0.000 NA
ATOM     20  C   UNL     1      49.068   6.832  16.355  0.00  0.00    +0.000 A 
ATOM     21  C   UNL     1      48.638   7.337  17.593  0.00  0.00    +0.000 A 
ATOM     22  N   UNL     1      48.520   6.601  18.731  0.00  0.00    +0.000 NA
BRANCH  17  24
ATOM     23  N   UNL     1      48.381   3.110  19.525  0.00  0.00    +0.000 N 
ATOM     24  C   UNL     1      48.737   4.408  19.778  0.00  0.00    +0.000 C 
ATOM     25  O   UNL     1      48.953   4.807  20.914  0.00  0.00    +0.000 OA
ATOM     26  H   UNL     1      48.308   2.453  20.289  0.00  0.00    +0.000 HD
ATOM     27  H   UNL     1      48.235   2.801  18.568  0.00  0.00    +0.000 HD
ENDBRANCH  17  24
ENDBRANCH  15  20
ENDBRANCH   1  15
TORSDOF 5
ENDMDL
