MODEL 1
REMARK VINA RESULT:    -6.303      0.000      0.000
REMARK INTER + INTRA:          -9.888
REMARK INTER:                  -8.513
REMARK INTRA:                  -1.375
REMARK UNBOUND:                -1.375
REMARK  Name = 
REMARK  10 active torsions:
REMARK  status: ('A' for Active; 'I' for Inactive)
REMARK    1  A    between atoms: C_1  and  C_2
REMARK    2  A    between atoms: C_2  and  C_3
REMARK    3  A    between atoms: C_2  and  C_4
REMARK    4  A    between atoms: C_2  and  C_5
REMARK    5  A    between atoms: C_9  and  C_10
REMARK    6  A    between atoms: C_10  and  N_11
REMARK    7  A    between atoms: C_15  and  C_16
REMARK    8  A    between atoms: C_16  and  C_17
REMARK    9  A    between atoms: C_20  and  C_21
REMARK   10  A    between atoms: N_23  and  O_24
REMARK                            x       y       z     vdW  Elec       q    Type
REMARK                         _______ _______ _______ _____ _____    ______ ____
ROOT
ATOM      1  C   UNL     1      44.651   3.858  10.716  0.00  0.00    +0.000 A 
ATOM      2  C   UNL     1      44.794   2.372  10.393  0.00  0.00    +0.000 A 
ATOM      3  N   UNL     1      45.399   1.813   9.399  0.00  0.00    +0.000 NA
ATOM      4  C   UNL     1      45.964   2.675   8.523  0.00  0.00    +0.000 A 
ATOM      5  C   UNL     1      46.613   2.417   7.329  0.00  0.00    +0.000 A 
ATOM      6  C   UNL     1      46.937   3.695   6.846  0.00  0.00    +0.000 A 
ATOM      7  N   UNL     1      46.523   4.676   7.639  0.00  0.00    +0.000 NA
ATOM      8  N   UNL     1      45.952   4.060   8.714  0.00  0.00    +0.000 N 
ATOM      9  C   UNL     1      45.330   4.665   9.851  0.00  0.00    +0.000 A 
ENDROOT
BRANCH   1  11
ATOM     10  C   UNL     1      43.119   2.734  12.398  0.00  0.00    +0.000 C 
ATOM     11  C   UNL     1      43.719   4.088  11.929  0.00  0.00    +0.000 C 
ATOM     12  C   UNL     1      42.582   5.063  11.492  0.00  0.00    +0.000 C 
ATOM     13  C   UNL     1      44.322   4.718  13.200  0.00  0.00    +0.000 C 
ENDBRANCH   1  11
BRANCH   5  14
ATOM     14  C   UNL     1      46.873   1.105   6.704  0.00  0.00    +0.000 C 
BRANCH  14  15
ATOM     15  N   UNL     1      47.134   0.133   7.763  0.00  0.00    +0.000 NA
ATOM     16  H   UNL     1      46.451   0.298   8.507  0.00  0.00    +0.000 HD
ATOM     17  H   UNL     1      48.040   0.337   8.176  0.00  0.00    +0.000 HD
ENDBRANCH  14  15
ENDBRANCH   5  14
BRANCH   9  18
ATOM     18  C   UNL     1      45.426   6.196   9.888  0.00  0.00    +0.000 C 
BRANCH  18  19
ATOM     19  C   UNL     1      45.980   6.791  11.177  0.00  0.00    +0.000 A 
ATOM     20  C   UNL     1      45.324   7.854  11.815  0.00  0.00    +0.000 A 
ATOM     21  C   UNL     1      45.930   8.561  12.857  0.00  0.00    +0.000 A 
ATOM     22  C   UNL     1      47.189   8.177  13.333  0.00  0.00    +0.000 A 
ATOM     23  C   UNL     1      47.750   6.998  12.832  0.00  0.00    +0.000 A 
ATOM     24  C   UNL     1      47.173   6.329  11.743  0.00  0.00    +0.000 A 
BRANCH  22  25
ATOM     25  C   UNL     1      47.898   9.068  14.322  0.00  0.00    +0.000 C 
ATOM     26  N   UNL     1      47.529   9.012  15.645  0.00  0.00    +0.000 N 
ATOM     27  N   UNL     1      48.832   9.949  14.061  0.00  0.00    +0.000 NA
ATOM     28  H   UNL     1      47.303   8.098  16.013  0.00  0.00    +0.000 HD
ATOM     29  H   UNL     1      48.167   9.537  16.233  0.00  0.00    +0.000 HD
BRANCH  27  30
ATOM     30  O   UNL     1      49.116  10.109  12.706  0.00  0.00    +0.000 OA
ATOM     31  H   UNL     1      49.346   9.203  12.434  0.00  0.00    +0.000 HD
ENDBRANCH  27  30
ENDBRANCH  22  25
ENDBRANCH  18  19
ENDBRANCH   9  18
TORSDOF 7
ENDMDL
MODEL 2
REMARK VINA RESULT:    -6.010      3.492      8.317
REMARK INTER + INTRA:          -9.493
REMARK INTER:                  -8.104
REMARK INTRA:                  -1.390
REMARK UNBOUND:                -1.375
REMARK  Name = 
REMARK  10 active torsions:
REMARK  status: ('A' for Active; 'I' for Inactive)
REMARK    1  A    between atoms: C_1  and  C_2
REMARK    2  A    between atoms: C_2  and  C_3
REMARK    3  A    between atoms: C_2  and  C_4
REMARK    4  A    between atoms: C_2  and  C_5
REMARK    5  A    between atoms: C_9  and  C_10
REMARK    6  A    between atoms: C_10  and  N_11
REMARK    7  A    between atoms: C_15  and  C_16
REMARK    8  A    between atoms: C_16  and  C_17
REMARK    9  A    between atoms: C_20  and  C_21
REMARK   10  A    between atoms: N_23  and  O_24
REMARK                            x       y       z     vdW  Elec       q    Type
REMARK                         _______ _______ _______ _____ _____    ______ ____
ROOT
ATOM      1  C   UNL     1      48.696   8.988  13.856  0.00  0.00    +0.000 A 
ATOM      2  C   UNL     1      48.967   9.761  15.145  0.00  0.00    +0.000 A 
ATOM      3  N   UNL     1      49.208   9.305  16.328  0.00  0.00    +0.000 NA
ATOM      4  C   UNL     1      49.198   7.956  16.429  0.00  0.00    +0.000 A 
ATOM      5  C   UNL     1      49.342   7.155  17.547  0.00  0.00    +0.000 A 
ATOM      6  C   UNL     1      49.200   5.853  17.042  0.00  0.00    +0.000 A 
ATOM      7  N   UNL     1      48.969   5.820  15.734  0.00  0.00    +0.000 NA
ATOM      8  N   UNL     1      49.009   7.120  15.323  0.00  0.00    +0.000 N 
ATOM      9  C   UNL     1      48.802   7.636  14.006  0.00  0.00    +0.000 A 
ENDROOT
BRANCH   1  11
ATOM     10  C   UNL     1      49.185   9.625  11.449  0.00  0.00    +0.000 C 
ATOM     11  C   UNL     1      48.311   9.936  12.695  0.00  0.00    +0.000 C 
ATOM     12  C   UNL     1      48.543  11.405  13.169  0.00  0.00    +0.000 C 
ATOM     13  C   UNL     1      46.859   9.902  12.181  0.00  0.00    +0.000 C 
ENDBRANCH   1  11
BRANCH   5  14
ATOM     14  C   UNL     1      49.564   7.581  18.943  0.00  0.00    +0.000 C 
BRANCH  14  15
ATOM     15  N   UNL     1      48.516   8.531  19.309  0.00  0.00    +0.000 NA
ATOM     16  H   UNL     1      48.624   9.352  18.708  0.00  0.00    +0.000 HD
ATOM     17  H   UNL     1      48.692   8.860  20.254  0.00  0.00    +0.000 HD
ENDBRANCH  14  15
ENDBRANCH   5  14
BRANCH   9  18
ATOM     18  C   UNL     1      48.619   6.563  12.925  0.00  0.00    +0.000 C 
BRANCH  18  19
ATOM     19  C   UNL     1      47.176   6.204  12.589  0.00  0.00    +0.000 A 
ATOM     20  C   UNL     1      46.360   5.563  13.533  0.00  0.00    +0.000 A 
ATOM     21  C   UNL     1      45.122   5.021  13.174  0.00  0.00    +0.000 A 
ATOM     22  C   UNL     1      44.640   5.166  11.869  0.00  0.00    +0.000 A 
ATOM     23  C   UNL     1      45.361   5.977  10.987  0.00  0.00    +0.000 A 
ATOM     24  C   UNL     1      46.631   6.464  11.328  0.00  0.00    +0.000 A 
BRANCH  22  25
ATOM     25  C   UNL     1      43.398   4.413  11.462  0.00  0.00    +0.000 C 
ATOM     26  N   UNL     1      42.175   5.021  11.617  0.00  0.00    +0.000 N 
ATOM     27  N   UNL     1      43.335   3.190  10.997  0.00  0.00    +0.000 NA
ATOM     28  H   UNL     1      42.134   6.011  11.413  0.00  0.00    +0.000 HD
ATOM     29  H   UNL     1      41.434   4.487  11.177  0.00  0.00    +0.000 HD
BRANCH  27  30
ATOM     30  O   UNL     1      44.556   2.518  10.965  0.00  0.00    +0.000 OA
ATOM     31  H   UNL     1      44.426   1.885  10.238  0.00  0.00    +0.000 HD
ENDBRANCH  27  30
ENDBRANCH  22  25
ENDBRANCH  18  19
ENDBRANCH   9  18
TORSDOF 7
ENDMDL
MODEL 3
REMARK VINA RESULT:    -5.818      3.874      6.081
REMARK INTER + INTRA:          -9.234
REMARK INTER:                  -8.162
REMARK INTRA:                  -1.072
REMARK UNBOUND:                -1.375
REMARK  Name = 
REMARK  10 active torsions:
REMARK  status: ('A' for Active; 'I' for Inactive)
REMARK    1  A    between atoms: C_1  and  C_2
REMARK    2  A    between atoms: C_2  and  C_3
REMARK    3  A    between atoms: C_2  and  C_4
REMARK    4  A    between atoms: C_2  and  C_5
REMARK    5  A    between atoms: C_9  and  C_10
REMARK    6  A    between atoms: C_10  and  N_11
REMARK    7  A    between atoms: C_15  and  C_16
REMARK    8  A    between atoms: C_16  and  C_17
REMARK    9  A    between atoms: C_20  and  C_21
REMARK   10  A    between atoms: N_23  and  O_24
REMARK                            x       y       z     vdW  Elec       q    Type
REMARK                         _______ _______ _______ _____ _____    ______ ____
ROOT
ATOM      1  C   UNL     1      45.028   5.699  11.936  0.00  0.00    +0.000 A 
ATOM      2  C   UNL     1      43.943   6.652  11.441  0.00  0.00    +0.000 A 
ATOM      3  N   UNL     1      43.972   7.939  11.354  0.00  0.00    +0.000 NA
ATOM      4  C   UNL     1      45.120   8.510  11.782  0.00  0.00    +0.000 A 
ATOM      5  C   UNL     1      45.450   9.849  11.895  0.00  0.00    +0.000 A 
ATOM      6  C   UNL     1      46.746   9.827  12.433  0.00  0.00    +0.000 A 
ATOM      7  N   UNL     1      47.198   8.598  12.661  0.00  0.00    +0.000 NA
ATOM      8  N   UNL     1      46.217   7.760  12.219  0.00  0.00    +0.000 N 
ATOM      9  C   UNL     1      46.195   6.331  12.255  0.00  0.00    +0.000 A 
ENDROOT
BRANCH   1  11
ATOM     10  C   UNL     1      43.795   3.871  10.681  0.00  0.00    +0.000 C 
ATOM     11  C   UNL     1      44.516   4.241  12.007  0.00  0.00    +0.000 C 
ATOM     12  C   UNL     1      43.531   4.128  13.211  0.00  0.00    +0.000 C 
ATOM     13  C   UNL     1      45.549   3.118  12.224  0.00  0.00    +0.000 C 
ENDBRANCH   1  11
BRANCH   5  14
ATOM     14  C   UNL     1      44.616  11.018  11.554  0.00  0.00    +0.000 C 
BRANCH  14  15
ATOM     15  N   UNL     1      43.271  10.796  12.081  0.00  0.00    +0.000 NA
ATOM     16  H   UNL     1      42.613  10.949  11.313  0.00  0.00    +0.000 HD
ATOM     17  H   UNL     1      43.066  11.521  12.762  0.00  0.00    +0.000 HD
ENDBRANCH  14  15
ENDBRANCH   5  14
BRANCH   9  18
ATOM     18  C   UNL     1      47.493   5.688  12.759  0.00  0.00    +0.000 C 
BRANCH  18  19
ATOM     19  C   UNL     1      47.596   5.509  14.270  0.00  0.00    +0.000 A 
ATOM     20  C   UNL     1      48.372   6.385  15.043  0.00  0.00    +0.000 A 
ATOM     21  C   UNL     1      48.667   6.108  16.381  0.00  0.00    +0.000 A 
ATOM     22  C   UNL     1      48.136   4.971  16.999  0.00  0.00    +0.000 A 
ATOM     23  C   UNL     1      47.204   4.208  16.287  0.00  0.00    +0.000 A 
ATOM     24  C   UNL     1      46.960   4.451  14.927  0.00  0.00    +0.000 A 
BRANCH  22  25
ATOM     25  C   UNL     1      48.620   4.596  18.377  0.00  0.00    +0.000 C 
ATOM     26  N   UNL     1      49.723   3.782  18.492  0.00  0.00    +0.000 N 
ATOM     27  N   UNL     1      48.077   4.930  19.521  0.00  0.00    +0.000 NA
ATOM     28  H   UNL     1      50.470   3.939  17.828  0.00  0.00    +0.000 HD
ATOM     29  H   UNL     1      50.043   3.720  19.452  0.00  0.00    +0.000 HD
BRANCH  27  30
ATOM     30  O   UNL     1      46.883   5.639  19.411  0.00  0.00    +0.000 OA
ATOM     31  H   UNL     1      47.155   6.543  19.651  0.00  0.00    +0.000 HD
ENDBRANCH  27  30
ENDBRANCH  22  25
ENDBRANCH  18  19
ENDBRANCH   9  18
TORSDOF 7
ENDMDL
MODEL 4
REMARK VINA RESULT:    -5.683      4.047      6.330
REMARK INTER + INTRA:          -9.051
REMARK INTER:                  -7.828
REMARK INTRA:                  -1.223
REMARK UNBOUND:                -1.375
REMARK  Name = 
REMARK  10 active torsions:
REMARK  status: ('A' for Active; 'I' for Inactive)
REMARK    1  A    between atoms: C_1  and  C_2
REMARK    2  A    between atoms: C_2  and  C_3
REMARK    3  A    between atoms: C_2  and  C_4
REMARK    4  A    between atoms: C_2  and  C_5
REMARK    5  A    between atoms: C_9  and  C_10
REMARK    6  A    between atoms: C_10  and  N_11
REMARK    7  A    between atoms: C_15  and  C_16
REMARK    8  A    between atoms: C_16  and  C_17
REMARK    9  A    between atoms: C_20  and  C_21
REMARK   10  A    between atoms: N_23  and  O_24
REMARK                            x       y       z     vdW  Elec       q    Type
REMARK                         _______ _______ _______ _____ _____    ______ ____
ROOT
ATOM      1  C   UNL     1      46.978   7.858  12.708  0.00  0.00    +0.000 A 
ATOM      2  C   UNL     1      45.613   8.194  12.113  0.00  0.00    +0.000 A 
ATOM      3  N   UNL     1      44.614   7.410  11.882  0.00  0.00    +0.000 NA
ATOM      4  C   UNL     1      44.826   6.113  12.199  0.00  0.00    +0.000 A 
ATOM      5  C   UNL     1      44.007   5.014  12.012  0.00  0.00    +0.000 A 
ATOM      6  C   UNL     1      44.776   3.942  12.491  0.00  0.00    +0.000 A 
ATOM      7  N   UNL     1      45.976   4.310  12.925  0.00  0.00    +0.000 NA
ATOM      8  N   UNL     1      46.012   5.667  12.794  0.00  0.00    +0.000 N 
ATOM      9  C   UNL     1      47.089   6.556  13.100  0.00  0.00    +0.000 A 
ENDROOT
BRANCH   1  11
ATOM     10  C   UNL     1      47.176  10.317  12.117  0.00  0.00    +0.000 C 
ATOM     11  C   UNL     1      47.930   9.078  12.673  0.00  0.00    +0.000 C 
ATOM     12  C   UNL     1      49.143   8.723  11.758  0.00  0.00    +0.000 C 
ATOM     13  C   UNL     1      48.551   9.552  14.001  0.00  0.00    +0.000 C 
ENDBRANCH   1  11
BRANCH   5  14
ATOM     14  C   UNL     1      42.655   4.984  11.421  0.00  0.00    +0.000 C 
BRANCH  14  15
ATOM     15  N   UNL     1      41.968   6.225  11.774  0.00  0.00    +0.000 NA
ATOM     16  H   UNL     1      41.590   6.108  12.718  0.00  0.00    +0.000 HD
ATOM     17  H   UNL     1      41.158   6.331  11.169  0.00  0.00    +0.000 HD
ENDBRANCH  14  15
ENDBRANCH   5  14
BRANCH   9  18
ATOM     18  C   UNL     1      48.302   5.882  13.754  0.00  0.00    +0.000 C 
BRANCH  18  19
ATOM     19  C   UNL     1      48.240   5.743  15.271  0.00  0.00    +0.000 A 
ATOM     20  C   UNL     1      48.839   6.701  16.102  0.00  0.00    +0.000 A 
ATOM     21  C   UNL     1      48.997   6.477  17.473  0.00  0.00    +0.000 A 
ATOM     22  C   UNL     1      48.496   5.310  18.060  0.00  0.00    +0.000 A 
ATOM     23  C   UNL     1      47.725   4.453  17.267  0.00  0.00    +0.000 A 
ATOM     24  C   UNL     1      47.625   4.646  15.882  0.00  0.00    +0.000 A 
BRANCH  22  25
ATOM     25  C   UNL     1      48.844   5.007  19.495  0.00  0.00    +0.000 C 
ATOM     26  N   UNL     1      50.019   4.346  19.766  0.00  0.00    +0.000 N 
ATOM     27  N   UNL     1      48.120   5.272  20.555  0.00  0.00    +0.000 NA
ATOM     28  H   UNL     1      50.818   4.596  19.200  0.00  0.00    +0.000 HD
ATOM     29  H   UNL     1      50.218   4.330  20.761  0.00  0.00    +0.000 HD
BRANCH  27  30
ATOM     30  O   UNL     1      46.868   5.819  20.279  0.00  0.00    +0.000 OA
ATOM     31  H   UNL     1      47.002   6.212  19.399  0.00  0.00    +0.000 HD
ENDBRANCH  27  30
ENDBRANCH  22  25
ENDBRANCH  18  19
ENDBRANCH   9  18
TORSDOF 7
ENDMDL
MODEL 5
REMARK VINA RESULT:    -5.660      4.294      6.723
REMARK INTER + INTRA:          -9.020
REMARK INTER:                  -7.650
REMARK INTRA:                  -1.370
REMARK UNBOUND:                -1.375
REMARK  Name = 
REMARK  10 active torsions:
REMARK  status: ('A' for Active; 'I' for Inactive)
REMARK    1  A    between atoms: C_1  and  C_2
REMARK    2  A    between atoms: C_2  and  C_3
REMARK    3  A    between atoms: C_2  and  C_4
REMARK    4  A    between atoms: C_2  and  C_5
REMARK    5  A    between atoms: C_9  and  C_10
REMARK    6  A    between atoms: C_10  and  N_11
REMARK    7  A    between atoms: C_15  and  C_16
REMARK    8  A    between atoms: C_16  and  C_17
REMARK    9  A    between atoms: C_20  and  C_21
REMARK   10  A    between atoms: N_23  and  O_24
REMARK                            x       y       z     vdW  Elec       q    Type
REMARK                         _______ _______ _______ _____ _____    ______ ____
ROOT
ATOM      1  C   UNL     1      47.465   8.619  12.850  0.00  0.00    +0.000 A 
ATOM      2  C   UNL     1      46.027   8.495  12.349  0.00  0.00    +0.000 A 
ATOM      3  N   UNL     1      45.235   7.477  12.401  0.00  0.00    +0.000 NA
ATOM      4  C   UNL     1      45.772   6.370  12.963  0.00  0.00    +0.000 A 
ATOM      5  C   UNL     1      45.232   5.105  13.106  0.00  0.00    +0.000 A 
ATOM      6  C   UNL     1      46.263   4.372  13.716  0.00  0.00    +0.000 A 
ATOM      7  N   UNL     1      47.361   5.089  13.928  0.00  0.00    +0.000 NA
ATOM      8  N   UNL     1      47.061   6.350  13.506  0.00  0.00    +0.000 N 
ATOM      9  C   UNL     1      47.908   7.502  13.496  0.00  0.00    +0.000 A 
ENDROOT
BRANCH   1  11
ATOM     10  C   UNL     1      47.010  10.883  11.798  0.00  0.00    +0.000 C 
ATOM     11  C   UNL     1      48.090   9.977  12.451  0.00  0.00    +0.000 C 
ATOM     12  C   UNL     1      49.250   9.702  11.444  0.00  0.00    +0.000 C 
ATOM     13  C   UNL     1      48.717  10.842  13.562  0.00  0.00    +0.000 C 
ENDBRANCH   1  11
BRANCH   5  14
ATOM     14  C   UNL     1      43.897   4.638  12.686  0.00  0.00    +0.000 C 
BRANCH  14  15
ATOM     15  N   UNL     1      42.892   5.526  13.267  0.00  0.00    +0.000 NA
ATOM     16  H   UNL     1      43.386   6.206  13.851  0.00  0.00    +0.000 HD
ATOM     17  H   UNL     1      42.314   4.987  13.906  0.00  0.00    +0.000 HD
ENDBRANCH  14  15
ENDBRANCH   5  14
BRANCH   9  18
ATOM     18  C   UNL     1      49.282   7.287  14.143  0.00  0.00    +0.000 C 
BRANCH  18  19
ATOM     19  C   UNL     1      49.298   7.268  15.667  0.00  0.00    +0.000 A 
ATOM     20  C   UNL     1      49.939   6.233  16.364  0.00  0.00    +0.000 A 
ATOM     21  C   UNL     1      49.770   6.070  17.741  0.00  0.00    +0.000 A 
ATOM     22  C   UNL     1      49.001   6.983  18.471  0.00  0.00    +0.000 A 
ATOM     23  C   UNL     1      48.530   8.122  17.811  0.00  0.00    +0.000 A 
ATOM     24  C   UNL     1      48.645   8.250  16.419  0.00  0.00    +0.000 A 
BRANCH  22  25
ATOM     25  C   UNL     1      48.680   6.679  19.913  0.00  0.00    +0.000 C 
ATOM     26  N   UNL     1      49.582   7.047  20.883  0.00  0.00    +0.000 N 
ATOM     27  N   UNL     1      47.625   6.050  20.370  0.00  0.00    +0.000 NA
ATOM     28  H   UNL     1      50.052   7.932  20.751  0.00  0.00    +0.000 HD
ATOM     29  H   UNL     1      49.198   6.929  21.814  0.00  0.00    +0.000 HD
BRANCH  27  30
ATOM     30  O   UNL     1      46.773   5.555  19.384  0.00  0.00    +0.000 OA
ATOM     31  H   UNL     1      46.358   4.797  19.831  0.00  0.00    +0.000 HD
ENDBRANCH  27  30
ENDBRANCH  22  25
ENDBRANCH  18  19
ENDBRANCH   9  18
TORSDOF 7
ENDMDL
MODEL 6
REMARK VINA RESULT:    -5.580      3.582      5.822
REMARK INTER + INTRA:          -8.912
REMARK INTER:                  -7.229
REMARK INTRA:                  -1.683
REMARK UNBOUND:                -1.375
REMARK  Name = 
REMARK  10 active torsions:
REMARK  status: ('A' for Active; 'I' for Inactive)
REMARK    1  A    between atoms: C_1  and  C_2
REMARK    2  A    between atoms: C_2  and  C_3
REMARK    3  A    between atoms: C_2  and  C_4
REMARK    4  A    between atoms: C_2  and  C_5
REMARK    5  A    between atoms: C_9  and  C_10
REMARK    6  A    between atoms: C_10  and  N_11
REMARK    7  A    between atoms: C_15  and  C_16
REMARK    8  A    between atoms: C_16  and  C_17
REMARK    9  A    between atoms: C_20  and  C_21
REMARK   10  A    between atoms: N_23  and  O_24
REMARK                            x       y       z     vdW  Elec       q    Type
REMARK                         _______ _______ _______ _____ _____    ______ ____
ROOT
ATOM      1  C   UNL     1      47.827   6.661  14.358  0.00  0.00    +0.000 A 
ATOM      2  C   UNL     1      47.264   5.277  14.677  0.00  0.00    +0.000 A 
ATOM      3  N   UNL     1      46.291   4.647  14.109  0.00  0.00    +0.000 NA
ATOM      4  C   UNL     1      45.685   5.325  13.108  0.00  0.00    +0.000 A 
ATOM      5  C   UNL     1      44.579   4.978  12.353  0.00  0.00    +0.000 A 
ATOM      6  C   UNL     1      44.394   6.085  11.510  0.00  0.00    +0.000 A 
ATOM      7  N   UNL     1      45.279   7.055  11.714  0.00  0.00    +0.000 NA
ATOM      8  N   UNL     1      46.122   6.582  12.677  0.00  0.00    +0.000 N 
ATOM      9  C   UNL     1      47.239   7.245  13.275  0.00  0.00    +0.000 A 
ENDROOT
BRANCH   1  11
ATOM     10  C   UNL     1      49.011   6.019  16.509  0.00  0.00    +0.000 C 
ATOM     11  C   UNL     1      48.902   7.087  15.386  0.00  0.00    +0.000 C 
ATOM     12  C   UNL     1      48.483   8.465  15.986  0.00  0.00    +0.000 C 
ATOM     13  C   UNL     1      50.346   7.287  14.886  0.00  0.00    +0.000 C 
ENDBRANCH   1  11
BRANCH   5  14
ATOM     14  C   UNL     1      43.774   3.745  12.440  0.00  0.00    +0.000 C 
BRANCH  14  15
ATOM     15  N   UNL     1      44.681   2.599  12.435  0.00  0.00    +0.000 NA
ATOM     16  H   UNL     1      45.636   2.964  12.408  0.00  0.00    +0.000 HD
ATOM     17  H   UNL     1      44.559   2.092  11.563  0.00  0.00    +0.000 HD
ENDBRANCH  14  15
ENDBRANCH   5  14
BRANCH   9  18
ATOM     18  C   UNL     1      47.569   8.612  12.662  0.00  0.00    +0.000 C 
BRANCH  18  19
ATOM     19  C   UNL     1      48.965   8.747  12.065  0.00  0.00    +0.000 A 
ATOM     20  C   UNL     1      49.535   7.696  11.333  0.00  0.00    +0.000 A 
ATOM     21  C   UNL     1      50.887   7.706  10.978  0.00  0.00    +0.000 A 
ATOM     22  C   UNL     1      51.691   8.807  11.294  0.00  0.00    +0.000 A 
ATOM     23  C   UNL     1      51.075   9.936  11.844  0.00  0.00    +0.000 A 
ATOM     24  C   UNL     1      49.736   9.898  12.258  0.00  0.00    +0.000 A 
BRANCH  22  25
ATOM     25  C   UNL     1      53.179   8.712  11.071  0.00  0.00    +0.000 C 
ATOM     26  N   UNL     1      53.696   9.128   9.866  0.00  0.00    +0.000 N 
ATOM     27  N   UNL     1      54.072   8.228  11.899  0.00  0.00    +0.000 NA
ATOM     28  H   UNL     1      53.276   9.951   9.455  0.00  0.00    +0.000 HD
ATOM     29  H   UNL     1      54.709   9.157   9.884  0.00  0.00    +0.000 HD
BRANCH  27  30
ATOM     30  O   UNL     1      53.542   7.680  13.066  0.00  0.00    +0.000 OA
ATOM     31  H   UNL     1      52.635   7.453  12.796  0.00  0.00    +0.000 HD
ENDBRANCH  27  30
ENDBRANCH  22  25
ENDBRANCH  18  19
ENDBRANCH   9  18
TORSDOF 7
ENDMDL
MODEL 7
REMARK VINA RESULT:    -5.424      4.084      7.490
REMARK INTER + INTRA:          -8.702
REMARK INTER:                  -7.966
REMARK INTRA:                  -0.735
REMARK UNBOUND:                -1.375
REMARK  Name = 
REMARK  10 active torsions:
REMARK  status: ('A' for Active; 'I' for Inactive)
REMARK    1  A    between atoms: C_1  and  C_2
REMARK    2  A    between atoms: C_2  and  C_3
REMARK    3  A    between atoms: C_2  and  C_4
REMARK    4  A    between atoms: C_2  and  C_5
REMARK    5  A    between atoms: C_9  and  C_10
REMARK    6  A    between atoms: C_10  and  N_11
REMARK    7  A    between atoms: C_15  and  C_16
REMARK    8  A    between atoms: C_16  and  C_17
REMARK    9  A    between atoms: C_20  and  C_21
REMARK   10  A    between atoms: N_23  and  O_24
REMARK                            x       y       z     vdW  Elec       q    Type
REMARK                         _______ _______ _______ _____ _____    ______ ____
ROOT
ATOM      1  C   UNL     1      49.594   7.998  14.823  0.00  0.00    +0.000 A 
ATOM      2  C   UNL     1      49.655   7.669  16.313  0.00  0.00    +0.000 A 
ATOM      3  N   UNL     1      49.162   6.655  16.941  0.00  0.00    +0.000 NA
ATOM      4  C   UNL     1      48.485   5.781  16.162  0.00  0.00    +0.000 A 
ATOM      5  C   UNL     1      47.780   4.646  16.519  0.00  0.00    +0.000 A 
ATOM      6  C   UNL     1      47.261   4.181  15.300  0.00  0.00    +0.000 A 
ATOM      7  N   UNL     1      47.585   4.949  14.266  0.00  0.00    +0.000 NA
ATOM      8  N   UNL     1      48.386   5.929  14.775  0.00  0.00    +0.000 N 
ATOM      9  C   UNL     1      48.987   7.026  14.082  0.00  0.00    +0.000 A 
ENDROOT
BRANCH   1  11
ATOM     10  C   UNL     1      50.850   9.970  15.807  0.00  0.00    +0.000 C 
ATOM     11  C   UNL     1      50.194   9.392  14.523  0.00  0.00    +0.000 C 
ATOM     12  C   UNL     1      49.042  10.324  14.034  0.00  0.00    +0.000 C 
ATOM     13  C   UNL     1      51.284   9.495  13.438  0.00  0.00    +0.000 C 
ENDBRANCH   1  11
BRANCH   5  14
ATOM     14  C   UNL     1      47.598   4.081  17.870  0.00  0.00    +0.000 C 
BRANCH  14  15
ATOM     15  N   UNL     1      46.765   2.885  17.763  0.00  0.00    +0.000 NA
ATOM     16  H   UNL     1      47.197   2.272  17.067  0.00  0.00    +0.000 HD
ATOM     17  H   UNL     1      45.866   3.150  17.372  0.00  0.00    +0.000 HD
ENDBRANCH  14  15
ENDBRANCH   5  14
BRANCH   9  18
ATOM     18  C   UNL     1      48.774   7.012  12.563  0.00  0.00    +0.000 C 
BRANCH  18  19
ATOM     19  C   UNL     1      47.323   7.095  12.100  0.00  0.00    +0.000 A 
ATOM     20  C   UNL     1      46.428   7.985  12.710  0.00  0.00    +0.000 A 
ATOM     21  C   UNL     1      45.053   7.916  12.465  0.00  0.00    +0.000 A 
ATOM     22  C   UNL     1      44.546   6.988  11.548  0.00  0.00    +0.000 A 
ATOM     23  C   UNL     1      45.458   6.240  10.796  0.00  0.00    +0.000 A 
ATOM     24  C   UNL     1      46.829   6.265  11.089  0.00  0.00    +0.000 A 
BRANCH  22  25
ATOM     25  C   UNL     1      43.053   6.806  11.445  0.00  0.00    +0.000 C 
ATOM     26  N   UNL     1      42.285   7.862  11.014  0.00  0.00    +0.000 N 
ATOM     27  N   UNL     1      42.365   5.737  11.763  0.00  0.00    +0.000 NA
ATOM     28  H   UNL     1      42.676   8.432  10.276  0.00  0.00    +0.000 HD
ATOM     29  H   UNL     1      41.326   7.581  10.843  0.00  0.00    +0.000 HD
BRANCH  27  30
ATOM     30  O   UNL     1      43.119   4.710  12.328  0.00  0.00    +0.000 OA
ATOM     31  H   UNL     1      43.907   5.183  12.651  0.00  0.00    +0.000 HD
ENDBRANCH  27  30
ENDBRANCH  22  25
ENDBRANCH  18  19
ENDBRANCH   9  18
TORSDOF 7
ENDMDL
MODEL 8
REMARK VINA RESULT:    -5.066      3.604      8.518
REMARK INTER + INTRA:          -8.218
REMARK INTER:                  -6.767
REMARK INTRA:                  -1.451
REMARK UNBOUND:                -1.375
REMARK  Name = 
REMARK  10 active torsions:
REMARK  status: ('A' for Active; 'I' for Inactive)
REMARK    1  A    between atoms: C_1  and  C_2
REMARK    2  A    between atoms: C_2  and  C_3
REMARK    3  A    between atoms: C_2  and  C_4
REMARK    4  A    between atoms: C_2  and  C_5
REMARK    5  A    between atoms: C_9  and  C_10
REMARK    6  A    between atoms: C_10  and  N_11
REMARK    7  A    between atoms: C_15  and  C_16
REMARK    8  A    between atoms: C_16  and  C_17
REMARK    9  A    between atoms: C_20  and  C_21
REMARK   10  A    between atoms: N_23  and  O_24
REMARK                            x       y       z     vdW  Elec       q    Type
REMARK                         _______ _______ _______ _____ _____    ______ ____
ROOT
ATOM      1  C   UNL     1      50.168   8.287  13.477  0.00  0.00    +0.000 A 
ATOM      2  C   UNL     1      51.552   8.150  14.109  0.00  0.00    +0.000 A 
ATOM      3  N   UNL     1      51.862   7.849  15.325  0.00  0.00    +0.000 NA
ATOM      4  C   UNL     1      50.806   7.649  16.146  0.00  0.00    +0.000 A 
ATOM      5  C   UNL     1      50.784   7.390  17.505  0.00  0.00    +0.000 A 
ATOM      6  C   UNL     1      49.414   7.323  17.806  0.00  0.00    +0.000 A 
ATOM      7  N   UNL     1      48.634   7.535  16.752  0.00  0.00    +0.000 NA
ATOM      8  N   UNL     1      49.483   7.696  15.696  0.00  0.00    +0.000 N 
ATOM      9  C   UNL     1      49.153   7.972  14.332  0.00  0.00    +0.000 A 
ENDROOT
BRANCH   1  11
ATOM     10  C   UNL     1      49.973   7.645  11.031  0.00  0.00    +0.000 C 
ATOM     11  C   UNL     1      50.256   8.807  12.023  0.00  0.00    +0.000 C 
ATOM     12  C   UNL     1      51.690   9.378  11.795  0.00  0.00    +0.000 C 
ATOM     13  C   UNL     1      49.300   9.937  11.596  0.00  0.00    +0.000 C 
ENDBRANCH   1  11
BRANCH   5  14
ATOM     14  C   UNL     1      51.934   7.248  18.418  0.00  0.00    +0.000 C 
BRANCH  14  15
ATOM     15  N   UNL     1      52.995   6.527  17.718  0.00  0.00    +0.000 NA
ATOM     16  H   UNL     1      53.260   7.087  16.904  0.00  0.00    +0.000 HD
ATOM     17  H   UNL     1      52.608   5.667  17.341  0.00  0.00    +0.000 HD
ENDBRANCH  14  15
ENDBRANCH   5  14
BRANCH   9  18
ATOM     18  C   UNL     1      47.649   7.976  14.031  0.00  0.00    +0.000 C 
BRANCH  18  19
ATOM     19  C   UNL     1      47.104   6.711  13.377  0.00  0.00    +0.000 A 
ATOM     20  C   UNL     1      46.378   6.782  12.178  0.00  0.00    +0.000 A 
ATOM     21  C   UNL     1      45.677   5.676  11.687  0.00  0.00    +0.000 A 
ATOM     22  C   UNL     1      45.740   4.448  12.354  0.00  0.00    +0.000 A 
ATOM     23  C   UNL     1      46.622   4.329  13.433  0.00  0.00    +0.000 A 
ATOM     24  C   UNL     1      47.272   5.453  13.962  0.00  0.00    +0.000 A 
BRANCH  22  25
ATOM     25  C   UNL     1      44.829   3.331  11.913  0.00  0.00    +0.000 C 
ATOM     26  N   UNL     1      45.109   2.674  10.737  0.00  0.00    +0.000 N 
ATOM     27  N   UNL     1      43.740   2.917  12.513  0.00  0.00    +0.000 NA
ATOM     28  H   UNL     1      46.085   2.503  10.537  0.00  0.00    +0.000 HD
ATOM     29  H   UNL     1      44.523   1.854  10.619  0.00  0.00    +0.000 HD
BRANCH  27  30
ATOM     30  O   UNL     1      43.374   3.666  13.630  0.00  0.00    +0.000 OA
ATOM     31  H   UNL     1      43.703   4.554  13.402  0.00  0.00    +0.000 HD
ENDBRANCH  27  30
ENDBRANCH  22  25
ENDBRANCH  18  19
ENDBRANCH   9  18
TORSDOF 7
ENDMDL
MODEL 9
REMARK VINA RESULT:    -4.532      9.964     10.837
REMARK INTER + INTRA:          -7.497
REMARK INTER:                  -6.267
REMARK INTRA:                  -1.230
REMARK UNBOUND:                -1.375
REMARK  Name = 
REMARK  10 active torsions:
REMARK  status: ('A' for Active; 'I' for Inactive)
REMARK    1  A    between atoms: C_1  and  C_2
REMARK    2  A    between atoms: C_2  and  C_3
REMARK    3  A    between atoms: C_2  and  C_4
REMARK    4  A    between atoms: C_2  and  C_5
REMARK    5  A    between atoms: C_9  and  C_10
REMARK    6  A    between atoms: C_10  and  N_11
REMARK    7  A    between atoms: C_15  and  C_16
REMARK    8  A    between atoms: C_16  and  C_17
REMARK    9  A    between atoms: C_20  and  C_21
REMARK   10  A    between atoms: N_23  and  O_24
REMARK                            x       y       z     vdW  Elec       q    Type
REMARK                         _______ _______ _______ _____ _____    ______ ____
ROOT
ATOM      1  C   UNL     1      39.163  -2.604  13.005  0.00  0.00    +0.000 A 
ATOM      2  C   UNL     1      39.655  -2.713  11.563  0.00  0.00    +0.000 A 
ATOM      3  N   UNL     1      39.048  -2.384  10.472  0.00  0.00    +0.000 NA
ATOM      4  C   UNL     1      37.799  -1.894  10.644  0.00  0.00    +0.000 A 
ATOM      5  C   UNL     1      36.861  -1.523   9.698  0.00  0.00    +0.000 A 
ATOM      6  C   UNL     1      35.750  -1.139  10.467  0.00  0.00    +0.000 A 
ATOM      7  N   UNL     1      35.947  -1.268  11.774  0.00  0.00    +0.000 NA
ATOM      8  N   UNL     1      37.236  -1.695  11.909  0.00  0.00    +0.000 N 
ATOM      9  C   UNL     1      37.941  -2.008  13.113  0.00  0.00    +0.000 A 
ENDROOT
BRANCH   1  11
ATOM     10  C   UNL     1      41.439  -3.701  13.238  0.00  0.00    +0.000 C 
ATOM     11  C   UNL     1      40.160  -3.251  13.996  0.00  0.00    +0.000 C 
ATOM     12  C   UNL     1      39.460  -4.479  14.658  0.00  0.00    +0.000 C 
ATOM     13  C   UNL     1      40.673  -2.397  15.171  0.00  0.00    +0.000 C 
ENDBRANCH   1  11
BRANCH   5  14
ATOM     14  C   UNL     1      36.995  -1.553   8.229  0.00  0.00    +0.000 C 
BRANCH  14  15
ATOM     15  N   UNL     1      37.637  -2.811   7.850  0.00  0.00    +0.000 NA
ATOM     16  H   UNL     1      37.416  -2.983   6.866  0.00  0.00    +0.000 HD
ATOM     17  H   UNL     1      37.195  -3.568   8.364  0.00  0.00    +0.000 HD
ENDBRANCH  14  15
ENDBRANCH   5  14
BRANCH   9  18
ATOM     18  C   UNL     1      37.160  -1.716  14.401  0.00  0.00    +0.000 C 
BRANCH  18  19
ATOM     19  C   UNL     1      37.416  -0.352  15.032  0.00  0.00    +0.000 A 
ATOM     20  C   UNL     1      38.193  -0.236  16.193  0.00  0.00    +0.000 A 
ATOM     21  C   UNL     1      38.249   0.961  16.915  0.00  0.00    +0.000 A 
ATOM     22  C   UNL     1      37.575   2.096  16.451  0.00  0.00    +0.000 A 
ATOM     23  C   UNL     1      36.967   2.033  15.193  0.00  0.00    +0.000 A 
ATOM     24  C   UNL     1      36.857   0.817  14.504  0.00  0.00    +0.000 A 
BRANCH  22  25
ATOM     25  C   UNL     1      37.495   3.311  17.340  0.00  0.00    +0.000 C 
ATOM     26  N   UNL     1      36.284   3.643  17.900  0.00  0.00    +0.000 N 
ATOM     27  N   UNL     1      38.465   4.144  17.626  0.00  0.00    +0.000 NA
ATOM     28  H   UNL     1      35.705   2.875  18.211  0.00  0.00    +0.000 HD
ATOM     29  H   UNL     1      36.381   4.381  18.589  0.00  0.00    +0.000 HD
BRANCH  27  30
ATOM     30  O   UNL     1      39.661   3.893  16.955  0.00  0.00    +0.000 OA
ATOM     31  H   UNL     1      39.420   3.152  16.371  0.00  0.00    +0.000 HD
ENDBRANCH  27  30
ENDBRANCH  22  25
ENDBRANCH  18  19
ENDBRANCH   9  18
TORSDOF 7
ENDMDL
