MODEL 1
REMARK VINA RESULT:    -8.194      0.000      0.000
REMARK INTER + INTRA:         -12.085
REMARK INTER:                 -11.069
REMARK INTRA:                  -1.016
REMARK UNBOUND:                -1.016
REMARK  Name = 
REMARK  7 active torsions:
REMARK  status: ('A' for Active; 'I' for Inactive)
REMARK    1  A    between atoms: C_1  and  C_2
REMARK    2  A    between atoms: C_2  and  N_3
REMARK    3  A    between atoms: C_2  and  C_12
REMARK    4  A    between atoms: C_4  and  C_6
REMARK    5  A    between atoms: C_15  and  C_16
REMARK    6  A    between atoms: C_16  and  N_17
REMARK    7  A    between atoms: C_18  and  C_20
REMARK                            x       y       z     vdW  Elec       q    Type
REMARK                         _______ _______ _______ _____ _____    ______ ____
ROOT
ATOM      1  C   UNL     1      47.087   5.756  13.718  0.00  0.00    +0.000 A 
ATOM      2  C   UNL     1      47.927   6.269  14.711  0.00  0.00    +0.000 A 
ATOM      3  C   UNL     1      48.161   5.539  15.879  0.00  0.00    +0.000 A 
ATOM      4  C   UNL     1      47.563   4.289  16.026  0.00  0.00    +0.000 A 
ATOM      5  N   UNL     1      46.778   3.751  15.060  0.00  0.00    +0.000 NA
ATOM      6  C   UNL     1      46.569   4.486  13.941  0.00  0.00    +0.000 A 
ENDROOT
BRANCH   1   8
ATOM      7  C   UNL     1      47.966   7.392  12.028  0.00  0.00    +0.000 C 
ATOM      8  C   UNL     1      46.768   6.552  12.469  0.00  0.00    +0.000 C 
BRANCH   8   9
ATOM      9  N   UNL     1      46.326   5.706  11.370  0.00  0.00    +0.000 N 
ATOM     10  C   UNL     1      45.019   5.637  10.942  0.00  0.00    +0.000 C 
ATOM     11  O   UNL     1      44.109   6.305  11.423  0.00  0.00    +0.000 OA
ATOM     12  H   UNL     1      46.967   5.052  10.929  0.00  0.00    +0.000 HD
BRANCH  10  13
ATOM     13  C   UNL     1      44.782   4.617   9.804  0.00  0.00    +0.000 C 
ATOM     14  C   UNL     1      44.855   3.184  10.343  0.00  0.00    +0.000 C 
ATOM     15  C   UNL     1      44.695   2.157   9.221  0.00  0.00    +0.000 C 
ATOM     16  C   UNL     1      45.660   2.446   8.075  0.00  0.00    +0.000 C 
ATOM     17  C   UNL     1      45.558   3.899   7.620  0.00  0.00    +0.000 C 
ATOM     18  N   UNL     1      45.797   4.821   8.734  0.00  0.00    +0.000 NA
ATOM     19  H   UNL     1      45.696   5.778   8.389  0.00  0.00    +0.000 HD
ENDBRANCH  10  13
ENDBRANCH   8   9
ENDBRANCH   1   8
BRANCH   4  20
ATOM     20  C   UNL     1      47.698   3.516  17.320  0.00  0.00    +0.000 C 
BRANCH  20  21
ATOM     21  N   UNL     1      49.091   3.281  17.642  0.00  0.00    +0.000 N 
ATOM     22  C   UNL     1      49.861   2.367  16.973  0.00  0.00    +0.000 C 
ATOM     23  O   UNL     1      49.428   1.728  16.016  0.00  0.00    +0.000 OA
ATOM     24  H   UNL     1      49.386   3.609  18.559  0.00  0.00    +0.000 HD
BRANCH  22  25
ATOM     25  C   UNL     1      51.258   2.238  17.406  0.00  0.00    +0.000 A 
ATOM     26  C   UNL     1      51.808   0.978  17.591  0.00  0.00    +0.000 A 
ATOM     27  S   UNL     1      53.442   1.005  18.080  0.00  0.00    +0.000 S 
ATOM     28  C   UNL     1      53.462   2.706  18.104  0.00  0.00    +0.000 A 
ATOM     29  N   UNL     1      54.577   3.390  18.484  0.00  0.00    +0.000 NA
ATOM     30  C   UNL     1      54.444   4.672  18.480  0.00  0.00    +0.000 A 
ATOM     31  N   UNL     1      53.299   5.337  18.121  0.00  0.00    +0.000 N 
ATOM     32  C   UNL     1      52.163   4.690  17.693  0.00  0.00    +0.000 A 
ATOM     33  O   UNL     1      51.180   5.317  17.321  0.00  0.00    +0.000 OA
ATOM     34  C   UNL     1      52.249   3.245  17.711  0.00  0.00    +0.000 A 
ATOM     35  H   UNL     1      53.266   6.345  18.118  0.00  0.00    +0.000 HD
ENDBRANCH  22  25
ENDBRANCH  20  21
ENDBRANCH   4  20
TORSDOF 6
ENDMDL
MODEL 2
REMARK VINA RESULT:    -8.110      1.892      3.266
REMARK INTER + INTRA:         -11.971
REMARK INTER:                 -11.911
REMARK INTRA:                  -0.060
REMARK UNBOUND:                -1.016
REMARK  Name = 
REMARK  7 active torsions:
REMARK  status: ('A' for Active; 'I' for Inactive)
REMARK    1  A    between atoms: C_1  and  C_2
REMARK    2  A    between atoms: C_2  and  N_3
REMARK    3  A    between atoms: C_2  and  C_12
REMARK    4  A    between atoms: C_4  and  C_6
REMARK    5  A    between atoms: C_15  and  C_16
REMARK    6  A    between atoms: C_16  and  N_17
REMARK    7  A    between atoms: C_18  and  C_20
REMARK                            x       y       z     vdW  Elec       q    Type
REMARK                         _______ _______ _______ _____ _____    ______ ____
ROOT
ATOM      1  C   UNL     1      45.747   4.234  12.678  0.00  0.00    +0.000 A 
ATOM      2  C   UNL     1      45.735   5.601  12.383  0.00  0.00    +0.000 A 
ATOM      3  C   UNL     1      46.570   6.476  13.081  0.00  0.00    +0.000 A 
ATOM      4  C   UNL     1      47.424   5.963  14.056  0.00  0.00    +0.000 A 
ATOM      5  N   UNL     1      47.484   4.637  14.331  0.00  0.00    +0.000 NA
ATOM      6  C   UNL     1      46.660   3.815  13.638  0.00  0.00    +0.000 A 
ENDROOT
BRANCH   1   8
ATOM      7  C   UNL     1      43.386   3.825  11.925  0.00  0.00    +0.000 C 
ATOM      8  C   UNL     1      44.809   3.271  11.979  0.00  0.00    +0.000 C 
BRANCH   8   9
ATOM      9  N   UNL     1      45.260   2.936  10.636  0.00  0.00    +0.000 N 
ATOM     10  C   UNL     1      44.775   3.542   9.497  0.00  0.00    +0.000 C 
ATOM     11  O   UNL     1      43.942   4.444   9.508  0.00  0.00    +0.000 OA
ATOM     12  H   UNL     1      45.898   2.160  10.481  0.00  0.00    +0.000 HD
BRANCH  10  13
ATOM     13  C   UNL     1      45.356   2.969   8.183  0.00  0.00    +0.000 C 
ATOM     14  C   UNL     1      46.113   1.666   8.453  0.00  0.00    +0.000 C 
ATOM     15  C   UNL     1      46.757   1.120   7.178  0.00  0.00    +0.000 C 
ATOM     16  C   UNL     1      47.587   2.194   6.482  0.00  0.00    +0.000 C 
ATOM     17  C   UNL     1      46.779   3.473   6.284  0.00  0.00    +0.000 C 
ATOM     18  N   UNL     1      46.260   3.975   7.559  0.00  0.00    +0.000 NA
ATOM     19  H   UNL     1      45.708   4.816   7.375  0.00  0.00    +0.000 HD
ENDBRANCH  10  13
ENDBRANCH   8   9
ENDBRANCH   1   8
BRANCH   4  20
ATOM     20  C   UNL     1      48.261   6.888  14.913  0.00  0.00    +0.000 C 
BRANCH  20  21
ATOM     21  N   UNL     1      49.349   6.169  15.544  0.00  0.00    +0.000 N 
ATOM     22  C   UNL     1      49.310   5.768  16.854  0.00  0.00    +0.000 C 
ATOM     23  O   UNL     1      48.319   5.948  17.559  0.00  0.00    +0.000 OA
ATOM     24  H   UNL     1      50.245   6.228  15.065  0.00  0.00    +0.000 HD
BRANCH  22  25
ATOM     25  C   UNL     1      50.484   5.045  17.358  0.00  0.00    +0.000 A 
ATOM     26  C   UNL     1      51.547   5.752  17.902  0.00  0.00    +0.000 A 
ATOM     27  S   UNL     1      52.822   4.762  18.453  0.00  0.00    +0.000 S 
ATOM     28  C   UNL     1      52.018   3.351  17.944  0.00  0.00    +0.000 A 
ATOM     29  N   UNL     1      52.593   2.125  18.087  0.00  0.00    +0.000 NA
ATOM     30  C   UNL     1      51.884   1.147  17.635  0.00  0.00    +0.000 A 
ATOM     31  N   UNL     1      50.646   1.282  17.059  0.00  0.00    +0.000 N 
ATOM     32  C   UNL     1      50.010   2.495  16.930  0.00  0.00    +0.000 A 
ATOM     33  O   UNL     1      48.879   2.570  16.468  0.00  0.00    +0.000 OA
ATOM     34  C   UNL     1      50.779   3.631  17.393  0.00  0.00    +0.000 A 
ATOM     35  H   UNL     1      50.131   0.473  16.745  0.00  0.00    +0.000 HD
ENDBRANCH  22  25
ENDBRANCH  20  21
ENDBRANCH   4  20
TORSDOF 6
ENDMDL
MODEL 3
REMARK VINA RESULT:    -8.103      3.409      4.509
REMARK INTER + INTRA:         -11.961
REMARK INTER:                 -11.081
REMARK INTRA:                  -0.880
REMARK UNBOUND:                -1.016
REMARK  Name = 
REMARK  7 active torsions:
REMARK  status: ('A' for Active; 'I' for Inactive)
REMARK    1  A    between atoms: C_1  and  C_2
REMARK    2  A    between atoms: C_2  and  N_3
REMARK    3  A    between atoms: C_2  and  C_12
REMARK    4  A    between atoms: C_4  and  C_6
REMARK    5  A    between atoms: C_15  and  C_16
REMARK    6  A    between atoms: C_16  and  N_17
REMARK    7  A    between atoms: C_18  and  C_20
REMARK                            x       y       z     vdW  Elec       q    Type
REMARK                         _______ _______ _______ _____ _____    ______ ____
ROOT
ATOM      1  C   UNL     1      45.307   5.647  12.167  0.00  0.00    +0.000 A 
ATOM      2  C   UNL     1      46.318   4.989  12.875  0.00  0.00    +0.000 A 
ATOM      3  C   UNL     1      47.300   5.725  13.543  0.00  0.00    +0.000 A 
ATOM      4  C   UNL     1      47.242   7.118  13.509  0.00  0.00    +0.000 A 
ATOM      5  N   UNL     1      46.249   7.779  12.864  0.00  0.00    +0.000 NA
ATOM      6  C   UNL     1      45.314   7.036  12.225  0.00  0.00    +0.000 A 
ENDROOT
BRANCH   1   8
ATOM      7  C   UNL     1      43.011   5.717  11.152  0.00  0.00    +0.000 C 
ATOM      8  C   UNL     1      44.265   4.875  11.385  0.00  0.00    +0.000 C 
BRANCH   8   9
ATOM      9  N   UNL     1      44.776   4.388  10.111  0.00  0.00    +0.000 N 
ATOM     10  C   UNL     1      44.534   3.120   9.629  0.00  0.00    +0.000 C 
ATOM     11  O   UNL     1      43.838   2.292  10.211  0.00  0.00    +0.000 OA
ATOM     12  H   UNL     1      45.421   4.949   9.562  0.00  0.00    +0.000 HD
BRANCH  10  13
ATOM     13  C   UNL     1      45.239   2.811   8.289  0.00  0.00    +0.000 C 
ATOM     14  C   UNL     1      46.121   1.565   8.419  0.00  0.00    +0.000 C 
ATOM     15  C   UNL     1      46.884   1.283   7.124  0.00  0.00    +0.000 C 
ATOM     16  C   UNL     1      47.625   2.528   6.645  0.00  0.00    +0.000 C 
ATOM     17  C   UNL     1      46.692   3.734   6.579  0.00  0.00    +0.000 C 
ATOM     18  N   UNL     1      46.057   3.985   7.875  0.00  0.00    +0.000 NA
ATOM     19  H   UNL     1      45.426   4.784   7.777  0.00  0.00    +0.000 HD
ENDBRANCH  10  13
ENDBRANCH   8   9
ENDBRANCH   1   8
BRANCH   4  20
ATOM     20  C   UNL     1      48.346   7.951  14.122  0.00  0.00    +0.000 C 
BRANCH  20  21
ATOM     21  N   UNL     1      48.322   7.863  15.567  0.00  0.00    +0.000 N 
ATOM     22  C   UNL     1      49.193   7.078  16.276  0.00  0.00    +0.000 C 
ATOM     23  O   UNL     1      50.089   6.441  15.725  0.00  0.00    +0.000 OA
ATOM     24  H   UNL     1      47.461   8.178  16.008  0.00  0.00    +0.000 HD
BRANCH  22  25
ATOM     25  C   UNL     1      49.055   7.090  17.737  0.00  0.00    +0.000 A 
ATOM     26  C   UNL     1      49.126   8.293  18.424  0.00  0.00    +0.000 A 
ATOM     27  S   UNL     1      48.932   8.134  20.112  0.00  0.00    +0.000 S 
ATOM     28  C   UNL     1      48.788   6.444  19.990  0.00  0.00    +0.000 A 
ATOM     29  N   UNL     1      48.636   5.669  21.100  0.00  0.00    +0.000 NA
ATOM     30  C   UNL     1      48.566   4.404  20.863  0.00  0.00    +0.000 A 
ATOM     31  N   UNL     1      48.624   3.840  19.614  0.00  0.00    +0.000 N 
ATOM     32  C   UNL     1      48.737   4.584  18.463  0.00  0.00    +0.000 A 
ATOM     33  O   UNL     1      48.722   4.050  17.361  0.00  0.00    +0.000 OA
ATOM     34  C   UNL     1      48.853   6.011  18.676  0.00  0.00    +0.000 A 
ATOM     35  H   UNL     1      48.540   2.841  19.494  0.00  0.00    +0.000 HD
ENDBRANCH  22  25
ENDBRANCH  20  21
ENDBRANCH   4  20
TORSDOF 6
ENDMDL
MODEL 4
REMARK VINA RESULT:    -7.752      3.702      4.850
REMARK INTER + INTRA:         -11.487
REMARK INTER:                 -10.764
REMARK INTRA:                  -0.723
REMARK UNBOUND:                -1.016
REMARK  Name = 
REMARK  7 active torsions:
REMARK  status: ('A' for Active; 'I' for Inactive)
REMARK    1  A    between atoms: C_1  and  C_2
REMARK    2  A    between atoms: C_2  and  N_3
REMARK    3  A    between atoms: C_2  and  C_12
REMARK    4  A    between atoms: C_4  and  C_6
REMARK    5  A    between atoms: C_15  and  C_16
REMARK    6  A    between atoms: C_16  and  N_17
REMARK    7  A    between atoms: C_18  and  C_20
REMARK                            x       y       z     vdW  Elec       q    Type
REMARK                         _______ _______ _______ _____ _____    ______ ____
ROOT
ATOM      1  C   UNL     1      45.386   5.506  12.149  0.00  0.00    +0.000 A 
ATOM      2  C   UNL     1      45.778   4.735  13.249  0.00  0.00    +0.000 A 
ATOM      3  C   UNL     1      46.830   5.159  14.064  0.00  0.00    +0.000 A 
ATOM      4  C   UNL     1      47.463   6.367  13.777  0.00  0.00    +0.000 A 
ATOM      5  N   UNL     1      47.075   7.153  12.742  0.00  0.00    +0.000 NA
ATOM      6  C   UNL     1      46.054   6.712  11.969  0.00  0.00    +0.000 A 
ENDROOT
BRANCH   1   8
ATOM      7  C   UNL     1      43.305   6.169  10.911  0.00  0.00    +0.000 C 
ATOM      8  C   UNL     1      44.290   5.041  11.214  0.00  0.00    +0.000 C 
BRANCH   8   9
ATOM      9  N   UNL     1      44.816   4.497   9.970  0.00  0.00    +0.000 N 
ATOM     10  C   UNL     1      44.566   3.214   9.535  0.00  0.00    +0.000 C 
ATOM     11  O   UNL     1      43.852   2.418  10.138  0.00  0.00    +0.000 OA
ATOM     12  H   UNL     1      45.476   5.029   9.410  0.00  0.00    +0.000 HD
BRANCH  10  13
ATOM     13  C   UNL     1      45.290   2.843   8.220  0.00  0.00    +0.000 C 
ATOM     14  C   UNL     1      46.119   1.568   8.404  0.00  0.00    +0.000 C 
ATOM     15  C   UNL     1      46.900   1.223   7.135  0.00  0.00    +0.000 C 
ATOM     16  C   UNL     1      47.699   2.426   6.642  0.00  0.00    +0.000 C 
ATOM     17  C   UNL     1      46.816   3.664   6.523  0.00  0.00    +0.000 C 
ATOM     18  N   UNL     1      46.162   3.973   7.797  0.00  0.00    +0.000 NA
ATOM     19  H   UNL     1      45.565   4.793   7.663  0.00  0.00    +0.000 HD
ENDBRANCH  10  13
ENDBRANCH   8   9
ENDBRANCH   1   8
BRANCH   4  20
ATOM     20  C   UNL     1      48.678   6.808  14.565  0.00  0.00    +0.000 C 
BRANCH  20  21
ATOM     21  N   UNL     1      48.356   6.972  15.968  0.00  0.00    +0.000 N 
ATOM     22  C   UNL     1      48.845   6.141  16.941  0.00  0.00    +0.000 C 
ATOM     23  O   UNL     1      49.635   5.235  16.686  0.00  0.00    +0.000 OA
ATOM     24  H   UNL     1      47.536   7.543  16.162  0.00  0.00    +0.000 HD
BRANCH  22  25
ATOM     25  C   UNL     1      48.437   6.430  18.322  0.00  0.00    +0.000 A 
ATOM     26  C   UNL     1      48.376   5.401  19.251  0.00  0.00    +0.000 A 
ATOM     27  S   UNL     1      47.900   5.909  20.808  0.00  0.00    +0.000 S 
ATOM     28  C   UNL     1      47.715   7.517  20.287  0.00  0.00    +0.000 A 
ATOM     29  N   UNL     1      47.280   8.487  21.138  0.00  0.00    +0.000 NA
ATOM     30  C   UNL     1      47.162   9.654  20.604  0.00  0.00    +0.000 A 
ATOM     31  N   UNL     1      47.447   9.944  19.294  0.00  0.00    +0.000 N 
ATOM     32  C   UNL     1      47.926   9.007  18.408  0.00  0.00    +0.000 A 
ATOM     33  O   UNL     1      48.229   9.316  17.263  0.00  0.00    +0.000 OA
ATOM     34  C   UNL     1      48.046   7.670  18.951  0.00  0.00    +0.000 A 
ATOM     35  H   UNL     1      47.355  10.885  18.941  0.00  0.00    +0.000 HD
ENDBRANCH  22  25
ENDBRANCH  20  21
ENDBRANCH   4  20
TORSDOF 6
ENDMDL
MODEL 5
REMARK VINA RESULT:    -7.591      3.306      9.856
REMARK INTER + INTRA:         -11.270
REMARK INTER:                 -10.314
REMARK INTRA:                  -0.955
REMARK UNBOUND:                -1.016
REMARK  Name = 
REMARK  7 active torsions:
REMARK  status: ('A' for Active; 'I' for Inactive)
REMARK    1  A    between atoms: C_1  and  C_2
REMARK    2  A    between atoms: C_2  and  N_3
REMARK    3  A    between atoms: C_2  and  C_12
REMARK    4  A    between atoms: C_4  and  C_6
REMARK    5  A    between atoms: C_15  and  C_16
REMARK    6  A    between atoms: C_16  and  N_17
REMARK    7  A    between atoms: C_18  and  C_20
REMARK                            x       y       z     vdW  Elec       q    Type
REMARK                         _______ _______ _______ _____ _____    ______ ____
ROOT
ATOM      1  C   UNL     1      51.403   2.792  17.696  0.00  0.00    +0.000 A 
ATOM      2  C   UNL     1      50.723   3.866  18.279  0.00  0.00    +0.000 A 
ATOM      3  C   UNL     1      49.349   4.017  18.080  0.00  0.00    +0.000 A 
ATOM      4  C   UNL     1      48.669   3.073  17.312  0.00  0.00    +0.000 A 
ATOM      5  N   UNL     1      49.297   2.001  16.770  0.00  0.00    +0.000 NA
ATOM      6  C   UNL     1      50.631   1.885  16.980  0.00  0.00    +0.000 A 
ENDROOT
BRANCH   1   8
ATOM      7  C   UNL     1      53.490   3.748  18.713  0.00  0.00    +0.000 C 
ATOM      8  C   UNL     1      52.902   2.637  17.845  0.00  0.00    +0.000 C 
BRANCH   8   9
ATOM      9  N   UNL     1      53.274   1.338  18.388  0.00  0.00    +0.000 N 
ATOM     10  C   UNL     1      54.060   0.429  17.714  0.00  0.00    +0.000 C 
ATOM     11  O   UNL     1      54.548   0.640  16.608  0.00  0.00    +0.000 OA
ATOM     12  H   UNL     1      52.882   1.011  19.266  0.00  0.00    +0.000 HD
BRANCH  10  13
ATOM     13  C   UNL     1      54.260  -0.908  18.464  0.00  0.00    +0.000 C 
ATOM     14  C   UNL     1      54.982  -1.923  17.572  0.00  0.00    +0.000 C 
ATOM     15  C   UNL     1      55.127  -3.276  18.270  0.00  0.00    +0.000 C 
ATOM     16  C   UNL     1      53.783  -3.759  18.808  0.00  0.00    +0.000 C 
ATOM     17  C   UNL     1      53.108  -2.682  19.653  0.00  0.00    +0.000 C 
ATOM     18  N   UNL     1      52.937  -1.442  18.892  0.00  0.00    +0.000 NA
ATOM     19  H   UNL     1      52.504  -0.745  19.502  0.00  0.00    +0.000 HD
ENDBRANCH  10  13
ENDBRANCH   8   9
ENDBRANCH   1   8
BRANCH   4  20
ATOM     20  C   UNL     1      47.205   3.261  16.977  0.00  0.00    +0.000 C 
BRANCH  20  21
ATOM     21  N   UNL     1      47.023   4.334  16.022  0.00  0.00    +0.000 N 
ATOM     22  C   UNL     1      47.112   4.143  14.668  0.00  0.00    +0.000 C 
ATOM     23  O   UNL     1      47.297   3.030  14.180  0.00  0.00    +0.000 OA
ATOM     24  H   UNL     1      47.112   5.274  16.402  0.00  0.00    +0.000 HD
BRANCH  22  25
ATOM     25  C   UNL     1      46.901   5.323  13.819  0.00  0.00    +0.000 A 
ATOM     26  C   UNL     1      47.923   6.247  13.660  0.00  0.00    +0.000 A 
ATOM     27  S   UNL     1      47.519   7.548  12.633  0.00  0.00    +0.000 S 
ATOM     28  C   UNL     1      45.946   6.945  12.398  0.00  0.00    +0.000 A 
ATOM     29  N   UNL     1      45.042   7.619  11.634  0.00  0.00    +0.000 NA
ATOM     30  C   UNL     1      43.882   7.061  11.563  0.00  0.00    +0.000 A 
ATOM     31  N   UNL     1      43.543   5.884  12.180  0.00  0.00    +0.000 N 
ATOM     32  C   UNL     1      44.434   5.149  12.928  0.00  0.00    +0.000 A 
ATOM     33  O   UNL     1      44.115   4.070  13.412  0.00  0.00    +0.000 OA
ATOM     34  C   UNL     1      45.744   5.749  13.067  0.00  0.00    +0.000 A 
ATOM     35  H   UNL     1      42.622   5.487  12.067  0.00  0.00    +0.000 HD
ENDBRANCH  22  25
ENDBRANCH  20  21
ENDBRANCH   4  20
TORSDOF 6
ENDMDL
MODEL 6
REMARK VINA RESULT:    -7.586      2.411      4.027
REMARK INTER + INTRA:         -11.263
REMARK INTER:                 -10.189
REMARK INTRA:                  -1.075
REMARK UNBOUND:                -1.016
REMARK  Name = 
REMARK  7 active torsions:
REMARK  status: ('A' for Active; 'I' for Inactive)
REMARK    1  A    between atoms: C_1  and  C_2
REMARK    2  A    between atoms: C_2  and  N_3
REMARK    3  A    between atoms: C_2  and  C_12
REMARK    4  A    between atoms: C_4  and  C_6
REMARK    5  A    between atoms: C_15  and  C_16
REMARK    6  A    between atoms: C_16  and  N_17
REMARK    7  A    between atoms: C_18  and  C_20
REMARK                            x       y       z     vdW  Elec       q    Type
REMARK                         _______ _______ _______ _____ _____    ______ ____
ROOT
ATOM      1  C   UNL     1      45.328   5.797  12.030  0.00  0.00    +0.000 A 
ATOM      2  C   UNL     1      46.177   5.270  13.008  0.00  0.00    +0.000 A 
ATOM      3  C   UNL     1      47.147   6.078  13.604  0.00  0.00    +0.000 A 
ATOM      4  C   UNL     1      47.238   7.417  13.225  0.00  0.00    +0.000 A 
ATOM      5  N   UNL     1      46.400   7.962  12.311  0.00  0.00    +0.000 NA
ATOM      6  C   UNL     1      45.472   7.150  11.749  0.00  0.00    +0.000 A 
ENDROOT
BRANCH   1   8
ATOM      7  C   UNL     1      42.999   5.684  11.098  0.00  0.00    +0.000 C 
ATOM      8  C   UNL     1      44.307   4.928  11.324  0.00  0.00    +0.000 C 
BRANCH   8   9
ATOM      9  N   UNL     1      44.803   4.408  10.058  0.00  0.00    +0.000 N 
ATOM     10  C   UNL     1      44.533   3.136   9.600  0.00  0.00    +0.000 C 
ATOM     11  O   UNL     1      43.824   2.333  10.200  0.00  0.00    +0.000 OA
ATOM     12  H   UNL     1      45.456   4.946   9.496  0.00  0.00    +0.000 HD
BRANCH  10  13
ATOM     13  C   UNL     1      45.226   2.789   8.263  0.00  0.00    +0.000 C 
ATOM     14  C   UNL     1      46.123   1.558   8.425  0.00  0.00    +0.000 C 
ATOM     15  C   UNL     1      46.874   1.239   7.131  0.00  0.00    +0.000 C 
ATOM     16  C   UNL     1      47.596   2.475   6.601  0.00  0.00    +0.000 C 
ATOM     17  C   UNL     1      46.650   3.668   6.505  0.00  0.00    +0.000 C 
ATOM     18  N   UNL     1      46.028   3.957   7.800  0.00  0.00    +0.000 NA
ATOM     19  H   UNL     1      45.387   4.745   7.682  0.00  0.00    +0.000 HD
ENDBRANCH  10  13
ENDBRANCH   8   9
ENDBRANCH   1   8
BRANCH   4  20
ATOM     20  C   UNL     1      48.346   8.297  13.762  0.00  0.00    +0.000 C 
BRANCH  20  21
ATOM     21  N   UNL     1      49.331   7.514  14.480  0.00  0.00    +0.000 N 
ATOM     22  C   UNL     1      50.291   8.081  15.276  0.00  0.00    +0.000 C 
ATOM     23  O   UNL     1      50.337   9.294  15.475  0.00  0.00    +0.000 OA
ATOM     24  H   UNL     1      49.459   6.561  14.144  0.00  0.00    +0.000 HD
BRANCH  22  25
ATOM     25  C   UNL     1      51.220   7.163  15.946  0.00  0.00    +0.000 A 
ATOM     26  C   UNL     1      52.588   7.367  15.833  0.00  0.00    +0.000 A 
ATOM     27  S   UNL     1      53.526   6.221  16.681  0.00  0.00    +0.000 S 
ATOM     28  C   UNL     1      52.137   5.385  17.195  0.00  0.00    +0.000 A 
ATOM     29  N   UNL     1      52.235   4.252  17.945  0.00  0.00    +0.000 NA
ATOM     30  C   UNL     1      51.105   3.708  18.242  0.00  0.00    +0.000 A 
ATOM     31  N   UNL     1      49.881   4.197  17.865  0.00  0.00    +0.000 N 
ATOM     32  C   UNL     1      49.731   5.358  17.142  0.00  0.00    +0.000 A 
ATOM     33  O   UNL     1      48.619   5.799  16.877  0.00  0.00    +0.000 OA
ATOM     34  C   UNL     1      50.973   5.992  16.754  0.00  0.00    +0.000 A 
ATOM     35  H   UNL     1      49.030   3.735  18.149  0.00  0.00    +0.000 HD
ENDBRANCH  22  25
ENDBRANCH  20  21
ENDBRANCH   4  20
TORSDOF 6
ENDMDL
MODEL 7
REMARK VINA RESULT:    -7.071      3.578      9.438
REMARK INTER + INTRA:         -10.567
REMARK INTER:                  -9.309
REMARK INTRA:                  -1.258
REMARK UNBOUND:                -1.016
REMARK  Name = 
REMARK  7 active torsions:
REMARK  status: ('A' for Active; 'I' for Inactive)
REMARK    1  A    between atoms: C_1  and  C_2
REMARK    2  A    between atoms: C_2  and  N_3
REMARK    3  A    between atoms: C_2  and  C_12
REMARK    4  A    between atoms: C_4  and  C_6
REMARK    5  A    between atoms: C_15  and  C_16
REMARK    6  A    between atoms: C_16  and  N_17
REMARK    7  A    between atoms: C_18  and  C_20
REMARK                            x       y       z     vdW  Elec       q    Type
REMARK                         _______ _______ _______ _____ _____    ______ ____
ROOT
ATOM      1  C   UNL     1      51.535   2.708  17.614  0.00  0.00    +0.000 A 
ATOM      2  C   UNL     1      50.901   3.832  18.153  0.00  0.00    +0.000 A 
ATOM      3  C   UNL     1      49.532   4.027  17.956  0.00  0.00    +0.000 A 
ATOM      4  C   UNL     1      48.811   3.077  17.235  0.00  0.00    +0.000 A 
ATOM      5  N   UNL     1      49.393   1.959  16.738  0.00  0.00    +0.000 NA
ATOM      6  C   UNL     1      50.723   1.801  16.944  0.00  0.00    +0.000 A 
ENDROOT
BRANCH   1   8
ATOM      7  C   UNL     1      53.691   3.710  18.423  0.00  0.00    +0.000 C 
ATOM      8  C   UNL     1      53.029   2.502  17.761  0.00  0.00    +0.000 C 
BRANCH   8   9
ATOM      9  N   UNL     1      53.351   1.293  18.504  0.00  0.00    +0.000 N 
ATOM     10  C   UNL     1      53.840   0.146  17.916  0.00  0.00    +0.000 C 
ATOM     11  O   UNL     1      54.081   0.046  16.717  0.00  0.00    +0.000 OA
ATOM     12  H   UNL     1      53.136   1.219  19.494  0.00  0.00    +0.000 HD
BRANCH  10  13
ATOM     13  C   UNL     1      54.041  -1.029  18.900  0.00  0.00    +0.000 C 
ATOM     14  C   UNL     1      55.184  -1.934  18.431  0.00  0.00    +0.000 C 
ATOM     15  C   UNL     1      55.353  -3.144  19.352  0.00  0.00    +0.000 C 
ATOM     16  C   UNL     1      54.024  -3.866  19.554  0.00  0.00    +0.000 C 
ATOM     17  C   UNL     1      52.928  -2.894  19.981  0.00  0.00    +0.000 C 
ATOM     18  N   UNL     1      52.775  -1.807  19.011  0.00  0.00    +0.000 NA
ATOM     19  H   UNL     1      52.049  -1.171  19.349  0.00  0.00    +0.000 HD
ENDBRANCH  10  13
ENDBRANCH   8   9
ENDBRANCH   1   8
BRANCH   4  20
ATOM     20  C   UNL     1      47.352   3.305  16.902  0.00  0.00    +0.000 C 
BRANCH  20  21
ATOM     21  N   UNL     1      47.196   4.419  15.988  0.00  0.00    +0.000 N 
ATOM     22  C   UNL     1      47.171   4.262  14.627  0.00  0.00    +0.000 C 
ATOM     23  O   UNL     1      47.224   3.152  14.100  0.00  0.00    +0.000 OA
ATOM     24  H   UNL     1      47.392   5.336  16.383  0.00  0.00    +0.000 HD
BRANCH  22  25
ATOM     25  C   UNL     1      47.002   5.479  13.825  0.00  0.00    +0.000 A 
ATOM     26  C   UNL     1      45.936   5.580  12.944  0.00  0.00    +0.000 A 
ATOM     27  S   UNL     1      45.877   7.062  12.101  0.00  0.00    +0.000 S 
ATOM     28  C   UNL     1      47.302   7.608  12.853  0.00  0.00    +0.000 A 
ATOM     29  N   UNL     1      47.840   8.820  12.543  0.00  0.00    +0.000 NA
ATOM     30  C   UNL     1      48.933   9.094  13.169  0.00  0.00    +0.000 A 
ATOM     31  N   UNL     1      49.536   8.271  14.085  0.00  0.00    +0.000 N 
ATOM     32  C   UNL     1      49.008   7.056  14.459  0.00  0.00    +0.000 A 
ATOM     33  O   UNL     1      49.540   6.375  15.327  0.00  0.00    +0.000 OA
ATOM     34  C   UNL     1      47.796   6.685  13.760  0.00  0.00    +0.000 A 
ATOM     35  H   UNL     1      50.381   8.554  14.559  0.00  0.00    +0.000 HD
ENDBRANCH  22  25
ENDBRANCH  20  21
ENDBRANCH   4  20
TORSDOF 6
ENDMDL
MODEL 8
REMARK VINA RESULT:    -7.010      2.954      3.720
REMARK INTER + INTRA:         -10.485
REMARK INTER:                  -9.474
REMARK INTRA:                  -1.011
REMARK UNBOUND:                -1.016
REMARK  Name = 
REMARK  7 active torsions:
REMARK  status: ('A' for Active; 'I' for Inactive)
REMARK    1  A    between atoms: C_1  and  C_2
REMARK    2  A    between atoms: C_2  and  N_3
REMARK    3  A    between atoms: C_2  and  C_12
REMARK    4  A    between atoms: C_4  and  C_6
REMARK    5  A    between atoms: C_15  and  C_16
REMARK    6  A    between atoms: C_16  and  N_17
REMARK    7  A    between atoms: C_18  and  C_20
REMARK                            x       y       z     vdW  Elec       q    Type
REMARK                         _______ _______ _______ _____ _____    ______ ____
ROOT
ATOM      1  C   UNL     1      46.489   6.449  12.280  0.00  0.00    +0.000 A 
ATOM      2  C   UNL     1      47.415   7.370  11.779  0.00  0.00    +0.000 A 
ATOM      3  C   UNL     1      48.570   7.669  12.505  0.00  0.00    +0.000 A 
ATOM      4  C   UNL     1      48.792   7.021  13.719  0.00  0.00    +0.000 A 
ATOM      5  N   UNL     1      47.931   6.095  14.207  0.00  0.00    +0.000 NA
ATOM      6  C   UNL     1      46.819   5.830  13.480  0.00  0.00    +0.000 A 
ENDROOT
BRANCH   1   8
ATOM      7  C   UNL     1      44.485   7.438  11.134  0.00  0.00    +0.000 C 
ATOM      8  C   UNL     1      45.200   6.151  11.543  0.00  0.00    +0.000 C 
BRANCH   8   9
ATOM      9  N   UNL     1      45.411   5.311  10.373  0.00  0.00    +0.000 N 
ATOM     10  C   UNL     1      44.498   4.378   9.932  0.00  0.00    +0.000 C 
ATOM     11  O   UNL     1      43.407   4.189  10.462  0.00  0.00    +0.000 OA
ATOM     12  H   UNL     1      46.300   5.319   9.882  0.00  0.00    +0.000 HD
BRANCH  10  13
ATOM     13  C   UNL     1      44.976   3.559   8.711  0.00  0.00    +0.000 C 
ATOM     14  C   UNL     1      45.527   2.201   9.156  0.00  0.00    +0.000 C 
ATOM     15  C   UNL     1      46.071   1.403   7.970  0.00  0.00    +0.000 C 
ATOM     16  C   UNL     1      47.051   2.240   7.153  0.00  0.00    +0.000 C 
ATOM     17  C   UNL     1      46.447   3.591   6.782  0.00  0.00    +0.000 C 
ATOM     18  N   UNL     1      46.019   4.326   7.975  0.00  0.00    +0.000 NA
ATOM     19  H   UNL     1      45.601   5.210   7.677  0.00  0.00    +0.000 HD
ENDBRANCH  10  13
ENDBRANCH   8   9
ENDBRANCH   1   8
BRANCH   4  20
ATOM     20  C   UNL     1      49.971   7.398  14.590  0.00  0.00    +0.000 C 
BRANCH  20  21
ATOM     21  N   UNL     1      49.852   6.811  15.909  0.00  0.00    +0.000 N 
ATOM     22  C   UNL     1      49.376   7.507  16.989  0.00  0.00    +0.000 C 
ATOM     23  O   UNL     1      48.967   8.662  16.889  0.00  0.00    +0.000 OA
ATOM     24  H   UNL     1      50.398   5.965  16.060  0.00  0.00    +0.000 HD
BRANCH  22  25
ATOM     25  C   UNL     1      49.307   6.781  18.264  0.00  0.00    +0.000 A 
ATOM     26  C   UNL     1      48.096   6.680  18.933  0.00  0.00    +0.000 A 
ATOM     27  S   UNL     1      48.187   5.795  20.388  0.00  0.00    +0.000 S 
ATOM     28  C   UNL     1      49.859   5.550  20.199  0.00  0.00    +0.000 A 
ATOM     29  N   UNL     1      50.583   4.882  21.139  0.00  0.00    +0.000 NA
ATOM     30  C   UNL     1      51.842   4.792  20.879  0.00  0.00    +0.000 A 
ATOM     31  N   UNL     1      52.447   5.304  19.759  0.00  0.00    +0.000 N 
ATOM     32  C   UNL     1      51.751   5.952  18.765  0.00  0.00    +0.000 A 
ATOM     33  O   UNL     1      52.313   6.340  17.749  0.00  0.00    +0.000 OA
ATOM     34  C   UNL     1      50.335   6.108  19.024  0.00  0.00    +0.000 A 
ATOM     35  H   UNL     1      53.436   5.181  19.604  0.00  0.00    +0.000 HD
ENDBRANCH  22  25
ENDBRANCH  20  21
ENDBRANCH   4  20
TORSDOF 6
ENDMDL
MODEL 9
REMARK VINA RESULT:    -6.862      3.674      9.231
REMARK INTER + INTRA:         -10.285
REMARK INTER:                  -9.366
REMARK INTRA:                  -0.919
REMARK UNBOUND:                -1.016
REMARK  Name = 
REMARK  7 active torsions:
REMARK  status: ('A' for Active; 'I' for Inactive)
REMARK    1  A    between atoms: C_1  and  C_2
REMARK    2  A    between atoms: C_2  and  N_3
REMARK    3  A    between atoms: C_2  and  C_12
REMARK    4  A    between atoms: C_4  and  C_6
REMARK    5  A    between atoms: C_15  and  C_16
REMARK    6  A    between atoms: C_16  and  N_17
REMARK    7  A    between atoms: C_18  and  C_20
REMARK                            x       y       z     vdW  Elec       q    Type
REMARK                         _______ _______ _______ _____ _____    ______ ____
ROOT
ATOM      1  C   UNL     1      51.360   4.593  17.491  0.00  0.00    +0.000 A 
ATOM      2  C   UNL     1      50.943   3.266  17.642  0.00  0.00    +0.000 A 
ATOM      3  C   UNL     1      49.624   2.909  17.353  0.00  0.00    +0.000 A 
ATOM      4  C   UNL     1      48.743   3.886  16.893  0.00  0.00    +0.000 A 
ATOM      5  N   UNL     1      49.134   5.170  16.699  0.00  0.00    +0.000 NA
ATOM      6  C   UNL     1      50.419   5.485  16.991  0.00  0.00    +0.000 A 
ENDROOT
BRANCH   1   8
ATOM      7  C   UNL     1      53.593   3.838  18.357  0.00  0.00    +0.000 C 
ATOM      8  C   UNL     1      52.767   5.021  17.854  0.00  0.00    +0.000 C 
BRANCH   8   9
ATOM      9  N   UNL     1      53.454   5.667  16.745  0.00  0.00    +0.000 N 
ATOM     10  C   UNL     1      54.141   6.856  16.864  0.00  0.00    +0.000 C 
ATOM     11  O   UNL     1      54.266   7.466  17.922  0.00  0.00    +0.000 OA
ATOM     12  H   UNL     1      53.373   5.301  15.801  0.00  0.00    +0.000 HD
BRANCH  10  13
ATOM     13  C   UNL     1      54.729   7.379  15.534  0.00  0.00    +0.000 C 
ATOM     14  C   UNL     1      54.026   8.671  15.106  0.00  0.00    +0.000 C 
ATOM     15  C   UNL     1      54.543   9.167  13.755  0.00  0.00    +0.000 C 
ATOM     16  C   UNL     1      54.498   8.055  12.712  0.00  0.00    +0.000 C 
ATOM     17  C   UNL     1      55.182   6.790  13.224  0.00  0.00    +0.000 C 
ATOM     18  N   UNL     1      54.582   6.335  14.481  0.00  0.00    +0.000 NA
ATOM     19  H   UNL     1      55.085   5.503  14.797  0.00  0.00    +0.000 HD
ENDBRANCH  10  13
ENDBRANCH   8   9
ENDBRANCH   1   8
BRANCH   4  20
ATOM     20  C   UNL     1      47.280   3.566  16.677  0.00  0.00    +0.000 C 
BRANCH  20  21
ATOM     21  N   UNL     1      46.687   4.473  15.715  0.00  0.00    +0.000 N 
ATOM     22  C   UNL     1      46.710   4.239  14.365  0.00  0.00    +0.000 C 
ATOM     23  O   UNL     1      47.190   3.212  13.892  0.00  0.00    +0.000 OA
ATOM     24  H   UNL     1      46.510   5.415  16.057  0.00  0.00    +0.000 HD
BRANCH  22  25
ATOM     25  C   UNL     1      46.065   5.244  13.511  0.00  0.00    +0.000 A 
ATOM     26  C   UNL     1      46.685   6.466  13.296  0.00  0.00    +0.000 A 
ATOM     27  S   UNL     1      45.811   7.511  12.270  0.00  0.00    +0.000 S 
ATOM     28  C   UNL     1      44.548   6.383  12.108  0.00  0.00    +0.000 A 
ATOM     29  N   UNL     1      43.438   6.671  11.373  0.00  0.00    +0.000 NA
ATOM     30  C   UNL     1      42.551   5.736  11.358  0.00  0.00    +0.000 A 
ATOM     31  N   UNL     1      42.674   4.532  12.004  0.00  0.00    +0.000 N 
ATOM     32  C   UNL     1      43.792   4.182  12.724  0.00  0.00    +0.000 A 
ATOM     33  O   UNL     1      43.894   3.074  13.236  0.00  0.00    +0.000 OA
ATOM     34  C   UNL     1      44.807   5.212  12.801  0.00  0.00    +0.000 A 
ATOM     35  H   UNL     1      41.951   3.832  11.934  0.00  0.00    +0.000 HD
ENDBRANCH  22  25
ENDBRANCH  20  21
ENDBRANCH   4  20
TORSDOF 6
ENDMDL
