MODEL 1
REMARK VINA RESULT:    -6.883      0.000      0.000
REMARK INTER + INTRA:          -8.945
REMARK INTER:                  -8.492
REMARK INTRA:                  -0.453
REMARK UNBOUND:                -0.453
REMARK  Name = 
REMARK  4 active torsions:
REMARK  status: ('A' for Active; 'I' for Inactive)
REMARK    1  A    between atoms: C_2  and  C_5
REMARK    2  A    between atoms: C_12  and  C_13
REMARK    3  A    between atoms: C_13  and  O_14
REMARK    4  A    between atoms: O_14  and  C_15
REMARK                            x       y       z     vdW  Elec       q    Type
REMARK                         _______ _______ _______ _____ _____    ______ ____
ROOT
ATOM      1  C   UNL     1      47.867   7.674  12.167  0.00  0.00    +0.000 C 
ATOM      2  C   UNL     1      46.933   7.196  11.045  0.00  0.00    +0.000 C 
ATOM      3  N   UNL     1      45.539   7.295  11.457  0.00  0.00    +0.000 N 
ATOM      4  C   UNL     1      44.701   6.214  11.426  0.00  0.00    +0.000 A 
ATOM      5  N   UNL     1      43.425   6.372  11.814  0.00  0.00    +0.000 NA
ATOM      6  C   UNL     1      42.625   5.290  11.787  0.00  0.00    +0.000 A 
ATOM      7  C   UNL     1      43.047   4.044  11.403  0.00  0.00    +0.000 A 
ATOM      8  C   UNL     1      44.371   3.950  11.046  0.00  0.00    +0.000 A 
ATOM      9  N   UNL     1      45.188   5.028  11.035  0.00  0.00    +0.000 NA
ATOM     10  C   UNL     1      45.118   8.583  11.993  0.00  0.00    +0.000 C 
ATOM     11  C   UNL     1      46.093   9.013  13.100  0.00  0.00    +0.000 C 
ATOM     12  O   UNL     1      47.465   8.983  12.665  0.00  0.00    +0.000 OA
ENDROOT
BRANCH   1  14
ATOM     13  F   UNL     1      47.790   5.349  12.840  0.00  0.00    +0.000 F 
ATOM     14  C   UNL     1      48.098   6.599  13.245  0.00  0.00    +0.000 C 
ATOM     15  F   UNL     1      47.405   6.836  14.383  0.00  0.00    +0.000 F 
ATOM     16  F   UNL     1      49.411   6.575  13.596  0.00  0.00    +0.000 F 
ENDBRANCH   1  14
BRANCH   8  17
ATOM     17  C   UNL     1      44.979   2.611  10.696  0.00  0.00    +0.000 C 
BRANCH  17  18
ATOM     18  O   UNL     1      44.513   2.173   9.417  0.00  0.00    +0.000 OA
BRANCH  18  19
ATOM     19  C   UNL     1      45.488   2.293   8.448  0.00  0.00    +0.000 A 
ATOM     20  C   UNL     1      45.556   3.479   7.729  0.00  0.00    +0.000 A 
ATOM     21  N   UNL     1      46.479   3.694   6.757  0.00  0.00    +0.000 NA
ATOM     22  C   UNL     1      47.336   2.671   6.542  0.00  0.00    +0.000 A 
ATOM     23  C   UNL     1      47.269   1.486   7.257  0.00  0.00    +0.000 A 
ATOM     24  N   UNL     1      46.342   1.269   8.218  0.00  0.00    +0.000 NA
ENDBRANCH  18  19
ENDBRANCH  17  18
ENDBRANCH   8  17
TORSDOF 4
ENDMDL
MODEL 2
REMARK VINA RESULT:    -6.818      2.277      3.078
REMARK INTER + INTRA:          -8.865
REMARK INTER:                  -8.486
REMARK INTRA:                  -0.379
REMARK UNBOUND:                -0.453
REMARK  Name = 
REMARK  4 active torsions:
REMARK  status: ('A' for Active; 'I' for Inactive)
REMARK    1  A    between atoms: C_2  and  C_5
REMARK    2  A    between atoms: C_12  and  C_13
REMARK    3  A    between atoms: C_13  and  O_14
REMARK    4  A    between atoms: O_14  and  C_15
REMARK                            x       y       z     vdW  Elec       q    Type
REMARK                         _______ _______ _______ _____ _____    ______ ____
ROOT
ATOM      1  C   UNL     1      48.981   8.872  13.124  0.00  0.00    +0.000 C 
ATOM      2  C   UNL     1      47.646   8.268  13.588  0.00  0.00    +0.000 C 
ATOM      3  N   UNL     1      47.851   6.940  14.153  0.00  0.00    +0.000 N 
ATOM      4  C   UNL     1      47.181   5.845  13.679  0.00  0.00    +0.000 A 
ATOM      5  N   UNL     1      47.409   4.650  14.247  0.00  0.00    +0.000 NA
ATOM      6  C   UNL     1      46.749   3.587  13.753  0.00  0.00    +0.000 A 
ATOM      7  C   UNL     1      45.876   3.659  12.698  0.00  0.00    +0.000 A 
ATOM      8  C   UNL     1      45.712   4.908  12.149  0.00  0.00    +0.000 A 
ATOM      9  N   UNL     1      46.340   5.998  12.646  0.00  0.00    +0.000 NA
ATOM     10  C   UNL     1      48.875   6.831  15.184  0.00  0.00    +0.000 C 
ATOM     11  C   UNL     1      50.179   7.460  14.668  0.00  0.00    +0.000 C 
ATOM     12  O   UNL     1      49.985   8.800  14.177  0.00  0.00    +0.000 OA
ENDROOT
BRANCH   1  14
ATOM     13  F   UNL     1      48.435   7.751  11.048  0.00  0.00    +0.000 F 
ATOM     14  C   UNL     1      49.426   8.341  11.748  0.00  0.00    +0.000 C 
ATOM     15  F   UNL     1      50.446   7.456  11.829  0.00  0.00    +0.000 F 
ATOM     16  F   UNL     1      49.875   9.371  10.982  0.00  0.00    +0.000 F 
ENDBRANCH   1  14
BRANCH   8  17
ATOM     17  C   UNL     1      44.850   5.100  10.922  0.00  0.00    +0.000 C 
BRANCH  17  18
ATOM     18  O   UNL     1      44.415   3.835  10.417  0.00  0.00    +0.000 OA
BRANCH  18  19
ATOM     19  C   UNL     1      45.162   3.435   9.327  0.00  0.00    +0.000 A 
ATOM     20  C   UNL     1      45.594   4.409   8.436  0.00  0.00    +0.000 A 
ATOM     21  N   UNL     1      46.333   4.117   7.335  0.00  0.00    +0.000 NA
ATOM     22  C   UNL     1      46.626   2.807   7.169  0.00  0.00    +0.000 A 
ATOM     23  C   UNL     1      46.193   1.835   8.056  0.00  0.00    +0.000 A 
ATOM     24  N   UNL     1      45.447   2.125   9.147  0.00  0.00    +0.000 NA
ENDBRANCH  18  19
ENDBRANCH  17  18
ENDBRANCH   8  17
TORSDOF 4
ENDMDL
MODEL 3
REMARK VINA RESULT:    -6.530      4.606      6.945
REMARK INTER + INTRA:          -8.510
REMARK INTER:                  -7.764
REMARK INTRA:                  -0.745
REMARK UNBOUND:                -0.453
REMARK  Name = 
REMARK  4 active torsions:
REMARK  status: ('A' for Active; 'I' for Inactive)
REMARK    1  A    between atoms: C_2  and  C_5
REMARK    2  A    between atoms: C_12  and  C_13
REMARK    3  A    between atoms: C_13  and  O_14
REMARK    4  A    between atoms: O_14  and  C_15
REMARK                            x       y       z     vdW  Elec       q    Type
REMARK                         _______ _______ _______ _____ _____    ______ ____
ROOT
ATOM      1  C   UNL     1      48.869   3.482  18.036  0.00  0.00    +0.000 C 
ATOM      2  C   UNL     1      49.788   4.533  17.394  0.00  0.00    +0.000 C 
ATOM      3  N   UNL     1      49.370   5.878  17.766  0.00  0.00    +0.000 N 
ATOM      4  C   UNL     1      49.078   6.828  16.825  0.00  0.00    +0.000 A 
ATOM      5  N   UNL     1      48.704   8.051  17.232  0.00  0.00    +0.000 NA
ATOM      6  C   UNL     1      48.409   8.963  16.287  0.00  0.00    +0.000 A 
ATOM      7  C   UNL     1      48.455   8.702  14.942  0.00  0.00    +0.000 A 
ATOM      8  C   UNL     1      48.819   7.423  14.598  0.00  0.00    +0.000 A 
ATOM      9  N   UNL     1      49.149   6.497  15.528  0.00  0.00    +0.000 NA
ATOM     10  C   UNL     1      49.189   6.124  19.191  0.00  0.00    +0.000 C 
ATOM     11  C   UNL     1      48.274   5.038  19.778  0.00  0.00    +0.000 C 
ATOM     12  O   UNL     1      48.732   3.708  19.468  0.00  0.00    +0.000 OA
ENDROOT
BRANCH   1  14
ATOM     13  F   UNL     1      46.811   4.423  17.175  0.00  0.00    +0.000 F 
ATOM     14  C   UNL     1      47.549   3.297  17.265  0.00  0.00    +0.000 C 
ATOM     15  F   UNL     1      46.757   2.338  17.797  0.00  0.00    +0.000 F 
ATOM     16  F   UNL     1      47.812   2.909  15.989  0.00  0.00    +0.000 F 
ENDBRANCH   1  14
BRANCH   8  17
ATOM     17  C   UNL     1      48.813   6.985  13.151  0.00  0.00    +0.000 C 
BRANCH  17  18
ATOM     18  O   UNL     1      48.322   5.646  13.039  0.00  0.00    +0.000 OA
BRANCH  18  19
ATOM     19  C   UNL     1      46.945   5.614  12.941  0.00  0.00    +0.000 A 
ATOM     20  C   UNL     1      46.264   4.611  13.618  0.00  0.00    +0.000 A 
ATOM     21  N   UNL     1      44.912   4.494  13.585  0.00  0.00    +0.000 NA
ATOM     22  C   UNL     1      44.271   5.431  12.850  0.00  0.00    +0.000 A 
ATOM     23  C   UNL     1      44.950   6.431  12.172  0.00  0.00    +0.000 A 
ATOM     24  N   UNL     1      46.298   6.540  12.197  0.00  0.00    +0.000 NA
ENDBRANCH  18  19
ENDBRANCH  17  18
ENDBRANCH   8  17
TORSDOF 4
ENDMDL
MODEL 4
REMARK VINA RESULT:    -6.283      3.275      6.681
REMARK INTER + INTRA:          -8.206
REMARK INTER:                  -7.720
REMARK INTRA:                  -0.486
REMARK UNBOUND:                -0.453
REMARK  Name = 
REMARK  4 active torsions:
REMARK  status: ('A' for Active; 'I' for Inactive)
REMARK    1  A    between atoms: C_2  and  C_5
REMARK    2  A    between atoms: C_12  and  C_13
REMARK    3  A    between atoms: C_13  and  O_14
REMARK    4  A    between atoms: O_14  and  C_15
REMARK                            x       y       z     vdW  Elec       q    Type
REMARK                         _______ _______ _______ _____ _____    ______ ____
ROOT
ATOM      1  C   UNL     1      43.601   4.901  10.802  0.00  0.00    +0.000 C 
ATOM      2  C   UNL     1      45.131   4.858  10.942  0.00  0.00    +0.000 C 
ATOM      3  N   UNL     1      45.518   4.099  12.124  0.00  0.00    +0.000 N 
ATOM      4  C   UNL     1      46.318   4.637  13.095  0.00  0.00    +0.000 A 
ATOM      5  N   UNL     1      46.645   3.884  14.157  0.00  0.00    +0.000 NA
ATOM      6  C   UNL     1      47.420   4.442  15.105  0.00  0.00    +0.000 A 
ATOM      7  C   UNL     1      47.874   5.734  15.049  0.00  0.00    +0.000 A 
ATOM      8  C   UNL     1      47.479   6.455  13.949  0.00  0.00    +0.000 A 
ATOM      9  N   UNL     1      46.725   5.908  12.967  0.00  0.00    +0.000 NA
ATOM     10  C   UNL     1      44.931   2.772  12.257  0.00  0.00    +0.000 C 
ATOM     11  C   UNL     1      43.406   2.876  12.097  0.00  0.00    +0.000 C 
ATOM     12  O   UNL     1      43.027   3.565  10.890  0.00  0.00    +0.000 OA
ENDROOT
BRANCH   1  14
ATOM     13  F   UNL     1      41.606   5.884  11.760  0.00  0.00    +0.000 F 
ATOM     14  C   UNL     1      42.952   5.961  11.711  0.00  0.00    +0.000 C 
ATOM     15  F   UNL     1      43.270   7.227  11.355  0.00  0.00    +0.000 F 
ATOM     16  F   UNL     1      43.391   5.802  12.988  0.00  0.00    +0.000 F 
ENDBRANCH   1  14
BRANCH   8  17
ATOM     17  C   UNL     1      47.835   7.918  13.820  0.00  0.00    +0.000 C 
BRANCH  17  18
ATOM     18  O   UNL     1      47.899   8.294  12.441  0.00  0.00    +0.000 OA
BRANCH  18  19
ATOM     19  C   UNL     1      47.080   9.371  12.167  0.00  0.00    +0.000 A 
ATOM     20  C   UNL     1      45.719   9.237  12.406  0.00  0.00    +0.000 A 
ATOM     21  N   UNL     1      44.832  10.238  12.169  0.00  0.00    +0.000 NA
ATOM     22  C   UNL     1      45.371  11.382  11.689  0.00  0.00    +0.000 A 
ATOM     23  C   UNL     1      46.729  11.516  11.448  0.00  0.00    +0.000 A 
ATOM     24  N   UNL     1      47.610  10.514  11.674  0.00  0.00    +0.000 NA
ENDBRANCH  18  19
ENDBRANCH  17  18
ENDBRANCH   8  17
TORSDOF 4
ENDMDL
MODEL 5
REMARK VINA RESULT:    -6.271      4.489      7.577
REMARK INTER + INTRA:          -8.191
REMARK INTER:                  -7.763
REMARK INTRA:                  -0.428
REMARK UNBOUND:                -0.453
REMARK  Name = 
REMARK  4 active torsions:
REMARK  status: ('A' for Active; 'I' for Inactive)
REMARK    1  A    between atoms: C_2  and  C_5
REMARK    2  A    between atoms: C_12  and  C_13
REMARK    3  A    between atoms: C_13  and  O_14
REMARK    4  A    between atoms: O_14  and  C_15
REMARK                            x       y       z     vdW  Elec       q    Type
REMARK                         _______ _______ _______ _____ _____    ______ ____
ROOT
ATOM      1  C   UNL     1      42.933   4.096  11.906  0.00  0.00    +0.000 C 
ATOM      2  C   UNL     1      43.448   4.805  13.168  0.00  0.00    +0.000 C 
ATOM      3  N   UNL     1      44.519   5.736  12.836  0.00  0.00    +0.000 N 
ATOM      4  C   UNL     1      45.748   5.663  13.433  0.00  0.00    +0.000 A 
ATOM      5  N   UNL     1      46.690   6.554  13.087  0.00  0.00    +0.000 NA
ATOM      6  C   UNL     1      47.895   6.451  13.679  0.00  0.00    +0.000 A 
ATOM      7  C   UNL     1      48.209   5.482  14.596  0.00  0.00    +0.000 A 
ATOM      8  C   UNL     1      47.206   4.588  14.882  0.00  0.00    +0.000 A 
ATOM      9  N   UNL     1      45.977   4.687  14.324  0.00  0.00    +0.000 NA
ATOM     10  C   UNL     1      44.237   6.684  11.766  0.00  0.00    +0.000 C 
ATOM     11  C   UNL     1      43.716   5.920  10.538  0.00  0.00    +0.000 C 
ATOM     12  O   UNL     1      42.610   5.055  10.859  0.00  0.00    +0.000 OA
ENDROOT
BRANCH   1  14
ATOM     13  F   UNL     1      45.101   3.017  11.930  0.00  0.00    +0.000 F 
ATOM     14  C   UNL     1      43.834   2.923  11.475  0.00  0.00    +0.000 C 
ATOM     15  F   UNL     1      43.898   2.774  10.132  0.00  0.00    +0.000 F 
ATOM     16  F   UNL     1      43.336   1.757  11.965  0.00  0.00    +0.000 F 
ENDBRANCH   1  14
BRANCH   8  17
ATOM     17  C   UNL     1      47.459   3.418  15.804  0.00  0.00    +0.000 C 
BRANCH  17  18
ATOM     18  O   UNL     1      46.658   3.532  16.983  0.00  0.00    +0.000 OA
BRANCH  18  19
ATOM     19  C   UNL     1      47.296   4.262  17.966  0.00  0.00    +0.000 A 
ATOM     20  C   UNL     1      48.563   3.858  18.365  0.00  0.00    +0.000 A 
ATOM     21  N   UNL     1      49.271   4.510  19.322  0.00  0.00    +0.000 NA
ATOM     22  C   UNL     1      48.657   5.589  19.857  0.00  0.00    +0.000 A 
ATOM     23  C   UNL     1      47.392   5.992  19.462  0.00  0.00    +0.000 A 
ATOM     24  N   UNL     1      46.682   5.335  18.516  0.00  0.00    +0.000 NA
ENDBRANCH  18  19
ENDBRANCH  17  18
ENDBRANCH   8  17
TORSDOF 4
ENDMDL
MODEL 6
REMARK VINA RESULT:    -6.120      3.053      6.764
REMARK INTER + INTRA:          -8.004
REMARK INTER:                  -7.649
REMARK INTRA:                  -0.354
REMARK UNBOUND:                -0.453
REMARK  Name = 
REMARK  4 active torsions:
REMARK  status: ('A' for Active; 'I' for Inactive)
REMARK    1  A    between atoms: C_2  and  C_5
REMARK    2  A    between atoms: C_12  and  C_13
REMARK    3  A    between atoms: C_13  and  O_14
REMARK    4  A    between atoms: O_14  and  C_15
REMARK                            x       y       z     vdW  Elec       q    Type
REMARK                         _______ _______ _______ _____ _____    ______ ____
ROOT
ATOM      1  C   UNL     1      44.617   3.523  10.816  0.00  0.00    +0.000 C 
ATOM      2  C   UNL     1      45.363   4.155  12.002  0.00  0.00    +0.000 C 
ATOM      3  N   UNL     1      44.748   5.420  12.381  0.00  0.00    +0.000 N 
ATOM      4  C   UNL     1      45.468   6.583  12.435  0.00  0.00    +0.000 A 
ATOM      5  N   UNL     1      44.844   7.715  12.798  0.00  0.00    +0.000 NA
ATOM      6  C   UNL     1      45.571   8.847  12.829  0.00  0.00    +0.000 A 
ATOM      7  C   UNL     1      46.900   8.905  12.496  0.00  0.00    +0.000 A 
ATOM      8  C   UNL     1      47.466   7.715  12.108  0.00  0.00    +0.000 A 
ATOM      9  N   UNL     1      46.765   6.557  12.097  0.00  0.00    +0.000 NA
ATOM     10  C   UNL     1      43.309   5.393  12.607  0.00  0.00    +0.000 C 
ATOM     11  C   UNL     1      42.620   4.742  11.397  0.00  0.00    +0.000 C 
ATOM     12  O   UNL     1      43.185   3.458  11.070  0.00  0.00    +0.000 OA
ENDROOT
BRANCH   1  14
ATOM     13  F   UNL     1      45.716   5.290   9.578  0.00  0.00    +0.000 F 
ATOM     14  C   UNL     1      45.022   4.139   9.464  0.00  0.00    +0.000 C 
ATOM     15  F   UNL     1      43.964   4.385   8.658  0.00  0.00    +0.000 F 
ATOM     16  F   UNL     1      45.824   3.274   8.787  0.00  0.00    +0.000 F 
ENDBRANCH   1  14
BRANCH   8  17
ATOM     17  C   UNL     1      48.897   7.666  11.625  0.00  0.00    +0.000 C 
BRANCH  17  18
ATOM     18  O   UNL     1      49.674   6.804  12.460  0.00  0.00    +0.000 OA
BRANCH  18  19
ATOM     19  C   UNL     1      49.902   7.363  13.701  0.00  0.00    +0.000 A 
ATOM     20  C   UNL     1      50.623   8.548  13.763  0.00  0.00    +0.000 A 
ATOM     21  N   UNL     1      50.899   9.177  14.935  0.00  0.00    +0.000 NA
ATOM     22  C   UNL     1      50.415   8.569  16.041  0.00  0.00    +0.000 A 
ATOM     23  C   UNL     1      49.697   7.386  15.981  0.00  0.00    +0.000 A 
ATOM     24  N   UNL     1      49.432   6.755  14.814  0.00  0.00    +0.000 NA
ENDBRANCH  18  19
ENDBRANCH  17  18
ENDBRANCH   8  17
TORSDOF 4
ENDMDL
MODEL 7
REMARK VINA RESULT:    -6.083      3.383      6.603
REMARK INTER + INTRA:          -7.959
REMARK INTER:                  -7.401
REMARK INTRA:                  -0.557
REMARK UNBOUND:                -0.453
REMARK  Name = 
REMARK  4 active torsions:
REMARK  status: ('A' for Active; 'I' for Inactive)
REMARK    1  A    between atoms: C_2  and  C_5
REMARK    2  A    between atoms: C_12  and  C_13
REMARK    3  A    between atoms: C_13  and  O_14
REMARK    4  A    between atoms: O_14  and  C_15
REMARK                            x       y       z     vdW  Elec       q    Type
REMARK                         _______ _______ _______ _____ _____    ______ ____
ROOT
ATOM      1  C   UNL     1      43.964   3.800  12.364  0.00  0.00    +0.000 C 
ATOM      2  C   UNL     1      44.060   5.054  13.246  0.00  0.00    +0.000 C 
ATOM      3  N   UNL     1      44.137   6.256  12.426  0.00  0.00    +0.000 N 
ATOM      4  C   UNL     1      45.164   7.152  12.554  0.00  0.00    +0.000 A 
ATOM      5  N   UNL     1      45.173   8.243  11.773  0.00  0.00    +0.000 NA
ATOM      6  C   UNL     1      46.202   9.100  11.909  0.00  0.00    +0.000 A 
ATOM      7  C   UNL     1      47.239   8.908  12.785  0.00  0.00    +0.000 A 
ATOM      8  C   UNL     1      47.177   7.757  13.533  0.00  0.00    +0.000 A 
ATOM      9  N   UNL     1      46.139   6.894  13.437  0.00  0.00    +0.000 NA
ATOM     10  C   UNL     1      43.112   6.400  11.400  0.00  0.00    +0.000 C 
ATOM     11  C   UNL     1      43.054   5.115  10.559  0.00  0.00    +0.000 C 
ATOM     12  O   UNL     1      42.906   3.935  11.372  0.00  0.00    +0.000 OA
ENDROOT
BRANCH   1  14
ATOM     13  F   UNL     1      46.128   4.377  11.442  0.00  0.00    +0.000 F 
ATOM     14  C   UNL     1      45.332   3.353  11.816  0.00  0.00    +0.000 C 
ATOM     15  F   UNL     1      45.229   2.516  10.758  0.00  0.00    +0.000 F 
ATOM     16  F   UNL     1      46.011   2.672  12.777  0.00  0.00    +0.000 F 
ENDBRANCH   1  14
BRANCH   8  17
ATOM     17  C   UNL     1      48.308   7.385  14.464  0.00  0.00    +0.000 C 
BRANCH  17  18
ATOM     18  O   UNL     1      48.517   5.971  14.451  0.00  0.00    +0.000 OA
BRANCH  18  19
ATOM     19  C   UNL     1      48.155   5.390  15.650  0.00  0.00    +0.000 A 
ATOM     20  C   UNL     1      47.243   4.343  15.622  0.00  0.00    +0.000 A 
ATOM     21  N   UNL     1      46.825   3.706  16.746  0.00  0.00    +0.000 NA
ATOM     22  C   UNL     1      47.366   4.160  17.899  0.00  0.00    +0.000 A 
ATOM     23  C   UNL     1      48.274   5.206  17.929  0.00  0.00    +0.000 A 
ATOM     24  N   UNL     1      48.681   5.847  16.809  0.00  0.00    +0.000 NA
ENDBRANCH  18  19
ENDBRANCH  17  18
ENDBRANCH   8  17
TORSDOF 4
ENDMDL
MODEL 8
REMARK VINA RESULT:    -5.951      3.617      6.491
REMARK INTER + INTRA:          -7.796
REMARK INTER:                  -7.516
REMARK INTRA:                  -0.280
REMARK UNBOUND:                -0.453
REMARK  Name = 
REMARK  4 active torsions:
REMARK  status: ('A' for Active; 'I' for Inactive)
REMARK    1  A    between atoms: C_2  and  C_5
REMARK    2  A    between atoms: C_12  and  C_13
REMARK    3  A    between atoms: C_13  and  O_14
REMARK    4  A    between atoms: O_14  and  C_15
REMARK                            x       y       z     vdW  Elec       q    Type
REMARK                         _______ _______ _______ _____ _____    ______ ____
ROOT
ATOM      1  C   UNL     1      44.487   3.570  10.779  0.00  0.00    +0.000 C 
ATOM      2  C   UNL     1      45.300   4.067  11.985  0.00  0.00    +0.000 C 
ATOM      3  N   UNL     1      44.842   5.385  12.406  0.00  0.00    +0.000 N 
ATOM      4  C   UNL     1      45.697   6.449  12.498  0.00  0.00    +0.000 A 
ATOM      5  N   UNL     1      45.215   7.636  12.898  0.00  0.00    +0.000 NA
ATOM      6  C   UNL     1      46.074   8.670  12.966  0.00  0.00    +0.000 A 
ATOM      7  C   UNL     1      47.401   8.576  12.634  0.00  0.00    +0.000 A 
ATOM      8  C   UNL     1      47.819   7.339  12.208  0.00  0.00    +0.000 A 
ATOM      9  N   UNL     1      46.983   6.277  12.159  0.00  0.00    +0.000 NA
ATOM     10  C   UNL     1      43.409   5.526  12.631  0.00  0.00    +0.000 C 
ATOM     11  C   UNL     1      42.651   5.003  11.401  0.00  0.00    +0.000 C 
ATOM     12  O   UNL     1      43.056   3.671  11.032  0.00  0.00    +0.000 OA
ENDROOT
BRANCH   1  14
ATOM     13  F   UNL     1      45.632   5.342   9.591  0.00  0.00    +0.000 F 
ATOM     14  C   UNL     1      44.969   4.176   9.448  0.00  0.00    +0.000 C 
ATOM     15  F   UNL     1      43.962   4.390   8.571  0.00  0.00    +0.000 F 
ATOM     16  F   UNL     1      45.830   3.318   8.839  0.00  0.00    +0.000 F 
ENDBRANCH   1  14
BRANCH   8  17
ATOM     17  C   UNL     1      49.236   7.133  11.723  0.00  0.00    +0.000 C 
BRANCH  17  18
ATOM     18  O   UNL     1      49.925   8.384  11.656  0.00  0.00    +0.000 OA
BRANCH  18  19
ATOM     19  C   UNL     1      51.267   8.215  11.378  0.00  0.00    +0.000 A 
ATOM     20  C   UNL     1      52.187   8.942  12.121  0.00  0.00    +0.000 A 
ATOM     21  N   UNL     1      53.527   8.845  11.923  0.00  0.00    +0.000 NA
ATOM     22  C   UNL     1      53.904   7.982  10.954  0.00  0.00    +0.000 A 
ATOM     23  C   UNL     1      52.988   7.257  10.210  0.00  0.00    +0.000 A 
ATOM     24  N   UNL     1      51.652   7.363  10.400  0.00  0.00    +0.000 NA
ENDBRANCH  18  19
ENDBRANCH  17  18
ENDBRANCH   8  17
TORSDOF 4
ENDMDL
MODEL 9
REMARK VINA RESULT:    -5.837      4.471      6.507
REMARK INTER + INTRA:          -7.654
REMARK INTER:                  -7.216
REMARK INTRA:                  -0.438
REMARK UNBOUND:                -0.453
REMARK  Name = 
REMARK  4 active torsions:
REMARK  status: ('A' for Active; 'I' for Inactive)
REMARK    1  A    between atoms: C_2  and  C_5
REMARK    2  A    between atoms: C_12  and  C_13
REMARK    3  A    between atoms: C_13  and  O_14
REMARK    4  A    between atoms: O_14  and  C_15
REMARK                            x       y       z     vdW  Elec       q    Type
REMARK                         _______ _______ _______ _____ _____    ______ ____
ROOT
ATOM      1  C   UNL     1      48.578   4.967  19.056  0.00  0.00    +0.000 C 
ATOM      2  C   UNL     1      48.993   4.588  17.625  0.00  0.00    +0.000 C 
ATOM      3  N   UNL     1      49.845   5.618  17.046  0.00  0.00    +0.000 N 
ATOM      4  C   UNL     1      49.534   6.227  15.860  0.00  0.00    +0.000 A 
ATOM      5  N   UNL     1      50.364   7.164  15.376  0.00  0.00    +0.000 NA
ATOM      6  C   UNL     1      50.028   7.758  14.216  0.00  0.00    +0.000 A 
ATOM      7  C   UNL     1      48.884   7.467  13.519  0.00  0.00    +0.000 A 
ATOM      8  C   UNL     1      48.069   6.518  14.087  0.00  0.00    +0.000 A 
ATOM      9  N   UNL     1      48.398   5.885  15.236  0.00  0.00    +0.000 NA
ATOM     10  C   UNL     1      50.992   6.028  17.846  0.00  0.00    +0.000 C 
ATOM     11  C   UNL     1      50.518   6.383  19.264  0.00  0.00    +0.000 C 
ATOM     12  O   UNL     1      49.736   5.331  19.860  0.00  0.00    +0.000 OA
ENDROOT
BRANCH   1  14
ATOM     13  F   UNL     1      47.665   7.123  18.437  0.00  0.00    +0.000 F 
ATOM     14  C   UNL     1      47.409   5.969  19.087  0.00  0.00    +0.000 C 
ATOM     15  F   UNL     1      47.025   6.291  20.344  0.00  0.00    +0.000 F 
ATOM     16  F   UNL     1      46.319   5.423  18.484  0.00  0.00    +0.000 F 
ENDBRANCH   1  14
BRANCH   8  17
ATOM     17  C   UNL     1      46.733   6.180  13.464  0.00  0.00    +0.000 C 
BRANCH  17  18
ATOM     18  O   UNL     1      46.611   4.767  13.289  0.00  0.00    +0.000 OA
BRANCH  18  19
ATOM     19  C   UNL     1      45.458   4.434  12.606  0.00  0.00    +0.000 A 
ATOM     20  C   UNL     1      45.012   5.297  11.614  0.00  0.00    +0.000 A 
ATOM     21  N   UNL     1      43.890   5.059  10.887  0.00  0.00    +0.000 NA
ATOM     22  C   UNL     1      43.239   3.914  11.192  0.00  0.00    +0.000 A 
ATOM     23  C   UNL     1      43.682   3.053  12.183  0.00  0.00    +0.000 A 
ATOM     24  N   UNL     1      44.794   3.297  12.915  0.00  0.00    +0.000 NA
ENDBRANCH  18  19
ENDBRANCH  17  18
ENDBRANCH   8  17
TORSDOF 4
ENDMDL
