MODEL 1
REMARK VINA RESULT:    -8.745      0.000      0.000
REMARK INTER + INTRA:         -12.294
REMARK INTER:                 -11.302
REMARK INTRA:                  -0.992
REMARK UNBOUND:                -0.992
REMARK  Name = 
REMARK  5 active torsions:
REMARK  status: ('A' for Active; 'I' for Inactive)
REMARK    1  A    between atoms: C_2  and  C_4
REMARK    2  A    between atoms: C_7  and  O_8
REMARK    3  A    between atoms: O_8  and  C_9
REMARK    4  A    between atoms: C_9  and  C_10
REMARK    5  A    between atoms: C_14  and  C_15
REMARK                            x       y       z     vdW  Elec       q    Type
REMARK                         _______ _______ _______ _____ _____    ______ ____
ROOT
ATOM      1  C   UNL     1      44.836   4.923  12.024  0.00  0.00    +0.000 A 
ATOM      2  C   UNL     1      45.464   4.078  12.939  0.00  0.00    +0.000 A 
ATOM      3  C   UNL     1      46.659   4.491  13.503  0.00  0.00    +0.000 A 
ATOM      4  N   UNL     1      47.256   5.671  13.226  0.00  0.00    +0.000 NA
ATOM      5  C   UNL     1      46.643   6.499  12.344  0.00  0.00    +0.000 A 
ATOM      6  C   UNL     1      45.456   6.137  11.710  0.00  0.00    +0.000 A 
ENDROOT
BRANCH   5   7
ATOM      7  C   UNL     1      47.296   7.803  12.116  0.00  0.00    +0.000 A 
ATOM      8  C   UNL     1      46.581   9.007  12.253  0.00  0.00    +0.000 A 
ATOM      9  C   UNL     1      47.201  10.234  12.025  0.00  0.00    +0.000 A 
ATOM     10  F   UNL     1      46.495  11.363  12.167  0.00  0.00    +0.000 F 
ATOM     11  C   UNL     1      48.534  10.309  11.655  0.00  0.00    +0.000 A 
ATOM     12  C   UNL     1      49.246   9.131  11.511  0.00  0.00    +0.000 A 
ATOM     13  F   UNL     1      50.535   9.177  11.147  0.00  0.00    +0.000 F 
ATOM     14  C   UNL     1      48.648   7.894  11.733  0.00  0.00    +0.000 A 
ENDBRANCH   5   7
BRANCH   1  15
ATOM     15  C   UNL     1      43.557   4.506  11.340  0.00  0.00    +0.000 C 
BRANCH  15  16
ATOM     16  O   UNL     1      43.683   4.667   9.925  0.00  0.00    +0.000 OA
BRANCH  16  20
ATOM     17  C   UNL     1      46.366   2.277   7.811  0.00  0.00    +0.000 A 
ATOM     18  C   UNL     1      45.493   1.662   8.716  0.00  0.00    +0.000 A 
ATOM     19  C   UNL     1      44.583   2.430   9.447  0.00  0.00    +0.000 A 
ATOM     20  C   UNL     1      44.539   3.815   9.281  0.00  0.00    +0.000 A 
ATOM     21  C   UNL     1      45.427   4.429   8.393  0.00  0.00    +0.000 A 
ATOM     22  C   UNL     1      46.344   3.666   7.663  0.00  0.00    +0.000 A 
BRANCH  17  24
ATOM     23  N   UNL     1      48.412   2.155   6.502  0.00  0.00    +0.000 N 
ATOM     24  C   UNL     1      47.334   1.485   7.011  0.00  0.00    +0.000 C 
ATOM     25  O   UNL     1      47.200   0.281   6.845  0.00  0.00    +0.000 OA
ATOM     26  H   UNL     1      49.121   1.584   6.060  0.00  0.00    +0.000 HD
ATOM     27  H   UNL     1      48.690   3.065   6.840  0.00  0.00    +0.000 HD
ENDBRANCH  17  24
ENDBRANCH  16  20
ENDBRANCH  15  16
ENDBRANCH   1  15
TORSDOF 5
ENDMDL
MODEL 2
REMARK VINA RESULT:    -8.726      0.142      1.644
REMARK INTER + INTRA:         -12.269
REMARK INTER:                 -11.290
REMARK INTRA:                  -0.978
REMARK UNBOUND:                -0.992
REMARK  Name = 
REMARK  5 active torsions:
REMARK  status: ('A' for Active; 'I' for Inactive)
REMARK    1  A    between atoms: C_2  and  C_4
REMARK    2  A    between atoms: C_7  and  O_8
REMARK    3  A    between atoms: O_8  and  C_9
REMARK    4  A    between atoms: C_9  and  C_10
REMARK    5  A    between atoms: C_14  and  C_15
REMARK                            x       y       z     vdW  Elec       q    Type
REMARK                         _______ _______ _______ _____ _____    ______ ____
ROOT
ATOM      1  C   UNL     1      44.867   4.866  12.020  0.00  0.00    +0.000 A 
ATOM      2  C   UNL     1      45.478   4.013  12.938  0.00  0.00    +0.000 A 
ATOM      3  C   UNL     1      46.686   4.400  13.494  0.00  0.00    +0.000 A 
ATOM      4  N   UNL     1      47.311   5.563  13.205  0.00  0.00    +0.000 NA
ATOM      5  C   UNL     1      46.715   6.398  12.319  0.00  0.00    +0.000 A 
ATOM      6  C   UNL     1      45.516   6.062  11.694  0.00  0.00    +0.000 A 
ENDROOT
BRANCH   5   7
ATOM      7  C   UNL     1      47.399   7.684  12.079  0.00  0.00    +0.000 A 
ATOM      8  C   UNL     1      48.748   7.726  11.683  0.00  0.00    +0.000 A 
ATOM      9  C   UNL     1      49.391   8.944  11.469  0.00  0.00    +0.000 A 
ATOM     10  F   UNL     1      50.675   8.951  11.089  0.00  0.00    +0.000 F 
ATOM     11  C   UNL     1      48.727  10.148  11.642  0.00  0.00    +0.000 A 
ATOM     12  C   UNL     1      47.402  10.120  12.038  0.00  0.00    +0.000 A 
ATOM     13  F   UNL     1      46.740  11.270  12.218  0.00  0.00    +0.000 F 
ATOM     14  C   UNL     1      46.739   8.915  12.257  0.00  0.00    +0.000 A 
ENDBRANCH   5   7
BRANCH   1  15
ATOM     15  C   UNL     1      43.574   4.476  11.345  0.00  0.00    +0.000 C 
BRANCH  15  16
ATOM     16  O   UNL     1      43.690   4.647   9.930  0.00  0.00    +0.000 OA
BRANCH  16  20
ATOM     17  C   UNL     1      46.339   2.254   7.778  0.00  0.00    +0.000 A 
ATOM     18  C   UNL     1      45.456   1.636   8.672  0.00  0.00    +0.000 A 
ATOM     19  C   UNL     1      44.557   2.405   9.416  0.00  0.00    +0.000 A 
ATOM     20  C   UNL     1      44.533   3.794   9.273  0.00  0.00    +0.000 A 
ATOM     21  C   UNL     1      45.431   4.410   8.396  0.00  0.00    +0.000 A 
ATOM     22  C   UNL     1      46.338   3.646   7.655  0.00  0.00    +0.000 A 
BRANCH  17  24
ATOM     23  N   UNL     1      48.366   2.132   6.438  0.00  0.00    +0.000 N 
ATOM     24  C   UNL     1      47.296   1.461   6.966  0.00  0.00    +0.000 C 
ATOM     25  O   UNL     1      47.163   0.257   6.806  0.00  0.00    +0.000 OA
ATOM     26  H   UNL     1      49.068   1.562   5.987  0.00  0.00    +0.000 HD
ATOM     27  H   UNL     1      48.647   3.045   6.769  0.00  0.00    +0.000 HD
ENDBRANCH  17  24
ENDBRANCH  16  20
ENDBRANCH  15  16
ENDBRANCH   1  15
TORSDOF 5
ENDMDL
MODEL 3
REMARK VINA RESULT:    -8.548      1.382      2.149
REMARK INTER + INTRA:         -12.039
REMARK INTER:                 -11.128
REMARK INTRA:                  -0.912
REMARK UNBOUND:                -0.992
REMARK  Name = 
REMARK  5 active torsions:
REMARK  status: ('A' for Active; 'I' for Inactive)
REMARK    1  A    between atoms: C_2  and  C_4
REMARK    2  A    between atoms: C_7  and  O_8
REMARK    3  A    between atoms: O_8  and  C_9
REMARK    4  A    between atoms: C_9  and  C_10
REMARK    5  A    between atoms: C_14  and  C_15
REMARK                            x       y       z     vdW  Elec       q    Type
REMARK                         _______ _______ _______ _____ _____    ______ ____
ROOT
ATOM      1  C   UNL     1      45.231   5.321  11.940  0.00  0.00    +0.000 A 
ATOM      2  C   UNL     1      45.285   4.236  12.815  0.00  0.00    +0.000 A 
ATOM      3  C   UNL     1      46.399   4.100  13.627  0.00  0.00    +0.000 A 
ATOM      4  N   UNL     1      47.440   4.961  13.630  0.00  0.00    +0.000 NA
ATOM      5  C   UNL     1      47.387   6.021  12.787  0.00  0.00    +0.000 A 
ATOM      6  C   UNL     1      46.314   6.206  11.916  0.00  0.00    +0.000 A 
ENDROOT
BRANCH   5   7
ATOM      7  C   UNL     1      48.515   6.970  12.865  0.00  0.00    +0.000 A 
ATOM      8  C   UNL     1      49.281   7.093  14.039  0.00  0.00    +0.000 A 
ATOM      9  C   UNL     1      50.337   7.999  14.110  0.00  0.00    +0.000 A 
ATOM     10  F   UNL     1      51.050   8.090  15.240  0.00  0.00    +0.000 F 
ATOM     11  C   UNL     1      50.664   8.808  13.033  0.00  0.00    +0.000 A 
ATOM     12  C   UNL     1      49.914   8.702  11.876  0.00  0.00    +0.000 A 
ATOM     13  F   UNL     1      50.206   9.477  10.824  0.00  0.00    +0.000 F 
ATOM     14  C   UNL     1      48.854   7.803  11.782  0.00  0.00    +0.000 A 
ENDBRANCH   5   7
BRANCH   1  15
ATOM     15  C   UNL     1      44.066   5.495  10.997  0.00  0.00    +0.000 C 
BRANCH  15  16
ATOM     16  O   UNL     1      43.729   4.241  10.398  0.00  0.00    +0.000 OA
BRANCH  16  20
ATOM     17  C   UNL     1      46.410   2.459   7.749  0.00  0.00    +0.000 A 
ATOM     18  C   UNL     1      46.238   3.847   7.694  0.00  0.00    +0.000 A 
ATOM     19  C   UNL     1      45.345   4.480   8.562  0.00  0.00    +0.000 A 
ATOM     20  C   UNL     1      44.616   3.733   9.489  0.00  0.00    +0.000 A 
ATOM     21  C   UNL     1      44.773   2.345   9.528  0.00  0.00    +0.000 A 
ATOM     22  C   UNL     1      45.661   1.705   8.657  0.00  0.00    +0.000 A 
BRANCH  17  24
ATOM     23  N   UNL     1      48.451   2.474   6.426  0.00  0.00    +0.000 N 
ATOM     24  C   UNL     1      47.362   1.761   6.849  0.00  0.00    +0.000 C 
ATOM     25  O   UNL     1      47.207   0.592   6.529  0.00  0.00    +0.000 OA
ATOM     26  H   UNL     1      49.148   1.953   5.909  0.00  0.00    +0.000 HD
ATOM     27  H   UNL     1      48.745   3.328   6.877  0.00  0.00    +0.000 HD
ENDBRANCH  17  24
ENDBRANCH  16  20
ENDBRANCH  15  16
ENDBRANCH   1  15
TORSDOF 5
ENDMDL
MODEL 4
REMARK VINA RESULT:    -8.529      2.812      4.001
REMARK INTER + INTRA:         -12.014
REMARK INTER:                 -11.106
REMARK INTRA:                  -0.908
REMARK UNBOUND:                -0.992
REMARK  Name = 
REMARK  5 active torsions:
REMARK  status: ('A' for Active; 'I' for Inactive)
REMARK    1  A    between atoms: C_2  and  C_4
REMARK    2  A    between atoms: C_7  and  O_8
REMARK    3  A    between atoms: O_8  and  C_9
REMARK    4  A    between atoms: C_9  and  C_10
REMARK    5  A    between atoms: C_14  and  C_15
REMARK                            x       y       z     vdW  Elec       q    Type
REMARK                         _______ _______ _______ _____ _____    ______ ____
ROOT
ATOM      1  C   UNL     1      44.853   5.427  11.948  0.00  0.00    +0.000 A 
ATOM      2  C   UNL     1      45.244   6.632  11.364  0.00  0.00    +0.000 A 
ATOM      3  C   UNL     1      46.265   7.352  11.961  0.00  0.00    +0.000 A 
ATOM      4  N   UNL     1      46.916   6.956  13.076  0.00  0.00    +0.000 NA
ATOM      5  C   UNL     1      46.544   5.781  13.642  0.00  0.00    +0.000 A 
ATOM      6  C   UNL     1      45.502   5.018  13.118  0.00  0.00    +0.000 A 
ENDROOT
BRANCH   5   7
ATOM      7  C   UNL     1      47.321   5.355  14.823  0.00  0.00    +0.000 A 
ATOM      8  C   UNL     1      47.103   4.101  15.422  0.00  0.00    +0.000 A 
ATOM      9  C   UNL     1      47.832   3.710  16.544  0.00  0.00    +0.000 A 
ATOM     10  F   UNL     1      47.604   2.509  17.090  0.00  0.00    +0.000 F 
ATOM     11  C   UNL     1      48.788   4.541  17.106  0.00  0.00    +0.000 A 
ATOM     12  C   UNL     1      49.007   5.780  16.529  0.00  0.00    +0.000 A 
ATOM     13  F   UNL     1      49.921   6.603  17.058  0.00  0.00    +0.000 F 
ATOM     14  C   UNL     1      48.291   6.191  15.408  0.00  0.00    +0.000 A 
ENDBRANCH   5   7
BRANCH   1  15
ATOM     15  C   UNL     1      43.714   4.623  11.372  0.00  0.00    +0.000 C 
BRANCH  15  16
ATOM     16  O   UNL     1      43.738   4.695   9.944  0.00  0.00    +0.000 OA
BRANCH  16  20
ATOM     17  C   UNL     1      46.360   2.249   7.818  0.00  0.00    +0.000 A 
ATOM     18  C   UNL     1      45.481   1.653   8.729  0.00  0.00    +0.000 A 
ATOM     19  C   UNL     1      44.591   2.440   9.465  0.00  0.00    +0.000 A 
ATOM     20  C   UNL     1      44.573   3.826   9.297  0.00  0.00    +0.000 A 
ATOM     21  C   UNL     1      45.467   4.421   8.402  0.00  0.00    +0.000 A 
ATOM     22  C   UNL     1      46.364   3.639   7.668  0.00  0.00    +0.000 A 
BRANCH  17  24
ATOM     23  N   UNL     1      48.375   2.094   6.464  0.00  0.00    +0.000 N 
ATOM     24  C   UNL     1      47.307   1.437   7.013  0.00  0.00    +0.000 C 
ATOM     25  O   UNL     1      47.168   0.231   6.878  0.00  0.00    +0.000 OA
ATOM     26  H   UNL     1      49.072   1.511   6.018  0.00  0.00    +0.000 HD
ATOM     27  H   UNL     1      48.663   3.011   6.775  0.00  0.00    +0.000 HD
ENDBRANCH  17  24
ENDBRANCH  16  20
ENDBRANCH  15  16
ENDBRANCH   1  15
TORSDOF 5
ENDMDL
MODEL 5
REMARK VINA RESULT:    -8.388      3.820      7.117
REMARK INTER + INTRA:         -11.832
REMARK INTER:                 -10.839
REMARK INTRA:                  -0.993
REMARK UNBOUND:                -0.992
REMARK  Name = 
REMARK  5 active torsions:
REMARK  status: ('A' for Active; 'I' for Inactive)
REMARK    1  A    between atoms: C_2  and  C_4
REMARK    2  A    between atoms: C_7  and  O_8
REMARK    3  A    between atoms: O_8  and  C_9
REMARK    4  A    between atoms: C_9  and  C_10
REMARK    5  A    between atoms: C_14  and  C_15
REMARK                            x       y       z     vdW  Elec       q    Type
REMARK                         _______ _______ _______ _____ _____    ______ ____
ROOT
ATOM      1  C   UNL     1      44.117   5.314  11.086  0.00  0.00    +0.000 A 
ATOM      2  C   UNL     1      43.309   4.441  11.814  0.00  0.00    +0.000 A 
ATOM      3  C   UNL     1      43.249   3.115  11.420  0.00  0.00    +0.000 A 
ATOM      4  N   UNL     1      43.935   2.608  10.372  0.00  0.00    +0.000 NA
ATOM      5  C   UNL     1      44.729   3.452   9.668  0.00  0.00    +0.000 A 
ATOM      6  C   UNL     1      44.813   4.807   9.983  0.00  0.00    +0.000 A 
ENDROOT
BRANCH   5   7
ATOM      7  C   UNL     1      45.507   2.845   8.569  0.00  0.00    +0.000 A 
ATOM      8  C   UNL     1      45.902   1.496   8.618  0.00  0.00    +0.000 A 
ATOM      9  C   UNL     1      46.647   0.933   7.583  0.00  0.00    +0.000 A 
ATOM     10  F   UNL     1      47.005  -0.355   7.657  0.00  0.00    +0.000 F 
ATOM     11  C   UNL     1      47.024   1.681   6.479  0.00  0.00    +0.000 A 
ATOM     12  C   UNL     1      46.647   3.011   6.423  0.00  0.00    +0.000 A 
ATOM     13  F   UNL     1      47.005   3.757   5.369  0.00  0.00    +0.000 F 
ATOM     14  C   UNL     1      45.903   3.595   7.445  0.00  0.00    +0.000 A 
ENDBRANCH   5   7
BRANCH   1  15
ATOM     15  C   UNL     1      44.184   6.780  11.438  0.00  0.00    +0.000 C 
BRANCH  15  16
ATOM     16  O   UNL     1      44.877   6.955  12.676  0.00  0.00    +0.000 OA
BRANCH  16  20
ATOM     17  C   UNL     1      48.965   7.694  12.328  0.00  0.00    +0.000 A 
ATOM     18  C   UNL     1      48.550   6.463  12.849  0.00  0.00    +0.000 A 
ATOM     19  C   UNL     1      47.189   6.180  12.987  0.00  0.00    +0.000 A 
ATOM     20  C   UNL     1      46.232   7.123  12.606  0.00  0.00    +0.000 A 
ATOM     21  C   UNL     1      46.649   8.361  12.106  0.00  0.00    +0.000 A 
ATOM     22  C   UNL     1      48.011   8.651  11.973  0.00  0.00    +0.000 A 
BRANCH  17  24
ATOM     23  N   UNL     1      51.030   7.498  11.058  0.00  0.00    +0.000 N 
ATOM     24  C   UNL     1      50.404   8.016  12.159  0.00  0.00    +0.000 C 
ATOM     25  O   UNL     1      50.998   8.744  12.941  0.00  0.00    +0.000 OA
ATOM     26  H   UNL     1      51.975   7.819  10.893  0.00  0.00    +0.000 HD
ATOM     27  H   UNL     1      50.517   7.131  10.269  0.00  0.00    +0.000 HD
ENDBRANCH  17  24
ENDBRANCH  16  20
ENDBRANCH  15  16
ENDBRANCH   1  15
TORSDOF 5
ENDMDL
MODEL 6
REMARK VINA RESULT:    -8.386      3.809      7.075
REMARK INTER + INTRA:         -11.829
REMARK INTER:                 -10.852
REMARK INTRA:                  -0.977
REMARK UNBOUND:                -0.992
REMARK  Name = 
REMARK  5 active torsions:
REMARK  status: ('A' for Active; 'I' for Inactive)
REMARK    1  A    between atoms: C_2  and  C_4
REMARK    2  A    between atoms: C_7  and  O_8
REMARK    3  A    between atoms: O_8  and  C_9
REMARK    4  A    between atoms: C_9  and  C_10
REMARK    5  A    between atoms: C_14  and  C_15
REMARK                            x       y       z     vdW  Elec       q    Type
REMARK                         _______ _______ _______ _____ _____    ______ ____
ROOT
ATOM      1  C   UNL     1      44.113   5.263  11.155  0.00  0.00    +0.000 A 
ATOM      2  C   UNL     1      43.287   4.383  11.854  0.00  0.00    +0.000 A 
ATOM      3  C   UNL     1      43.219   3.067  11.431  0.00  0.00    +0.000 A 
ATOM      4  N   UNL     1      43.912   2.575  10.381  0.00  0.00    +0.000 NA
ATOM      5  C   UNL     1      44.722   3.425   9.704  0.00  0.00    +0.000 A 
ATOM      6  C   UNL     1      44.817   4.772  10.050  0.00  0.00    +0.000 A 
ENDROOT
BRANCH   5   7
ATOM      7  C   UNL     1      45.508   2.834   8.602  0.00  0.00    +0.000 A 
ATOM      8  C   UNL     1      45.869   3.597   7.477  0.00  0.00    +0.000 A 
ATOM      9  C   UNL     1      46.601   3.029   6.436  0.00  0.00    +0.000 A 
ATOM     10  F   UNL     1      46.933   3.782   5.380  0.00  0.00    +0.000 F 
ATOM     11  C   UNL     1      46.991   1.700   6.472  0.00  0.00    +0.000 A 
ATOM     12  C   UNL     1      46.635   0.937   7.570  0.00  0.00    +0.000 A 
ATOM     13  F   UNL     1      46.995  -0.352   7.626  0.00  0.00    +0.000 F 
ATOM     14  C   UNL     1      45.905   1.483   8.623  0.00  0.00    +0.000 A 
ENDBRANCH   5   7
BRANCH   1  15
ATOM     15  C   UNL     1      44.191   6.720  11.539  0.00  0.00    +0.000 C 
BRANCH  15  16
ATOM     16  O   UNL     1      44.951   6.870  12.741  0.00  0.00    +0.000 OA
BRANCH  16  20
ATOM     17  C   UNL     1      48.966   7.843  12.190  0.00  0.00    +0.000 A 
ATOM     18  C   UNL     1      48.646   6.558  12.643  0.00  0.00    +0.000 A 
ATOM     19  C   UNL     1      47.312   6.196  12.845  0.00  0.00    +0.000 A 
ATOM     20  C   UNL     1      46.289   7.113  12.598  0.00  0.00    +0.000 A 
ATOM     21  C   UNL     1      46.612   8.403  12.166  0.00  0.00    +0.000 A 
ATOM     22  C   UNL     1      47.947   8.773  11.968  0.00  0.00    +0.000 A 
BRANCH  17  24
ATOM     23  N   UNL     1      51.180   7.353  11.309  0.00  0.00    +0.000 N 
ATOM     24  C   UNL     1      50.374   8.251  11.954  0.00  0.00    +0.000 C 
ATOM     25  O   UNL     1      50.789   9.354  12.281  0.00  0.00    +0.000 OA
ATOM     26  H   UNL     1      52.100   7.687  11.053  0.00  0.00    +0.000 HD
ATOM     27  H   UNL     1      50.809   6.567  10.795  0.00  0.00    +0.000 HD
ENDBRANCH  17  24
ENDBRANCH  16  20
ENDBRANCH  15  16
ENDBRANCH   1  15
TORSDOF 5
ENDMDL
MODEL 7
REMARK VINA RESULT:    -8.312      1.687      2.499
REMARK INTER + INTRA:         -11.734
REMARK INTER:                 -10.877
REMARK INTRA:                  -0.857
REMARK UNBOUND:                -0.992
REMARK  Name = 
REMARK  5 active torsions:
REMARK  status: ('A' for Active; 'I' for Inactive)
REMARK    1  A    between atoms: C_2  and  C_4
REMARK    2  A    between atoms: C_7  and  O_8
REMARK    3  A    between atoms: O_8  and  C_9
REMARK    4  A    between atoms: C_9  and  C_10
REMARK    5  A    between atoms: C_14  and  C_15
REMARK                            x       y       z     vdW  Elec       q    Type
REMARK                         _______ _______ _______ _____ _____    ______ ____
ROOT
ATOM      1  C   UNL     1      44.470   4.913  11.680  0.00  0.00    +0.000 A 
ATOM      2  C   UNL     1      43.565   5.931  11.380  0.00  0.00    +0.000 A 
ATOM      3  C   UNL     1      43.996   7.244  11.472  0.00  0.00    +0.000 A 
ATOM      4  N   UNL     1      45.248   7.603  11.830  0.00  0.00    +0.000 NA
ATOM      5  C   UNL     1      46.133   6.616  12.114  0.00  0.00    +0.000 A 
ATOM      6  C   UNL     1      45.762   5.273  12.077  0.00  0.00    +0.000 A 
ENDROOT
BRANCH   5   7
ATOM      7  C   UNL     1      47.506   7.049  12.441  0.00  0.00    +0.000 A 
ATOM      8  C   UNL     1      48.094   6.728  13.678  0.00  0.00    +0.000 A 
ATOM      9  C   UNL     1      49.386   7.150  13.984  0.00  0.00    +0.000 A 
ATOM     10  F   UNL     1      49.920   6.825  15.168  0.00  0.00    +0.000 F 
ATOM     11  C   UNL     1      50.129   7.901  13.087  0.00  0.00    +0.000 A 
ATOM     12  C   UNL     1      49.559   8.230  11.870  0.00  0.00    +0.000 A 
ATOM     13  F   UNL     1      50.255   8.960  10.989  0.00  0.00    +0.000 F 
ATOM     14  C   UNL     1      48.269   7.818  11.542  0.00  0.00    +0.000 A 
ENDBRANCH   5   7
BRANCH   1  15
ATOM     15  C   UNL     1      44.044   3.466  11.645  0.00  0.00    +0.000 C 
BRANCH  15  16
ATOM     16  O   UNL     1      43.566   3.128  10.340  0.00  0.00    +0.000 OA
BRANCH  16  20
ATOM     17  C   UNL     1      46.481   2.576   7.412  0.00  0.00    +0.000 A 
ATOM     18  C   UNL     1      45.872   3.831   7.520  0.00  0.00    +0.000 A 
ATOM     19  C   UNL     1      44.887   4.054   8.486  0.00  0.00    +0.000 A 
ATOM     20  C   UNL     1      44.502   3.026   9.348  0.00  0.00    +0.000 A 
ATOM     21  C   UNL     1      45.096   1.766   9.223  0.00  0.00    +0.000 A 
ATOM     22  C   UNL     1      46.078   1.536   8.255  0.00  0.00    +0.000 A 
BRANCH  17  24
ATOM     23  N   UNL     1      47.482   3.035   5.243  0.00  0.00    +0.000 N 
ATOM     24  C   UNL     1      47.540   2.314   6.404  0.00  0.00    +0.000 C 
ATOM     25  O   UNL     1      48.447   1.522   6.613  0.00  0.00    +0.000 OA
ATOM     26  H   UNL     1      48.271   2.932   4.618  0.00  0.00    +0.000 HD
ATOM     27  H   UNL     1      46.922   3.871   5.155  0.00  0.00    +0.000 HD
ENDBRANCH  17  24
ENDBRANCH  16  20
ENDBRANCH  15  16
ENDBRANCH   1  15
TORSDOF 5
ENDMDL
MODEL 8
REMARK VINA RESULT:    -7.853      4.132      7.696
REMARK INTER + INTRA:         -11.141
REMARK INTER:                 -10.476
REMARK INTRA:                  -0.665
REMARK UNBOUND:                -0.992
REMARK  Name = 
REMARK  5 active torsions:
REMARK  status: ('A' for Active; 'I' for Inactive)
REMARK    1  A    between atoms: C_2  and  C_4
REMARK    2  A    between atoms: C_7  and  O_8
REMARK    3  A    between atoms: O_8  and  C_9
REMARK    4  A    between atoms: C_9  and  C_10
REMARK    5  A    between atoms: C_14  and  C_15
REMARK                            x       y       z     vdW  Elec       q    Type
REMARK                         _______ _______ _______ _____ _____    ______ ____
ROOT
ATOM      1  C   UNL     1      45.268   6.016  11.303  0.00  0.00    +0.000 A 
ATOM      2  C   UNL     1      43.905   5.849  11.547  0.00  0.00    +0.000 A 
ATOM      3  C   UNL     1      43.208   4.924  10.787  0.00  0.00    +0.000 A 
ATOM      4  N   UNL     1      43.771   4.163   9.823  0.00  0.00    +0.000 NA
ATOM      5  C   UNL     1      45.097   4.317   9.589  0.00  0.00    +0.000 A 
ATOM      6  C   UNL     1      45.857   5.252  10.290  0.00  0.00    +0.000 A 
ENDROOT
BRANCH   5   7
ATOM      7  C   UNL     1      45.684   3.423   8.571  0.00  0.00    +0.000 A 
ATOM      8  C   UNL     1      46.098   3.919   7.321  0.00  0.00    +0.000 A 
ATOM      9  C   UNL     1      46.641   3.068   6.360  0.00  0.00    +0.000 A 
ATOM     10  F   UNL     1      47.029   3.570   5.182  0.00  0.00    +0.000 F 
ATOM     11  C   UNL     1      46.786   1.711   6.601  0.00  0.00    +0.000 A 
ATOM     12  C   UNL     1      46.376   1.210   7.824  0.00  0.00    +0.000 A 
ATOM     13  F   UNL     1      46.500  -0.099   8.079  0.00  0.00    +0.000 F 
ATOM     14  C   UNL     1      45.832   2.042   8.799  0.00  0.00    +0.000 A 
ENDBRANCH   5   7
BRANCH   1  15
ATOM     15  C   UNL     1      46.069   7.043  12.065  0.00  0.00    +0.000 C 
BRANCH  15  16
ATOM     16  O   UNL     1      47.368   6.527  12.364  0.00  0.00    +0.000 OA
BRANCH  16  20
ATOM     17  C   UNL     1      47.777   4.905  16.183  0.00  0.00    +0.000 A 
ATOM     18  C   UNL     1      48.494   6.066  15.869  0.00  0.00    +0.000 A 
ATOM     19  C   UNL     1      48.387   6.637  14.598  0.00  0.00    +0.000 A 
ATOM     20  C   UNL     1      47.566   6.052  13.631  0.00  0.00    +0.000 A 
ATOM     21  C   UNL     1      46.869   4.881  13.940  0.00  0.00    +0.000 A 
ATOM     22  C   UNL     1      46.977   4.302  15.208  0.00  0.00    +0.000 A 
BRANCH  17  24
ATOM     23  N   UNL     1      47.226   3.084  17.698  0.00  0.00    +0.000 N 
ATOM     24  C   UNL     1      47.860   4.285  17.529  0.00  0.00    +0.000 C 
ATOM     25  O   UNL     1      48.499   4.798  18.436  0.00  0.00    +0.000 OA
ATOM     26  H   UNL     1      47.387   2.619  18.582  0.00  0.00    +0.000 HD
ATOM     27  H   UNL     1      46.930   2.516  16.918  0.00  0.00    +0.000 HD
ENDBRANCH  17  24
ENDBRANCH  16  20
ENDBRANCH  15  16
ENDBRANCH   1  15
TORSDOF 5
ENDMDL
MODEL 9
REMARK VINA RESULT:    -6.960      4.841      8.318
REMARK INTER + INTRA:          -9.987
REMARK INTER:                  -9.183
REMARK INTRA:                  -0.805
REMARK UNBOUND:                -0.992
REMARK  Name = 
REMARK  5 active torsions:
REMARK  status: ('A' for Active; 'I' for Inactive)
REMARK    1  A    between atoms: C_2  and  C_4
REMARK    2  A    between atoms: C_7  and  O_8
REMARK    3  A    between atoms: O_8  and  C_9
REMARK    4  A    between atoms: C_9  and  C_10
REMARK    5  A    between atoms: C_14  and  C_15
REMARK                            x       y       z     vdW  Elec       q    Type
REMARK                         _______ _______ _______ _____ _____    ______ ____
ROOT
ATOM      1  C   UNL     1      47.098   7.560  13.160  0.00  0.00    +0.000 A 
ATOM      2  C   UNL     1      46.328   8.710  12.986  0.00  0.00    +0.000 A 
ATOM      3  C   UNL     1      45.257   8.659  12.110  0.00  0.00    +0.000 A 
ATOM      4  N   UNL     1      44.903   7.556  11.414  0.00  0.00    +0.000 NA
ATOM      5  C   UNL     1      45.644   6.433  11.588  0.00  0.00    +0.000 A 
ATOM      6  C   UNL     1      46.757   6.418  12.427  0.00  0.00    +0.000 A 
ENDROOT
BRANCH   5   7
ATOM      7  C   UNL     1      45.187   5.235  10.857  0.00  0.00    +0.000 A 
ATOM      8  C   UNL     1      44.428   4.239  11.498  0.00  0.00    +0.000 A 
ATOM      9  C   UNL     1      44.010   3.104  10.804  0.00  0.00    +0.000 A 
ATOM     10  F   UNL     1      43.286   2.175  11.441  0.00  0.00    +0.000 F 
ATOM     11  C   UNL     1      44.330   2.919   9.469  0.00  0.00    +0.000 A 
ATOM     12  C   UNL     1      45.083   3.888   8.830  0.00  0.00    +0.000 A 
ATOM     13  F   UNL     1      45.411   3.729   7.541  0.00  0.00    +0.000 F 
ATOM     14  C   UNL     1      45.511   5.030   9.502  0.00  0.00    +0.000 A 
ENDBRANCH   5   7
BRANCH   1  15
ATOM     15  C   UNL     1      48.306   7.569  14.064  0.00  0.00    +0.000 C 
BRANCH  15  16
ATOM     16  O   UNL     1      48.642   6.233  14.446  0.00  0.00    +0.000 OA
BRANCH  16  20
ATOM     17  C   UNL     1      48.136   5.375  18.494  0.00  0.00    +0.000 A 
ATOM     18  C   UNL     1      47.537   4.531  17.552  0.00  0.00    +0.000 A 
ATOM     19  C   UNL     1      47.679   4.788  16.185  0.00  0.00    +0.000 A 
ATOM     20  C   UNL     1      48.418   5.890  15.751  0.00  0.00    +0.000 A 
ATOM     21  C   UNL     1      48.997   6.744  16.694  0.00  0.00    +0.000 A 
ATOM     22  C   UNL     1      48.852   6.495  18.062  0.00  0.00    +0.000 A 
BRANCH  17  24
ATOM     23  N   UNL     1      48.621   3.994  20.436  0.00  0.00    +0.000 N 
ATOM     24  C   UNL     1      48.012   5.119  19.951  0.00  0.00    +0.000 C 
ATOM     25  O   UNL     1      47.429   5.894  20.695  0.00  0.00    +0.000 OA
ATOM     26  H   UNL     1      48.628   3.893  21.443  0.00  0.00    +0.000 HD
ATOM     27  H   UNL     1      49.323   3.492  19.911  0.00  0.00    +0.000 HD
ENDBRANCH  17  24
ENDBRANCH  16  20
ENDBRANCH  15  16
ENDBRANCH   1  15
TORSDOF 5
ENDMDL
