MODEL 1
REMARK VINA RESULT:    -7.726      0.000      0.000
REMARK INTER + INTRA:         -12.311
REMARK INTER:                 -11.339
REMARK INTRA:                  -0.972
REMARK UNBOUND:                -0.972
REMARK  Name = 
REMARK  9 active torsions:
REMARK  status: ('A' for Active; 'I' for Inactive)
REMARK    1  A    between atoms: C_1  and  C_2
REMARK    2  A    between atoms: C_2  and  C_3
REMARK    3  A    between atoms: C_2  and  C_17
REMARK    4  A    between atoms: C_3  and  N_4
REMARK    5  A    between atoms: N_4  and  C_5
REMARK    6  A    between atoms: C_8  and  C_9
REMARK    7  A    between atoms: C_13  and  N_14
REMARK    8  A    between atoms: C_22  and  O_23
REMARK    9  A    between atoms: O_23  and  C_24
REMARK                            x       y       z     vdW  Elec       q    Type
REMARK                         _______ _______ _______ _____ _____    ______ ____
ROOT
ATOM      1  N   UNL     1      47.056   5.099  13.431  0.00  0.00    +0.000 N 
ATOM      2  H   UNL     1      47.864   5.375  12.868  0.00  0.00    +0.000 HD
ENDROOT
BRANCH   1   3
ATOM      3  C   UNL     1      47.426   5.025  14.782  0.00  0.00    +0.000 A 
ATOM      4  N   UNL     1      46.941   3.964  15.474  0.00  0.00    +0.000 NA
ATOM      5  C   UNL     1      47.296   3.787  16.768  0.00  0.00    +0.000 A 
ATOM      6  C   UNL     1      48.144   4.633  17.455  0.00  0.00    +0.000 A 
ATOM      7  C   UNL     1      48.671   5.714  16.750  0.00  0.00    +0.000 A 
ATOM      8  C   UNL     1      48.321   5.911  15.404  0.00  0.00    +0.000 A 
BRANCH   6   9
ATOM      9  C   UNL     1      48.491   4.460  18.882  0.00  0.00    +0.000 C 
ATOM     10  N   UNL     1      48.212   3.274  19.496  0.00  0.00    +0.000 N 
ATOM     11  O   UNL     1      49.013   5.373  19.514  0.00  0.00    +0.000 OA
ATOM     12  H   UNL     1      47.775   2.466  19.079  0.00  0.00    +0.000 HD
ATOM     13  H   UNL     1      48.454   3.209  20.477  0.00  0.00    +0.000 HD
ENDBRANCH   6   9
BRANCH   8  14
ATOM     14  N   UNL     1      48.837   7.102  14.725  0.00  0.00    +0.000 N 
ATOM     15  O   UNL     1      48.648   8.211  15.250  0.00  0.00    +0.000 OA
ATOM     16  O   UNL     1      49.477   6.935  13.679  0.00  0.00    +0.000 OA
ENDBRANCH   8  14
ENDBRANCH   1   3
BRANCH   1  17
ATOM     17  C   UNL     1      45.882   5.953  13.177  0.00  0.00    +0.000 C 
BRANCH  17  19
ATOM     18  C   UNL     1      44.696   7.373  11.411  0.00  0.00    +0.000 C 
ATOM     19  C   UNL     1      45.695   6.234  11.665  0.00  0.00    +0.000 C 
BRANCH  19  20
ATOM     20  C   UNL     1      45.248   4.990  10.894  0.00  0.00    +0.000 A 
ATOM     21  C   UNL     1      44.414   4.036  11.497  0.00  0.00    +0.000 A 
ATOM     22  C   UNL     1      43.951   2.947  10.766  0.00  0.00    +0.000 A 
ATOM     23  F   UNL     1      43.147   2.051  11.351  0.00  0.00    +0.000 F 
ATOM     24  C   UNL     1      44.297   2.788   9.430  0.00  0.00    +0.000 A 
ATOM     25  C   UNL     1      45.115   3.726   8.806  0.00  0.00    +0.000 A 
ATOM     26  C   UNL     1      45.613   4.811   9.538  0.00  0.00    +0.000 A 
BRANCH  25  27
ATOM     27  O   UNL     1      45.373   3.459   7.482  0.00  0.00    +0.000 OA
BRANCH  27  28
ATOM     28  C   UNL     1      46.726   3.194   7.051  0.00  0.00    +0.000 C 
ATOM     29  C   UNL     1      46.972   2.800   5.586  0.00  0.00    +0.000 C 
ATOM     30  O   UNL     1      47.749   1.643   5.984  0.00  0.00    +0.000 OA
ATOM     31  C   UNL     1      47.247   1.771   7.338  0.00  0.00    +0.000 C 
ENDBRANCH  27  28
ENDBRANCH  25  27
ENDBRANCH  19  20
ENDBRANCH  17  19
ENDBRANCH   1  17
TORSDOF 8
ENDMDL
MODEL 2
REMARK VINA RESULT:    -7.723      3.415      8.570
REMARK INTER + INTRA:         -12.308
REMARK INTER:                 -11.182
REMARK INTRA:                  -1.126
REMARK UNBOUND:                -0.972
REMARK  Name = 
REMARK  9 active torsions:
REMARK  status: ('A' for Active; 'I' for Inactive)
REMARK    1  A    between atoms: C_1  and  C_2
REMARK    2  A    between atoms: C_2  and  C_3
REMARK    3  A    between atoms: C_2  and  C_17
REMARK    4  A    between atoms: C_3  and  N_4
REMARK    5  A    between atoms: N_4  and  C_5
REMARK    6  A    between atoms: C_8  and  C_9
REMARK    7  A    between atoms: C_13  and  N_14
REMARK    8  A    between atoms: C_22  and  O_23
REMARK    9  A    between atoms: O_23  and  C_24
REMARK                            x       y       z     vdW  Elec       q    Type
REMARK                         _______ _______ _______ _____ _____    ______ ____
ROOT
ATOM      1  N   UNL     1      44.811   5.659   9.915  0.00  0.00    +0.000 N 
ATOM      2  H   UNL     1      44.452   6.312   9.214  0.00  0.00    +0.000 HD
ENDROOT
BRANCH   1   3
ATOM      3  C   UNL     1      45.261   4.490   9.283  0.00  0.00    +0.000 A 
ATOM      4  N   UNL     1      46.009   4.668   8.166  0.00  0.00    +0.000 NA
ATOM      5  C   UNL     1      46.531   3.594   7.528  0.00  0.00    +0.000 A 
ATOM      6  C   UNL     1      46.351   2.290   7.947  0.00  0.00    +0.000 A 
ATOM      7  C   UNL     1      45.605   2.093   9.108  0.00  0.00    +0.000 A 
ATOM      8  C   UNL     1      45.062   3.195   9.788  0.00  0.00    +0.000 A 
BRANCH   6   9
ATOM      9  C   UNL     1      46.884   1.118   7.219  0.00  0.00    +0.000 C 
ATOM     10  N   UNL     1      46.666  -0.132   7.720  0.00  0.00    +0.000 N 
ATOM     11  O   UNL     1      47.526   1.265   6.184  0.00  0.00    +0.000 OA
ATOM     12  H   UNL     1      46.168  -0.366   8.564  0.00  0.00    +0.000 HD
ATOM     13  H   UNL     1      47.065  -0.901   7.195  0.00  0.00    +0.000 HD
ENDBRANCH   6   9
BRANCH   8  14
ATOM     14  N   UNL     1      44.222   2.935  10.959  0.00  0.00    +0.000 N 
ATOM     15  O   UNL     1      44.763   2.520  11.996  0.00  0.00    +0.000 OA
ATOM     16  O   UNL     1      43.014   3.188  10.867  0.00  0.00    +0.000 OA
ENDBRANCH   8  14
ENDBRANCH   1   3
BRANCH   1  17
ATOM     17  C   UNL     1      45.811   6.286  10.799  0.00  0.00    +0.000 C 
BRANCH  17  19
ATOM     18  C   UNL     1      44.363   5.977  12.883  0.00  0.00    +0.000 C 
ATOM     19  C   UNL     1      45.734   5.723  12.240  0.00  0.00    +0.000 C 
BRANCH  19  20
ATOM     20  C   UNL     1      46.829   6.292  13.144  0.00  0.00    +0.000 A 
ATOM     21  C   UNL     1      47.266   7.617  12.993  0.00  0.00    +0.000 A 
ATOM     22  C   UNL     1      48.207   8.149  13.868  0.00  0.00    +0.000 A 
ATOM     23  F   UNL     1      48.606   9.418  13.718  0.00  0.00    +0.000 F 
ATOM     24  C   UNL     1      48.725   7.387  14.907  0.00  0.00    +0.000 A 
ATOM     25  C   UNL     1      48.301   6.073  15.085  0.00  0.00    +0.000 A 
ATOM     26  C   UNL     1      47.375   5.513  14.193  0.00  0.00    +0.000 A 
BRANCH  25  27
ATOM     27  O   UNL     1      48.880   5.431  16.154  0.00  0.00    +0.000 OA
BRANCH  27  28
ATOM     28  C   UNL     1      48.073   4.601  17.019  0.00  0.00    +0.000 C 
ATOM     29  C   UNL     1      48.454   4.491  18.504  0.00  0.00    +0.000 C 
ATOM     30  O   UNL     1      48.415   3.043  18.450  0.00  0.00    +0.000 OA
ATOM     31  C   UNL     1      48.413   3.098  17.001  0.00  0.00    +0.000 C 
ENDBRANCH  27  28
ENDBRANCH  25  27
ENDBRANCH  19  20
ENDBRANCH  17  19
ENDBRANCH   1  17
TORSDOF 8
ENDMDL
MODEL 3
REMARK VINA RESULT:    -7.663      1.575      2.431
REMARK INTER + INTRA:         -12.220
REMARK INTER:                 -11.171
REMARK INTRA:                  -1.049
REMARK UNBOUND:                -0.972
REMARK  Name = 
REMARK  9 active torsions:
REMARK  status: ('A' for Active; 'I' for Inactive)
REMARK    1  A    between atoms: C_1  and  C_2
REMARK    2  A    between atoms: C_2  and  C_3
REMARK    3  A    between atoms: C_2  and  C_17
REMARK    4  A    between atoms: C_3  and  N_4
REMARK    5  A    between atoms: N_4  and  C_5
REMARK    6  A    between atoms: C_8  and  C_9
REMARK    7  A    between atoms: C_13  and  N_14
REMARK    8  A    between atoms: C_22  and  O_23
REMARK    9  A    between atoms: O_23  and  C_24
REMARK                            x       y       z     vdW  Elec       q    Type
REMARK                         _______ _______ _______ _____ _____    ______ ____
ROOT
ATOM      1  N   UNL     1      47.165   5.469  13.292  0.00  0.00    +0.000 N 
ATOM      2  H   UNL     1      47.791   5.528  12.484  0.00  0.00    +0.000 HD
ENDROOT
BRANCH   1   3
ATOM      3  C   UNL     1      47.846   5.882  14.446  0.00  0.00    +0.000 A 
ATOM      4  N   UNL     1      48.426   7.107  14.389  0.00  0.00    +0.000 NA
ATOM      5  C   UNL     1      49.054   7.605  15.479  0.00  0.00    +0.000 A 
ATOM      6  C   UNL     1      49.147   6.937  16.684  0.00  0.00    +0.000 A 
ATOM      7  C   UNL     1      48.534   5.688  16.767  0.00  0.00    +0.000 A 
ATOM      8  C   UNL     1      47.871   5.157  15.649  0.00  0.00    +0.000 A 
BRANCH   6   9
ATOM      9  C   UNL     1      49.875   7.467  17.857  0.00  0.00    +0.000 C 
ATOM     10  N   UNL     1      50.967   8.260  17.661  0.00  0.00    +0.000 N 
ATOM     11  O   UNL     1      49.511   7.190  18.996  0.00  0.00    +0.000 OA
ATOM     12  H   UNL     1      51.361   8.537  16.775  0.00  0.00    +0.000 HD
ATOM     13  H   UNL     1      51.441   8.585  18.495  0.00  0.00    +0.000 HD
ENDBRANCH   6   9
BRANCH   8  14
ATOM     14  N   UNL     1      47.307   3.809  15.757  0.00  0.00    +0.000 N 
ATOM     15  O   UNL     1      47.530   2.999  14.844  0.00  0.00    +0.000 OA
ATOM     16  O   UNL     1      46.672   3.533  16.783  0.00  0.00    +0.000 OA
ENDBRANCH   8  14
ENDBRANCH   1   3
BRANCH   1  17
ATOM     17  C   UNL     1      45.891   6.176  13.061  0.00  0.00    +0.000 C 
BRANCH  17  19
ATOM     18  C   UNL     1      44.565   7.494  11.317  0.00  0.00    +0.000 C 
ATOM     19  C   UNL     1      45.637   6.420  11.553  0.00  0.00    +0.000 C 
BRANCH  19  20
ATOM     20  C   UNL     1      45.238   5.139  10.817  0.00  0.00    +0.000 A 
ATOM     21  C   UNL     1      44.403   4.191  11.430  0.00  0.00    +0.000 A 
ATOM     22  C   UNL     1      43.984   3.067  10.727  0.00  0.00    +0.000 A 
ATOM     23  F   UNL     1      43.180   2.177  11.321  0.00  0.00    +0.000 F 
ATOM     24  C   UNL     1      44.375   2.864   9.410  0.00  0.00    +0.000 A 
ATOM     25  C   UNL     1      45.194   3.794   8.775  0.00  0.00    +0.000 A 
ATOM     26  C   UNL     1      45.649   4.917   9.481  0.00  0.00    +0.000 A 
BRANCH  25  27
ATOM     27  O   UNL     1      45.498   3.483   7.471  0.00  0.00    +0.000 OA
BRANCH  27  28
ATOM     28  C   UNL     1      46.854   3.140   7.110  0.00  0.00    +0.000 C 
ATOM     29  C   UNL     1      47.171   2.825   5.640  0.00  0.00    +0.000 C 
ATOM     30  O   UNL     1      47.829   1.585   6.003  0.00  0.00    +0.000 OA
ATOM     31  C   UNL     1      47.245   1.664   7.327  0.00  0.00    +0.000 C 
ENDBRANCH  27  28
ENDBRANCH  25  27
ENDBRANCH  19  20
ENDBRANCH  17  19
ENDBRANCH   1  17
TORSDOF 8
ENDMDL
MODEL 4
REMARK VINA RESULT:    -7.581      3.273      4.737
REMARK INTER + INTRA:         -12.098
REMARK INTER:                 -10.772
REMARK INTRA:                  -1.326
REMARK UNBOUND:                -0.972
REMARK  Name = 
REMARK  9 active torsions:
REMARK  status: ('A' for Active; 'I' for Inactive)
REMARK    1  A    between atoms: C_1  and  C_2
REMARK    2  A    between atoms: C_2  and  C_3
REMARK    3  A    between atoms: C_2  and  C_17
REMARK    4  A    between atoms: C_3  and  N_4
REMARK    5  A    between atoms: N_4  and  C_5
REMARK    6  A    between atoms: C_8  and  C_9
REMARK    7  A    between atoms: C_13  and  N_14
REMARK    8  A    between atoms: C_22  and  O_23
REMARK    9  A    between atoms: O_23  and  C_24
REMARK                            x       y       z     vdW  Elec       q    Type
REMARK                         _______ _______ _______ _____ _____    ______ ____
ROOT
ATOM      1  N   UNL     1      48.221   6.491  16.326  0.00  0.00    +0.000 N 
ATOM      2  H   UNL     1      47.328   6.173  15.942  0.00  0.00    +0.000 HD
ENDROOT
BRANCH   1   3
ATOM      3  C   UNL     1      49.014   5.382  16.658  0.00  0.00    +0.000 A 
ATOM      4  N   UNL     1      50.317   5.643  16.929  0.00  0.00    +0.000 NA
ATOM      5  C   UNL     1      51.137   4.638  17.314  0.00  0.00    +0.000 A 
ATOM      6  C   UNL     1      50.730   3.325  17.455  0.00  0.00    +0.000 A 
ATOM      7  C   UNL     1      49.388   3.046  17.204  0.00  0.00    +0.000 A 
ATOM      8  C   UNL     1      48.519   4.077  16.812  0.00  0.00    +0.000 A 
BRANCH   6   9
ATOM      9  C   UNL     1      51.643   2.224  17.830  0.00  0.00    +0.000 C 
ATOM     10  N   UNL     1      51.274   0.936  17.571  0.00  0.00    +0.000 N 
ATOM     11  O   UNL     1      52.714   2.459  18.379  0.00  0.00    +0.000 OA
ATOM     12  H   UNL     1      50.415   0.629  17.140  0.00  0.00    +0.000 HD
ATOM     13  H   UNL     1      51.924   0.216  17.861  0.00  0.00    +0.000 HD
ENDBRANCH   6   9
BRANCH   8  14
ATOM     14  N   UNL     1      47.135   3.724  16.484  0.00  0.00    +0.000 N 
ATOM     15  O   UNL     1      46.697   4.028  15.363  0.00  0.00    +0.000 OA
ATOM     16  O   UNL     1      46.486   3.098  17.331  0.00  0.00    +0.000 OA
ENDBRANCH   8  14
ENDBRANCH   1   3
BRANCH   1  17
ATOM     17  C   UNL     1      48.891   7.465  15.444  0.00  0.00    +0.000 C 
BRANCH  17  19
ATOM     18  C   UNL     1      49.984   7.719  13.146  0.00  0.00    +0.000 C 
ATOM     19  C   UNL     1      48.921   6.980  13.974  0.00  0.00    +0.000 C 
BRANCH  19  20
ATOM     20  C   UNL     1      47.560   7.120  13.288  0.00  0.00    +0.000 A 
ATOM     21  C   UNL     1      46.800   8.290  13.439  0.00  0.00    +0.000 A 
ATOM     22  C   UNL     1      45.600   8.440  12.752  0.00  0.00    +0.000 A 
ATOM     23  F   UNL     1      44.891   9.565  12.896  0.00  0.00    +0.000 F 
ATOM     24  C   UNL     1      45.137   7.443  11.902  0.00  0.00    +0.000 A 
ATOM     25  C   UNL     1      45.877   6.277  11.727  0.00  0.00    +0.000 A 
ATOM     26  C   UNL     1      47.073   6.100  12.436  0.00  0.00    +0.000 A 
BRANCH  25  27
ATOM     27  O   UNL     1      45.316   5.377  10.853  0.00  0.00    +0.000 OA
BRANCH  27  28
ATOM     28  C   UNL     1      44.866   4.091  11.334  0.00  0.00    +0.000 C 
ATOM     29  C   UNL     1      44.183   3.131  10.348  0.00  0.00    +0.000 C 
ATOM     30  O   UNL     1      43.063   2.936  11.248  0.00  0.00    +0.000 OA
ATOM     31  C   UNL     1      43.487   4.086  12.023  0.00  0.00    +0.000 C 
ENDBRANCH  27  28
ENDBRANCH  25  27
ENDBRANCH  19  20
ENDBRANCH  17  19
ENDBRANCH   1  17
TORSDOF 8
ENDMDL
MODEL 5
REMARK VINA RESULT:    -7.025      2.423      3.940
REMARK INTER + INTRA:         -11.283
REMARK INTER:                 -10.416
REMARK INTRA:                  -0.867
REMARK UNBOUND:                -0.972
REMARK  Name = 
REMARK  9 active torsions:
REMARK  status: ('A' for Active; 'I' for Inactive)
REMARK    1  A    between atoms: C_1  and  C_2
REMARK    2  A    between atoms: C_2  and  C_3
REMARK    3  A    between atoms: C_2  and  C_17
REMARK    4  A    between atoms: C_3  and  N_4
REMARK    5  A    between atoms: N_4  and  C_5
REMARK    6  A    between atoms: C_8  and  C_9
REMARK    7  A    between atoms: C_13  and  N_14
REMARK    8  A    between atoms: C_22  and  O_23
REMARK    9  A    between atoms: O_23  and  C_24
REMARK                            x       y       z     vdW  Elec       q    Type
REMARK                         _______ _______ _______ _____ _____    ______ ____
ROOT
ATOM      1  N   UNL     1      46.575   7.484  13.454  0.00  0.00    +0.000 N 
ATOM      2  H   UNL     1      46.391   7.512  14.460  0.00  0.00    +0.000 HD
ENDROOT
BRANCH   1   3
ATOM      3  C   UNL     1      47.941   7.697  13.219  0.00  0.00    +0.000 A 
ATOM      4  N   UNL     1      48.256   8.295  12.043  0.00  0.00    +0.000 NA
ATOM      5  C   UNL     1      49.547   8.589  11.763  0.00  0.00    +0.000 A 
ATOM      6  C   UNL     1      50.600   8.317  12.615  0.00  0.00    +0.000 A 
ATOM      7  C   UNL     1      50.289   7.725  13.839  0.00  0.00    +0.000 A 
ATOM      8  C   UNL     1      48.954   7.420  14.151  0.00  0.00    +0.000 A 
BRANCH   6   9
ATOM      9  C   UNL     1      52.013   8.597  12.283  0.00  0.00    +0.000 C 
ATOM     10  N   UNL     1      52.996   7.871  12.889  0.00  0.00    +0.000 N 
ATOM     11  O   UNL     1      52.303   9.480  11.483  0.00  0.00    +0.000 OA
ATOM     12  H   UNL     1      52.873   7.137  13.568  0.00  0.00    +0.000 HD
ATOM     13  H   UNL     1      53.948   8.112  12.641  0.00  0.00    +0.000 HD
ENDBRANCH   6   9
BRANCH   8  14
ATOM     14  N   UNL     1      48.683   6.729  15.414  0.00  0.00    +0.000 N 
ATOM     15  O   UNL     1      48.387   5.525  15.379  0.00  0.00    +0.000 OA
ATOM     16  O   UNL     1      48.808   7.377  16.461  0.00  0.00    +0.000 OA
ENDBRANCH   8  14
ENDBRANCH   1   3
BRANCH   1  17
ATOM     17  C   UNL     1      46.041   6.263  12.824  0.00  0.00    +0.000 C 
BRANCH  17  19
ATOM     18  C   UNL     1      44.339   7.455  11.333  0.00  0.00    +0.000 C 
ATOM     19  C   UNL     1      45.563   6.528  11.375  0.00  0.00    +0.000 C 
BRANCH  19  20
ATOM     20  C   UNL     1      45.242   5.234  10.623  0.00  0.00    +0.000 A 
ATOM     21  C   UNL     1      44.448   4.240  11.216  0.00  0.00    +0.000 A 
ATOM     22  C   UNL     1      44.098   3.102  10.498  0.00  0.00    +0.000 A 
ATOM     23  F   UNL     1      43.331   2.168  11.072  0.00  0.00    +0.000 F 
ATOM     24  C   UNL     1      44.519   2.930   9.186  0.00  0.00    +0.000 A 
ATOM     25  C   UNL     1      45.300   3.905   8.571  0.00  0.00    +0.000 A 
ATOM     26  C   UNL     1      45.685   5.044   9.292  0.00  0.00    +0.000 A 
BRANCH  25  27
ATOM     27  O   UNL     1      45.640   3.621   7.270  0.00  0.00    +0.000 OA
BRANCH  27  28
ATOM     28  C   UNL     1      46.993   3.229   6.949  0.00  0.00    +0.000 C 
ATOM     29  C   UNL     1      47.315   2.790   5.512  0.00  0.00    +0.000 C 
ATOM     30  O   UNL     1      47.951   1.574   5.980  0.00  0.00    +0.000 OA
ATOM     31  C   UNL     1      47.360   1.770   7.290  0.00  0.00    +0.000 C 
ENDBRANCH  27  28
ENDBRANCH  25  27
ENDBRANCH  19  20
ENDBRANCH  17  19
ENDBRANCH   1  17
TORSDOF 8
ENDMDL
MODEL 6
REMARK VINA RESULT:    -6.959      3.395      4.460
REMARK INTER + INTRA:         -11.187
REMARK INTER:                 -10.135
REMARK INTRA:                  -1.051
REMARK UNBOUND:                -0.972
REMARK  Name = 
REMARK  9 active torsions:
REMARK  status: ('A' for Active; 'I' for Inactive)
REMARK    1  A    between atoms: C_1  and  C_2
REMARK    2  A    between atoms: C_2  and  C_3
REMARK    3  A    between atoms: C_2  and  C_17
REMARK    4  A    between atoms: C_3  and  N_4
REMARK    5  A    between atoms: N_4  and  C_5
REMARK    6  A    between atoms: C_8  and  C_9
REMARK    7  A    between atoms: C_13  and  N_14
REMARK    8  A    between atoms: C_22  and  O_23
REMARK    9  A    between atoms: O_23  and  C_24
REMARK                            x       y       z     vdW  Elec       q    Type
REMARK                         _______ _______ _______ _____ _____    ______ ____
ROOT
ATOM      1  N   UNL     1      47.913   6.546  14.840  0.00  0.00    +0.000 N 
ATOM      2  H   UNL     1      47.412   5.824  14.317  0.00  0.00    +0.000 HD
ENDROOT
BRANCH   1   3
ATOM      3  C   UNL     1      48.313   6.036  16.083  0.00  0.00    +0.000 A 
ATOM      4  N   UNL     1      48.852   6.931  16.948  0.00  0.00    +0.000 NA
ATOM      5  C   UNL     1      49.212   6.533  18.190  0.00  0.00    +0.000 A 
ATOM      6  C   UNL     1      49.065   5.241  18.656  0.00  0.00    +0.000 A 
ATOM      7  C   UNL     1      48.489   4.315  17.787  0.00  0.00    +0.000 A 
ATOM      8  C   UNL     1      48.101   4.711  16.497  0.00  0.00    +0.000 A 
BRANCH   6   9
ATOM      9  C   UNL     1      49.504   4.802  19.998  0.00  0.00    +0.000 C 
ATOM     10  N   UNL     1      48.690   3.989  20.731  0.00  0.00    +0.000 N 
ATOM     11  O   UNL     1      50.580   5.172  20.456  0.00  0.00    +0.000 OA
ATOM     12  H   UNL     1      47.784   3.638  20.461  0.00  0.00    +0.000 HD
ATOM     13  H   UNL     1      49.027   3.728  21.650  0.00  0.00    +0.000 HD
ENDBRANCH   6   9
BRANCH   8  14
ATOM     14  N   UNL     1      47.572   3.687  15.593  0.00  0.00    +0.000 N 
ATOM     15  O   UNL     1      46.531   3.934  14.964  0.00  0.00    +0.000 OA
ATOM     16  O   UNL     1      48.220   2.640  15.468  0.00  0.00    +0.000 OA
ENDBRANCH   8  14
ENDBRANCH   1   3
BRANCH   1  17
ATOM     17  C   UNL     1      49.009   7.143  14.054  0.00  0.00    +0.000 C 
BRANCH  17  19
ATOM     18  C   UNL     1      49.544   8.102  11.745  0.00  0.00    +0.000 C 
ATOM     19  C   UNL     1      48.733   7.063  12.533  0.00  0.00    +0.000 C 
BRANCH  19  20
ATOM     20  C   UNL     1      47.247   7.227  12.203  0.00  0.00    +0.000 A 
ATOM     21  C   UNL     1      46.606   8.463  12.385  0.00  0.00    +0.000 A 
ATOM     22  C   UNL     1      45.276   8.624  12.012  0.00  0.00    +0.000 A 
ATOM     23  F   UNL     1      44.681   9.811  12.180  0.00  0.00    +0.000 F 
ATOM     24  C   UNL     1      44.562   7.574  11.449  0.00  0.00    +0.000 A 
ATOM     25  C   UNL     1      45.178   6.341  11.248  0.00  0.00    +0.000 A 
ATOM     26  C   UNL     1      46.509   6.155  11.647  0.00  0.00    +0.000 A 
BRANCH  25  27
ATOM     27  O   UNL     1      44.367   5.391  10.674  0.00  0.00    +0.000 OA
BRANCH  27  28
ATOM     28  C   UNL     1      43.417   4.668  11.487  0.00  0.00    +0.000 C 
ATOM     29  C   UNL     1      43.726   4.461  12.978  0.00  0.00    +0.000 C 
ATOM     30  O   UNL     1      43.472   3.037  12.876  0.00  0.00    +0.000 OA
ATOM     31  C   UNL     1      43.528   3.131  11.430  0.00  0.00    +0.000 C 
ENDBRANCH  27  28
ENDBRANCH  25  27
ENDBRANCH  19  20
ENDBRANCH  17  19
ENDBRANCH   1  17
TORSDOF 8
ENDMDL
MODEL 7
REMARK VINA RESULT:    -6.857      3.618      8.627
REMARK INTER + INTRA:         -11.037
REMARK INTER:                 -10.057
REMARK INTRA:                  -0.980
REMARK UNBOUND:                -0.972
REMARK  Name = 
REMARK  9 active torsions:
REMARK  status: ('A' for Active; 'I' for Inactive)
REMARK    1  A    between atoms: C_1  and  C_2
REMARK    2  A    between atoms: C_2  and  C_3
REMARK    3  A    between atoms: C_2  and  C_17
REMARK    4  A    between atoms: C_3  and  N_4
REMARK    5  A    between atoms: N_4  and  C_5
REMARK    6  A    between atoms: C_8  and  C_9
REMARK    7  A    between atoms: C_13  and  N_14
REMARK    8  A    between atoms: C_22  and  O_23
REMARK    9  A    between atoms: O_23  and  C_24
REMARK                            x       y       z     vdW  Elec       q    Type
REMARK                         _______ _______ _______ _____ _____    ______ ____
ROOT
ATOM      1  N   UNL     1      44.511   5.777  10.617  0.00  0.00    +0.000 N 
ATOM      2  H   UNL     1      43.653   6.141  10.194  0.00  0.00    +0.000 HD
ENDROOT
BRANCH   1   3
ATOM      3  C   UNL     1      44.941   4.645   9.910  0.00  0.00    +0.000 A 
ATOM      4  N   UNL     1      45.621   4.883   8.761  0.00  0.00    +0.000 NA
ATOM      5  C   UNL     1      46.121   3.847   8.048  0.00  0.00    +0.000 A 
ATOM      6  C   UNL     1      45.986   2.524   8.419  0.00  0.00    +0.000 A 
ATOM      7  C   UNL     1      45.312   2.264   9.611  0.00  0.00    +0.000 A 
ATOM      8  C   UNL     1      44.793   3.326  10.369  0.00  0.00    +0.000 A 
BRANCH   6   9
ATOM      9  C   UNL     1      46.495   1.394   7.612  0.00  0.00    +0.000 C 
ATOM     10  N   UNL     1      47.047   1.644   6.389  0.00  0.00    +0.000 N 
ATOM     11  O   UNL     1      46.412   0.243   8.027  0.00  0.00    +0.000 OA
ATOM     12  H   UNL     1      47.151   2.544   5.947  0.00  0.00    +0.000 HD
ATOM     13  H   UNL     1      47.366   0.837   5.868  0.00  0.00    +0.000 HD
ENDBRANCH   6   9
BRANCH   8  14
ATOM     14  N   UNL     1      44.025   3.001  11.574  0.00  0.00    +0.000 N 
ATOM     15  O   UNL     1      44.451   3.396  12.671  0.00  0.00    +0.000 OA
ATOM     16  O   UNL     1      42.962   2.386  11.429  0.00  0.00    +0.000 OA
ENDBRANCH   8  14
ENDBRANCH   1   3
BRANCH   1  17
ATOM     17  C   UNL     1      45.544   6.820  10.766  0.00  0.00    +0.000 C 
BRANCH  17  19
ATOM     18  C   UNL     1      45.131   8.528  12.623  0.00  0.00    +0.000 C 
ATOM     19  C   UNL     1      45.777   7.185  12.253  0.00  0.00    +0.000 C 
BRANCH  19  20
ATOM     20  C   UNL     1      47.264   7.223  12.615  0.00  0.00    +0.000 A 
ATOM     21  C   UNL     1      48.204   7.761  11.723  0.00  0.00    +0.000 A 
ATOM     22  C   UNL     1      49.541   7.861  12.090  0.00  0.00    +0.000 A 
ATOM     23  F   UNL     1      50.425   8.386  11.234  0.00  0.00    +0.000 F 
ATOM     24  C   UNL     1      49.969   7.440  13.343  0.00  0.00    +0.000 A 
ATOM     25  C   UNL     1      49.055   6.912  14.250  0.00  0.00    +0.000 A 
ATOM     26  C   UNL     1      47.709   6.777  13.883  0.00  0.00    +0.000 A 
BRANCH  25  27
ATOM     27  O   UNL     1      49.603   6.544  15.456  0.00  0.00    +0.000 OA
BRANCH  27  28
ATOM     28  C   UNL     1      49.327   7.323  16.641  0.00  0.00    +0.000 C 
ATOM     29  C   UNL     1      48.783   8.751  16.476  0.00  0.00    +0.000 C 
ATOM     30  O   UNL     1      49.798   9.285  17.363  0.00  0.00    +0.000 OA
ATOM     31  C   UNL     1      50.541   8.045  17.258  0.00  0.00    +0.000 C 
ENDBRANCH  27  28
ENDBRANCH  25  27
ENDBRANCH  19  20
ENDBRANCH  17  19
ENDBRANCH   1  17
TORSDOF 8
ENDMDL
MODEL 8
REMARK VINA RESULT:    -6.717      3.348      4.536
REMARK INTER + INTRA:         -10.831
REMARK INTER:                  -9.874
REMARK INTRA:                  -0.957
REMARK UNBOUND:                -0.972
REMARK  Name = 
REMARK  9 active torsions:
REMARK  status: ('A' for Active; 'I' for Inactive)
REMARK    1  A    between atoms: C_1  and  C_2
REMARK    2  A    between atoms: C_2  and  C_3
REMARK    3  A    between atoms: C_2  and  C_17
REMARK    4  A    between atoms: C_3  and  N_4
REMARK    5  A    between atoms: N_4  and  C_5
REMARK    6  A    between atoms: C_8  and  C_9
REMARK    7  A    between atoms: C_13  and  N_14
REMARK    8  A    between atoms: C_22  and  O_23
REMARK    9  A    between atoms: O_23  and  C_24
REMARK                            x       y       z     vdW  Elec       q    Type
REMARK                         _______ _______ _______ _____ _____    ______ ____
ROOT
ATOM      1  N   UNL     1      46.662   7.142  13.429  0.00  0.00    +0.000 N 
ATOM      2  H   UNL     1      46.816   7.012  14.432  0.00  0.00    +0.000 HD
ENDROOT
BRANCH   1   3
ATOM      3  C   UNL     1      47.826   7.650  12.834  0.00  0.00    +0.000 A 
ATOM      4  N   UNL     1      48.905   6.828  12.843  0.00  0.00    +0.000 NA
ATOM      5  C   UNL     1      50.052   7.218  12.240  0.00  0.00    +0.000 A 
ATOM      6  C   UNL     1      50.208   8.430  11.595  0.00  0.00    +0.000 A 
ATOM      7  C   UNL     1      49.100   9.275  11.556  0.00  0.00    +0.000 A 
ATOM      8  C   UNL     1      47.898   8.885  12.169  0.00  0.00    +0.000 A 
BRANCH   6   9
ATOM      9  C   UNL     1      51.478   8.869  10.979  0.00  0.00    +0.000 C 
ATOM     10  N   UNL     1      51.668  10.195  10.718  0.00  0.00    +0.000 N 
ATOM     11  O   UNL     1      52.348   8.054  10.692  0.00  0.00    +0.000 OA
ATOM     12  H   UNL     1      51.018  10.945  10.897  0.00  0.00    +0.000 HD
ATOM     13  H   UNL     1      52.546  10.444  10.281  0.00  0.00    +0.000 HD
ENDBRANCH   6   9
BRANCH   8  14
ATOM     14  N   UNL     1      46.784   9.836  12.169  0.00  0.00    +0.000 N 
ATOM     15  O   UNL     1      46.830  10.801  11.390  0.00  0.00    +0.000 OA
ATOM     16  O   UNL     1      45.829   9.602  12.921  0.00  0.00    +0.000 OA
ENDBRANCH   8  14
ENDBRANCH   1   3
BRANCH   1  17
ATOM     17  C   UNL     1      46.141   5.923  12.783  0.00  0.00    +0.000 C 
BRANCH  17  19
ATOM     18  C   UNL     1      44.367   7.136  11.397  0.00  0.00    +0.000 C 
ATOM     19  C   UNL     1      45.596   6.216  11.363  0.00  0.00    +0.000 C 
BRANCH  19  20
ATOM     20  C   UNL     1      45.246   4.936  10.600  0.00  0.00    +0.000 A 
ATOM     21  C   UNL     1      44.453   3.942  11.195  0.00  0.00    +0.000 A 
ATOM     22  C   UNL     1      44.078   2.817  10.469  0.00  0.00    +0.000 A 
ATOM     23  F   UNL     1      43.312   1.883  11.045  0.00  0.00    +0.000 F 
ATOM     24  C   UNL     1      44.471   2.660   9.146  0.00  0.00    +0.000 A 
ATOM     25  C   UNL     1      45.249   3.636   8.529  0.00  0.00    +0.000 A 
ATOM     26  C   UNL     1      45.660   4.760   9.258  0.00  0.00    +0.000 A 
BRANCH  25  27
ATOM     27  O   UNL     1      45.560   3.366   7.218  0.00  0.00    +0.000 OA
BRANCH  27  28
ATOM     28  C   UNL     1      46.938   3.172   6.830  0.00  0.00    +0.000 C 
ATOM     29  C   UNL     1      47.246   2.740   5.388  0.00  0.00    +0.000 C 
ATOM     30  O   UNL     1      48.085   1.650   5.848  0.00  0.00    +0.000 OA
ATOM     31  C   UNL     1      47.540   1.798   7.184  0.00  0.00    +0.000 C 
ENDBRANCH  27  28
ENDBRANCH  25  27
ENDBRANCH  19  20
ENDBRANCH  17  19
ENDBRANCH   1  17
TORSDOF 8
ENDMDL
MODEL 9
REMARK VINA RESULT:    -6.692      3.763      8.280
REMARK INTER + INTRA:         -10.794
REMARK INTER:                  -9.459
REMARK INTRA:                  -1.335
REMARK UNBOUND:                -0.972
REMARK  Name = 
REMARK  9 active torsions:
REMARK  status: ('A' for Active; 'I' for Inactive)
REMARK    1  A    between atoms: C_1  and  C_2
REMARK    2  A    between atoms: C_2  and  C_3
REMARK    3  A    between atoms: C_2  and  C_17
REMARK    4  A    between atoms: C_3  and  N_4
REMARK    5  A    between atoms: N_4  and  C_5
REMARK    6  A    between atoms: C_8  and  C_9
REMARK    7  A    between atoms: C_13  and  N_14
REMARK    8  A    between atoms: C_22  and  O_23
REMARK    9  A    between atoms: O_23  and  C_24
REMARK                            x       y       z     vdW  Elec       q    Type
REMARK                         _______ _______ _______ _____ _____    ______ ____
ROOT
ATOM      1  N   UNL     1      48.281   6.572  13.463  0.00  0.00    +0.000 N 
ATOM      2  H   UNL     1      48.782   5.862  14.003  0.00  0.00    +0.000 HD
ENDROOT
BRANCH   1   3
ATOM      3  C   UNL     1      47.183   5.985  12.816  0.00  0.00    +0.000 A 
ATOM      4  N   UNL     1      46.743   6.617  11.700  0.00  0.00    +0.000 NA
ATOM      5  C   UNL     1      45.724   6.086  10.985  0.00  0.00    +0.000 A 
ATOM      6  C   UNL     1      45.083   4.909  11.318  0.00  0.00    +0.000 A 
ATOM      7  C   UNL     1      45.541   4.235  12.449  0.00  0.00    +0.000 A 
ATOM      8  C   UNL     1      46.602   4.766  13.200  0.00  0.00    +0.000 A 
BRANCH   6   9
ATOM      9  C   UNL     1      43.940   4.359  10.559  0.00  0.00    +0.000 C 
ATOM     10  N   UNL     1      43.903   4.517   9.204  0.00  0.00    +0.000 N 
ATOM     11  O   UNL     1      43.028   3.776  11.136  0.00  0.00    +0.000 OA
ATOM     12  H   UNL     1      44.587   4.988   8.632  0.00  0.00    +0.000 HD
ATOM     13  H   UNL     1      43.093   4.136   8.730  0.00  0.00    +0.000 HD
ENDBRANCH   6   9
BRANCH   8  14
ATOM     14  N   UNL     1      46.999   4.064  14.423  0.00  0.00    +0.000 N 
ATOM     15  O   UNL     1      46.821   4.628  15.514  0.00  0.00    +0.000 OA
ATOM     16  O   UNL     1      47.454   2.918  14.306  0.00  0.00    +0.000 OA
ENDBRANCH   8  14
ENDBRANCH   1   3
BRANCH   1  17
ATOM     17  C   UNL     1      47.937   7.752  14.278  0.00  0.00    +0.000 C 
BRANCH  17  19
ATOM     18  C   UNL     1      50.473   7.865  14.584  0.00  0.00    +0.000 C 
ATOM     19  C   UNL     1      49.103   8.163  15.211  0.00  0.00    +0.000 C 
BRANCH  19  20
ATOM     20  C   UNL     1      49.017   7.485  16.581  0.00  0.00    +0.000 A 
ATOM     21  C   UNL     1      48.322   8.093  17.638  0.00  0.00    +0.000 A 
ATOM     22  C   UNL     1      48.185   7.437  18.856  0.00  0.00    +0.000 A 
ATOM     23  F   UNL     1      47.510   8.024  19.851  0.00  0.00    +0.000 F 
ATOM     24  C   UNL     1      48.722   6.171  19.047  0.00  0.00    +0.000 A 
ATOM     25  C   UNL     1      49.408   5.541  18.011  0.00  0.00    +0.000 A 
ATOM     26  C   UNL     1      49.580   6.203  16.788  0.00  0.00    +0.000 A 
BRANCH  25  27
ATOM     27  O   UNL     1      49.880   4.288  18.324  0.00  0.00    +0.000 OA
BRANCH  27  28
ATOM     28  C   UNL     1      50.424   3.443  17.286  0.00  0.00    +0.000 C 
ATOM     29  C   UNL     1      49.710   2.122  16.959  0.00  0.00    +0.000 C 
ATOM     30  O   UNL     1      50.949   1.377  17.071  0.00  0.00    +0.000 OA
ATOM     31  C   UNL     1      51.572   2.512  17.723  0.00  0.00    +0.000 C 
ENDBRANCH  27  28
ENDBRANCH  25  27
ENDBRANCH  19  20
ENDBRANCH  17  19
ENDBRANCH   1  17
TORSDOF 8
ENDMDL
