MODEL 1
REMARK VINA RESULT:    -8.965      0.000      0.000
REMARK INTER + INTRA:         -14.050
REMARK INTER:                 -12.634
REMARK INTRA:                  -1.416
REMARK UNBOUND:                -1.416
REMARK  Name = 
REMARK  10 active torsions:
REMARK  status: ('A' for Active; 'I' for Inactive)
REMARK    1  A    between atoms: C_1  and  O_2
REMARK    2  A    between atoms: O_2  and  C_3
REMARK    3  A    between atoms: C_5  and  C_6
REMARK    4  A    between atoms: C_14  and  C_15
REMARK    5  A    between atoms: C_15  and  C_16
REMARK    6  A    between atoms: C_15  and  C_17
REMARK    7  A    between atoms: C_15  and  C_18
REMARK    8  A    between atoms: C_18  and  N_19
REMARK    9  A    between atoms: N_19  and  C_20
REMARK   10  A    between atoms: C_23  and  C_24
REMARK                            x       y       z     vdW  Elec       q    Type
REMARK                         _______ _______ _______ _____ _____    ______ ____
ROOT
ATOM      1  C   UNL     1      43.899   4.667  12.195  0.00  0.00    +0.000 C 
ATOM      2  C   UNL     1      43.710   3.181  12.585  0.00  0.00    +0.000 C 
ATOM      3  C   UNL     1      42.853   5.506  12.973  0.00  0.00    +0.000 C 
ENDROOT
BRANCH   1   8
ATOM      4  C   UNL     1      47.317   6.496  12.276  0.00  0.00    +0.000 A 
ATOM      5  C   UNL     1      47.836   6.056  13.493  0.00  0.00    +0.000 A 
ATOM      6  C   UNL     1      47.122   5.152  14.300  0.00  0.00    +0.000 A 
ATOM      7  C   UNL     1      45.875   4.697  13.823  0.00  0.00    +0.000 A 
ATOM      8  C   UNL     1      45.320   5.121  12.599  0.00  0.00    +0.000 A 
ATOM      9  C   UNL     1      46.090   6.001  11.826  0.00  0.00    +0.000 A 
BRANCH   6  10
ATOM     10  C   UNL     1      47.605   4.753  15.645  0.00  0.00    +0.000 A 
ATOM     11  C   UNL     1      48.449   5.598  16.393  0.00  0.00    +0.000 A 
ATOM     12  C   UNL     1      48.832   5.276  17.698  0.00  0.00    +0.000 A 
ATOM     13  C   UNL     1      48.369   4.106  18.279  0.00  0.00    +0.000 A 
ATOM     14  F   UNL     1      48.706   3.815  19.541  0.00  0.00    +0.000 F 
ATOM     15  C   UNL     1      47.551   3.238  17.569  0.00  0.00    +0.000 A 
ATOM     16  C   UNL     1      47.184   3.555  16.257  0.00  0.00    +0.000 A 
ENDBRANCH   6  10
BRANCH   4  18
ATOM     17  C   UNL     1      49.027   8.116  11.925  0.00  0.00    +0.000 C 
ATOM     18  O   UNL     1      47.885   7.421  11.442  0.00  0.00    +0.000 OA
ENDBRANCH   4  18
ENDBRANCH   1   8
BRANCH   1  19
ATOM     19  C   UNL     1      43.588   4.779  10.663  0.00  0.00    +0.000 C 
BRANCH  19  20
ATOM     20  N   UNL     1      43.668   3.481   9.983  0.00  0.00    +0.000 N 
ATOM     21  H   UNL     1      42.783   3.167   9.592  0.00  0.00    +0.000 HD
BRANCH  20  22
ATOM     22  C   UNL     1      44.753   3.169   9.164  0.00  0.00    +0.000 A 
ATOM     23  C   UNL     1      45.199   1.864   8.936  0.00  0.00    +0.000 A 
ATOM     24  C   UNL     1      46.215   1.598   8.009  0.00  0.00    +0.000 A 
ATOM     25  C   UNL     1      46.784   2.637   7.267  0.00  0.00    +0.000 A 
ATOM     26  C   UNL     1      46.360   3.948   7.491  0.00  0.00    +0.000 A 
ATOM     27  C   UNL     1      45.347   4.202   8.422  0.00  0.00    +0.000 A 
BRANCH  25  28
ATOM     28  C   UNL     1      47.819   2.300   6.254  0.00  0.00    +0.000 C 
ATOM     29  N   UNL     1      47.831   3.040   5.099  0.00  0.00    +0.000 N 
ATOM     30  O   UNL     1      48.601   1.372   6.414  0.00  0.00    +0.000 OA
ATOM     31  H   UNL     1      47.058   3.626   4.820  0.00  0.00    +0.000 HD
ATOM     32  H   UNL     1      48.458   2.716   4.375  0.00  0.00    +0.000 HD
ENDBRANCH  25  28
ENDBRANCH  20  22
ENDBRANCH  19  20
ENDBRANCH   1  19
TORSDOF 7
ENDMDL
MODEL 2
REMARK VINA RESULT:    -7.481      1.463      2.150
REMARK INTER + INTRA:         -11.958
REMARK INTER:                 -10.838
REMARK INTRA:                  -1.120
REMARK UNBOUND:                -1.416
REMARK  Name = 
REMARK  10 active torsions:
REMARK  status: ('A' for Active; 'I' for Inactive)
REMARK    1  A    between atoms: C_1  and  O_2
REMARK    2  A    between atoms: O_2  and  C_3
REMARK    3  A    between atoms: C_5  and  C_6
REMARK    4  A    between atoms: C_14  and  C_15
REMARK    5  A    between atoms: C_15  and  C_16
REMARK    6  A    between atoms: C_15  and  C_17
REMARK    7  A    between atoms: C_15  and  C_18
REMARK    8  A    between atoms: C_18  and  N_19
REMARK    9  A    between atoms: N_19  and  C_20
REMARK   10  A    between atoms: C_23  and  C_24
REMARK                            x       y       z     vdW  Elec       q    Type
REMARK                         _______ _______ _______ _____ _____    ______ ____
ROOT
ATOM      1  C   UNL     1      45.347   6.506  11.990  0.00  0.00    +0.000 C 
ATOM      2  C   UNL     1      44.500   5.313  12.493  0.00  0.00    +0.000 C 
ATOM      3  C   UNL     1      44.552   7.809  12.260  0.00  0.00    +0.000 C 
ENDROOT
BRANCH   1   8
ATOM      4  C   UNL     1      48.902   7.479  13.194  0.00  0.00    +0.000 A 
ATOM      5  C   UNL     1      49.015   6.719  14.358  0.00  0.00    +0.000 A 
ATOM      6  C   UNL     1      47.976   5.865  14.770  0.00  0.00    +0.000 A 
ATOM      7  C   UNL     1      46.828   5.796  13.954  0.00  0.00    +0.000 A 
ATOM      8  C   UNL     1      46.679   6.549  12.772  0.00  0.00    +0.000 A 
ATOM      9  C   UNL     1      47.759   7.361  12.399  0.00  0.00    +0.000 A 
BRANCH   6  10
ATOM     10  C   UNL     1      48.030   5.129  16.057  0.00  0.00    +0.000 A 
ATOM     11  C   UNL     1      47.257   3.969  16.262  0.00  0.00    +0.000 A 
ATOM     12  C   UNL     1      47.372   3.215  17.433  0.00  0.00    +0.000 A 
ATOM     13  C   UNL     1      48.269   3.606  18.415  0.00  0.00    +0.000 A 
ATOM     14  F   UNL     1      48.405   2.864  19.521  0.00  0.00    +0.000 F 
ATOM     15  C   UNL     1      49.034   4.753  18.260  0.00  0.00    +0.000 A 
ATOM     16  C   UNL     1      48.904   5.515  17.094  0.00  0.00    +0.000 A 
ENDBRANCH   6  10
BRANCH   4  18
ATOM     17  C   UNL     1      51.025   8.523  13.461  0.00  0.00    +0.000 C 
ATOM     18  O   UNL     1      49.813   8.390  12.732  0.00  0.00    +0.000 OA
ENDBRANCH   4  18
ENDBRANCH   1   8
BRANCH   1  19
ATOM     19  C   UNL     1      45.504   6.331  10.440  0.00  0.00    +0.000 C 
BRANCH  19  20
ATOM     20  N   UNL     1      44.637   5.273   9.909  0.00  0.00    +0.000 N 
ATOM     21  H   UNL     1      43.751   5.614   9.543  0.00  0.00    +0.000 HD
BRANCH  20  22
ATOM     22  C   UNL     1      45.164   4.232   9.146  0.00  0.00    +0.000 A 
ATOM     23  C   UNL     1      46.097   4.420   8.121  0.00  0.00    +0.000 A 
ATOM     24  C   UNL     1      46.685   3.329   7.468  0.00  0.00    +0.000 A 
ATOM     25  C   UNL     1      46.373   2.023   7.854  0.00  0.00    +0.000 A 
ATOM     26  C   UNL     1      45.435   1.815   8.867  0.00  0.00    +0.000 A 
ATOM     27  C   UNL     1      44.850   2.913   9.509  0.00  0.00    +0.000 A 
BRANCH  25  28
ATOM     28  C   UNL     1      47.065   0.898   7.171  0.00  0.00    +0.000 C 
ATOM     29  N   UNL     1      46.866  -0.361   7.679  0.00  0.00    +0.000 N 
ATOM     30  O   UNL     1      47.820   1.082   6.226  0.00  0.00    +0.000 OA
ATOM     31  H   UNL     1      46.471  -0.523   8.593  0.00  0.00    +0.000 HD
ATOM     32  H   UNL     1      47.440  -1.092   7.281  0.00  0.00    +0.000 HD
ENDBRANCH  25  28
ENDBRANCH  20  22
ENDBRANCH  19  20
ENDBRANCH   1  19
TORSDOF 7
ENDMDL
MODEL 3
REMARK VINA RESULT:    -7.425      4.309      8.079
REMARK INTER + INTRA:         -11.879
REMARK INTER:                 -10.334
REMARK INTRA:                  -1.545
REMARK UNBOUND:                -1.416
REMARK  Name = 
REMARK  10 active torsions:
REMARK  status: ('A' for Active; 'I' for Inactive)
REMARK    1  A    between atoms: C_1  and  O_2
REMARK    2  A    between atoms: O_2  and  C_3
REMARK    3  A    between atoms: C_5  and  C_6
REMARK    4  A    between atoms: C_14  and  C_15
REMARK    5  A    between atoms: C_15  and  C_16
REMARK    6  A    between atoms: C_15  and  C_17
REMARK    7  A    between atoms: C_15  and  C_18
REMARK    8  A    between atoms: C_18  and  N_19
REMARK    9  A    between atoms: N_19  and  C_20
REMARK   10  A    between atoms: C_23  and  C_24
REMARK                            x       y       z     vdW  Elec       q    Type
REMARK                         _______ _______ _______ _____ _____    ______ ____
ROOT
ATOM      1  C   UNL     1      49.128   8.662  12.307  0.00  0.00    +0.000 C 
ATOM      2  C   UNL     1      49.958   7.549  11.623  0.00  0.00    +0.000 C 
ATOM      3  C   UNL     1      49.439  10.003  11.593  0.00  0.00    +0.000 C 
ENDROOT
BRANCH   1   8
ATOM      4  C   UNL     1      45.267   8.992  12.175  0.00  0.00    +0.000 A 
ATOM      5  C   UNL     1      44.901   7.744  11.674  0.00  0.00    +0.000 A 
ATOM      6  C   UNL     1      45.870   6.764  11.392  0.00  0.00    +0.000 A 
ATOM      7  C   UNL     1      47.218   7.088  11.650  0.00  0.00    +0.000 A 
ATOM      8  C   UNL     1      47.624   8.340  12.155  0.00  0.00    +0.000 A 
ATOM      9  C   UNL     1      46.611   9.265  12.442  0.00  0.00    +0.000 A 
BRANCH   6  10
ATOM     10  C   UNL     1      45.515   5.469  10.760  0.00  0.00    +0.000 A 
ATOM     11  C   UNL     1      44.923   4.434  11.512  0.00  0.00    +0.000 A 
ATOM     12  C   UNL     1      44.497   3.247  10.909  0.00  0.00    +0.000 A 
ATOM     13  C   UNL     1      44.650   3.081   9.541  0.00  0.00    +0.000 A 
ATOM     14  F   UNL     1      44.209   1.960   8.957  0.00  0.00    +0.000 F 
ATOM     15  C   UNL     1      45.245   4.069   8.769  0.00  0.00    +0.000 A 
ATOM     16  C   UNL     1      45.686   5.248   9.378  0.00  0.00    +0.000 A 
ENDBRANCH   6  10
BRANCH   4  18
ATOM     17  C   UNL     1      43.714  10.579  11.314  0.00  0.00    +0.000 C 
ATOM     18  O   UNL     1      44.424  10.042  12.421  0.00  0.00    +0.000 OA
ENDBRANCH   4  18
ENDBRANCH   1   8
BRANCH   1  19
ATOM     19  C   UNL     1      49.629   8.759  13.789  0.00  0.00    +0.000 C 
BRANCH  19  20
ATOM     20  N   UNL     1      50.187   7.490  14.271  0.00  0.00    +0.000 N 
ATOM     21  H   UNL     1      51.173   7.542  14.517  0.00  0.00    +0.000 HD
BRANCH  20  22
ATOM     22  C   UNL     1      49.463   6.676  15.141  0.00  0.00    +0.000 A 
ATOM     23  C   UNL     1      48.251   6.066  14.801  0.00  0.00    +0.000 A 
ATOM     24  C   UNL     1      47.629   5.160  15.670  0.00  0.00    +0.000 A 
ATOM     25  C   UNL     1      48.226   4.824  16.887  0.00  0.00    +0.000 A 
ATOM     26  C   UNL     1      49.429   5.433  17.249  0.00  0.00    +0.000 A 
ATOM     27  C   UNL     1      50.040   6.339  16.376  0.00  0.00    +0.000 A 
BRANCH  25  28
ATOM     28  C   UNL     1      47.557   3.816  17.751  0.00  0.00    +0.000 C 
ATOM     29  N   UNL     1      48.071   3.626  19.008  0.00  0.00    +0.000 N 
ATOM     30  O   UNL     1      46.615   3.144  17.350  0.00  0.00    +0.000 OA
ATOM     31  H   UNL     1      48.984   3.961  19.279  0.00  0.00    +0.000 HD
ATOM     32  H   UNL     1      47.683   2.852  19.531  0.00  0.00    +0.000 HD
ENDBRANCH  25  28
ENDBRANCH  20  22
ENDBRANCH  19  20
ENDBRANCH   1  19
TORSDOF 7
ENDMDL
MODEL 4
REMARK VINA RESULT:    -6.771      4.654      8.457
REMARK INTER + INTRA:         -10.958
REMARK INTER:                  -9.973
REMARK INTRA:                  -0.985
REMARK UNBOUND:                -1.416
REMARK  Name = 
REMARK  10 active torsions:
REMARK  status: ('A' for Active; 'I' for Inactive)
REMARK    1  A    between atoms: C_1  and  O_2
REMARK    2  A    between atoms: O_2  and  C_3
REMARK    3  A    between atoms: C_5  and  C_6
REMARK    4  A    between atoms: C_14  and  C_15
REMARK    5  A    between atoms: C_15  and  C_16
REMARK    6  A    between atoms: C_15  and  C_17
REMARK    7  A    between atoms: C_15  and  C_18
REMARK    8  A    between atoms: C_18  and  N_19
REMARK    9  A    between atoms: N_19  and  C_20
REMARK   10  A    between atoms: C_23  and  C_24
REMARK                            x       y       z     vdW  Elec       q    Type
REMARK                         _______ _______ _______ _____ _____    ______ ____
ROOT
ATOM      1  C   UNL     1      48.346   7.515  14.437  0.00  0.00    +0.000 C 
ATOM      2  C   UNL     1      49.617   7.395  13.563  0.00  0.00    +0.000 C 
ATOM      3  C   UNL     1      48.467   8.805  15.289  0.00  0.00    +0.000 C 
ENDROOT
BRANCH   1   8
ATOM      4  C   UNL     1      45.330   8.914  12.440  0.00  0.00    +0.000 A 
ATOM      5  C   UNL     1      44.967   7.804  11.678  0.00  0.00    +0.000 A 
ATOM      6  C   UNL     1      45.655   6.583  11.801  0.00  0.00    +0.000 A 
ATOM      7  C   UNL     1      46.712   6.523  12.734  0.00  0.00    +0.000 A 
ATOM      8  C   UNL     1      47.107   7.624  13.519  0.00  0.00    +0.000 A 
ATOM      9  C   UNL     1      46.366   8.805  13.372  0.00  0.00    +0.000 A 
BRANCH   6  10
ATOM     10  C   UNL     1      45.355   5.423  10.927  0.00  0.00    +0.000 A 
ATOM     11  C   UNL     1      44.636   4.313  11.416  0.00  0.00    +0.000 A 
ATOM     12  C   UNL     1      44.266   3.259  10.577  0.00  0.00    +0.000 A 
ATOM     13  C   UNL     1      44.602   3.302   9.233  0.00  0.00    +0.000 A 
ATOM     14  F   UNL     1      44.215   2.309   8.422  0.00  0.00    +0.000 F 
ATOM     15  C   UNL     1      45.326   4.367   8.717  0.00  0.00    +0.000 A 
ATOM     16  C   UNL     1      45.710   5.413   9.562  0.00  0.00    +0.000 A 
ENDBRANCH   6  10
BRANCH   4  18
ATOM     17  C   UNL     1      45.336  11.055  11.398  0.00  0.00    +0.000 C 
ATOM     18  O   UNL     1      44.782  10.165  12.358  0.00  0.00    +0.000 OA
ENDBRANCH   4  18
ENDBRANCH   1   8
BRANCH   1  19
ATOM     19  C   UNL     1      48.338   6.280  15.402  0.00  0.00    +0.000 C 
BRANCH  19  20
ATOM     20  N   UNL     1      49.342   6.398  16.465  0.00  0.00    +0.000 N 
ATOM     21  H   UNL     1      49.089   7.060  17.196  0.00  0.00    +0.000 HD
BRANCH  20  22
ATOM     22  C   UNL     1      49.987   5.270  16.969  0.00  0.00    +0.000 A 
ATOM     23  C   UNL     1      49.371   4.021  17.100  0.00  0.00    +0.000 A 
ATOM     24  C   UNL     1      50.100   2.892  17.496  0.00  0.00    +0.000 A 
ATOM     25  C   UNL     1      51.473   2.987  17.738  0.00  0.00    +0.000 A 
ATOM     26  C   UNL     1      52.102   4.228  17.624  0.00  0.00    +0.000 A 
ATOM     27  C   UNL     1      51.363   5.350  17.232  0.00  0.00    +0.000 A 
BRANCH  25  28
ATOM     28  C   UNL     1      52.216   1.751  18.101  0.00  0.00    +0.000 C 
ATOM     29  N   UNL     1      51.555   0.558  17.958  0.00  0.00    +0.000 N 
ATOM     30  O   UNL     1      53.352   1.791  18.555  0.00  0.00    +0.000 OA
ATOM     31  H   UNL     1      50.555   0.500  17.840  0.00  0.00    +0.000 HD
ATOM     32  H   UNL     1      52.031  -0.255  18.326  0.00  0.00    +0.000 HD
ENDBRANCH  25  28
ENDBRANCH  20  22
ENDBRANCH  19  20
ENDBRANCH   1  19
TORSDOF 7
ENDMDL
MODEL 5
REMARK VINA RESULT:    -6.522      3.521      5.949
REMARK INTER + INTRA:         -10.606
REMARK INTER:                  -9.548
REMARK INTRA:                  -1.058
REMARK UNBOUND:                -1.416
REMARK  Name = 
REMARK  10 active torsions:
REMARK  status: ('A' for Active; 'I' for Inactive)
REMARK    1  A    between atoms: C_1  and  O_2
REMARK    2  A    between atoms: O_2  and  C_3
REMARK    3  A    between atoms: C_5  and  C_6
REMARK    4  A    between atoms: C_14  and  C_15
REMARK    5  A    between atoms: C_15  and  C_16
REMARK    6  A    between atoms: C_15  and  C_17
REMARK    7  A    between atoms: C_15  and  C_18
REMARK    8  A    between atoms: C_18  and  N_19
REMARK    9  A    between atoms: N_19  and  C_20
REMARK   10  A    between atoms: C_23  and  C_24
REMARK                            x       y       z     vdW  Elec       q    Type
REMARK                         _______ _______ _______ _____ _____    ______ ____
ROOT
ATOM      1  C   UNL     1      49.237   7.819  15.287  0.00  0.00    +0.000 C 
ATOM      2  C   UNL     1      48.300   9.026  15.532  0.00  0.00    +0.000 C 
ATOM      3  C   UNL     1      50.646   8.364  14.939  0.00  0.00    +0.000 C 
ENDROOT
BRANCH   1   8
ATOM      4  C   UNL     1      48.554   6.385  18.825  0.00  0.00    +0.000 A 
ATOM      5  C   UNL     1      49.389   5.269  18.835  0.00  0.00    +0.000 A 
ATOM      6  C   UNL     1      50.203   4.962  17.729  0.00  0.00    +0.000 A 
ATOM      7  C   UNL     1      50.153   5.835  16.622  0.00  0.00    +0.000 A 
ATOM      8  C   UNL     1      49.321   6.972  16.577  0.00  0.00    +0.000 A 
ATOM      9  C   UNL     1      48.554   7.240  17.720  0.00  0.00    +0.000 A 
BRANCH   6  10
ATOM     10  C   UNL     1      51.018   3.723  17.675  0.00  0.00    +0.000 A 
ATOM     11  C   UNL     1      52.369   3.726  18.075  0.00  0.00    +0.000 A 
ATOM     12  C   UNL     1      53.118   2.548  18.119  0.00  0.00    +0.000 A 
ATOM     13  C   UNL     1      52.524   1.345  17.770  0.00  0.00    +0.000 A 
ATOM     14  F   UNL     1      53.231   0.211  17.847  0.00  0.00    +0.000 F 
ATOM     15  C   UNL     1      51.202   1.302  17.352  0.00  0.00    +0.000 A 
ATOM     16  C   UNL     1      50.459   2.486  17.293  0.00  0.00    +0.000 A 
ENDBRANCH   6  10
BRANCH   4  18
ATOM     17  C   UNL     1      47.766   8.069  20.312  0.00  0.00    +0.000 C 
ATOM     18  O   UNL     1      47.673   6.744  19.809  0.00  0.00    +0.000 OA
ENDBRANCH   4  18
ENDBRANCH   1   8
BRANCH   1  19
ATOM     19  C   UNL     1      48.677   7.053  14.039  0.00  0.00    +0.000 C 
BRANCH  19  20
ATOM     20  N   UNL     1      47.477   6.271  14.359  0.00  0.00    +0.000 N 
ATOM     21  H   UNL     1      46.880   6.704  15.060  0.00  0.00    +0.000 HD
BRANCH  20  22
ATOM     22  C   UNL     1      46.746   5.639  13.353  0.00  0.00    +0.000 A 
ATOM     23  C   UNL     1      46.237   4.342  13.466  0.00  0.00    +0.000 A 
ATOM     24  C   UNL     1      45.407   3.802  12.475  0.00  0.00    +0.000 A 
ATOM     25  C   UNL     1      45.043   4.566  11.364  0.00  0.00    +0.000 A 
ATOM     26  C   UNL     1      45.552   5.859  11.228  0.00  0.00    +0.000 A 
ATOM     27  C   UNL     1      46.385   6.387  12.221  0.00  0.00    +0.000 A 
BRANCH  25  28
ATOM     28  C   UNL     1      44.115   3.971  10.367  0.00  0.00    +0.000 C 
ATOM     29  N   UNL     1      44.108   4.520   9.110  0.00  0.00    +0.000 N 
ATOM     30  O   UNL     1      43.350   3.061  10.659  0.00  0.00    +0.000 OA
ATOM     31  H   UNL     1      44.522   5.417   8.905  0.00  0.00    +0.000 HD
ATOM     32  H   UNL     1      43.385   4.185   8.487  0.00  0.00    +0.000 HD
ENDBRANCH  25  28
ENDBRANCH  20  22
ENDBRANCH  19  20
ENDBRANCH   1  19
TORSDOF 7
ENDMDL
MODEL 6
REMARK VINA RESULT:    -6.456      4.337      7.447
REMARK INTER + INTRA:         -10.514
REMARK INTER:                  -8.705
REMARK INTRA:                  -1.809
REMARK UNBOUND:                -1.416
REMARK  Name = 
REMARK  10 active torsions:
REMARK  status: ('A' for Active; 'I' for Inactive)
REMARK    1  A    between atoms: C_1  and  O_2
REMARK    2  A    between atoms: O_2  and  C_3
REMARK    3  A    between atoms: C_5  and  C_6
REMARK    4  A    between atoms: C_14  and  C_15
REMARK    5  A    between atoms: C_15  and  C_16
REMARK    6  A    between atoms: C_15  and  C_17
REMARK    7  A    between atoms: C_15  and  C_18
REMARK    8  A    between atoms: C_18  and  N_19
REMARK    9  A    between atoms: N_19  and  C_20
REMARK   10  A    between atoms: C_23  and  C_24
REMARK                            x       y       z     vdW  Elec       q    Type
REMARK                         _______ _______ _______ _____ _____    ______ ____
ROOT
ATOM      1  C   UNL     1      49.380   8.377  14.355  0.00  0.00    +0.000 C 
ATOM      2  C   UNL     1      48.960   9.348  15.485  0.00  0.00    +0.000 C 
ATOM      3  C   UNL     1      50.910   8.152  14.456  0.00  0.00    +0.000 C 
ENDROOT
BRANCH   1   8
ATOM      4  C   UNL     1      47.937   5.143  15.934  0.00  0.00    +0.000 A 
ATOM      5  C   UNL     1      47.140   4.662  14.895  0.00  0.00    +0.000 A 
ATOM      6  C   UNL     1      47.064   5.341  13.666  0.00  0.00    +0.000 A 
ATOM      7  C   UNL     1      47.836   6.513  13.520  0.00  0.00    +0.000 A 
ATOM      8  C   UNL     1      48.651   7.028  14.548  0.00  0.00    +0.000 A 
ATOM      9  C   UNL     1      48.707   6.293  15.740  0.00  0.00    +0.000 A 
BRANCH   6  10
ATOM     10  C   UNL     1      46.143   4.907  12.586  0.00  0.00    +0.000 A 
ATOM     11  C   UNL     1      45.992   5.671  11.411  0.00  0.00    +0.000 A 
ATOM     12  C   UNL     1      45.202   5.225  10.349  0.00  0.00    +0.000 A 
ATOM     13  C   UNL     1      44.556   4.001  10.442  0.00  0.00    +0.000 A 
ATOM     14  F   UNL     1      43.829   3.557   9.411  0.00  0.00    +0.000 F 
ATOM     15  C   UNL     1      44.664   3.229  11.590  0.00  0.00    +0.000 A 
ATOM     16  C   UNL     1      45.441   3.686  12.658  0.00  0.00    +0.000 A 
ENDBRANCH   6  10
BRANCH   4  18
ATOM     17  C   UNL     1      47.136   5.096  18.176  0.00  0.00    +0.000 C 
ATOM     18  O   UNL     1      48.036   4.609  17.190  0.00  0.00    +0.000 OA
ENDBRANCH   4  18
ENDBRANCH   1   8
BRANCH   1  19
ATOM     19  C   UNL     1      49.071   9.098  12.997  0.00  0.00    +0.000 C 
BRANCH  19  20
ATOM     20  N   UNL     1      48.154  10.231  13.165  0.00  0.00    +0.000 N 
ATOM     21  H   UNL     1      48.611  11.140  13.117  0.00  0.00    +0.000 HD
BRANCH  20  22
ATOM     22  C   UNL     1      46.900  10.232  12.557  0.00  0.00    +0.000 A 
ATOM     23  C   UNL     1      46.491  11.194  11.628  0.00  0.00    +0.000 A 
ATOM     24  C   UNL     1      45.267  11.078  10.956  0.00  0.00    +0.000 A 
ATOM     25  C   UNL     1      44.440   9.974  11.180  0.00  0.00    +0.000 A 
ATOM     26  C   UNL     1      44.826   9.010  12.114  0.00  0.00    +0.000 A 
ATOM     27  C   UNL     1      46.049   9.138  12.782  0.00  0.00    +0.000 A 
BRANCH  25  28
ATOM     28  C   UNL     1      43.178   9.865  10.403  0.00  0.00    +0.000 C 
ATOM     29  N   UNL     1      42.261   8.935  10.824  0.00  0.00    +0.000 N 
ATOM     30  O   UNL     1      42.976  10.537   9.400  0.00  0.00    +0.000 OA
ATOM     31  H   UNL     1      42.492   8.197  11.471  0.00  0.00    +0.000 HD
ATOM     32  H   UNL     1      41.468   8.790  10.212  0.00  0.00    +0.000 HD
ENDBRANCH  25  28
ENDBRANCH  20  22
ENDBRANCH  19  20
ENDBRANCH   1  19
TORSDOF 7
ENDMDL
MODEL 7
REMARK VINA RESULT:    -6.288      4.794      8.066
REMARK INTER + INTRA:         -10.276
REMARK INTER:                  -8.336
REMARK INTRA:                  -1.941
REMARK UNBOUND:                -1.416
REMARK  Name = 
REMARK  10 active torsions:
REMARK  status: ('A' for Active; 'I' for Inactive)
REMARK    1  A    between atoms: C_1  and  O_2
REMARK    2  A    between atoms: O_2  and  C_3
REMARK    3  A    between atoms: C_5  and  C_6
REMARK    4  A    between atoms: C_14  and  C_15
REMARK    5  A    between atoms: C_15  and  C_16
REMARK    6  A    between atoms: C_15  and  C_17
REMARK    7  A    between atoms: C_15  and  C_18
REMARK    8  A    between atoms: C_18  and  N_19
REMARK    9  A    between atoms: N_19  and  C_20
REMARK   10  A    between atoms: C_23  and  C_24
REMARK                            x       y       z     vdW  Elec       q    Type
REMARK                         _______ _______ _______ _____ _____    ______ ____
ROOT
ATOM      1  C   UNL     1      49.439   9.341  16.524  0.00  0.00    +0.000 C 
ATOM      2  C   UNL     1      50.090  10.745  16.517  0.00  0.00    +0.000 C 
ATOM      3  C   UNL     1      47.955   9.499  16.945  0.00  0.00    +0.000 C 
ENDROOT
BRANCH   1   8
ATOM      4  C   UNL     1      50.670   8.320  12.992  0.00  0.00    +0.000 A 
ATOM      5  C   UNL     1      49.649   7.465  12.581  0.00  0.00    +0.000 A 
ATOM      6  C   UNL     1      48.537   7.214  13.407  0.00  0.00    +0.000 A 
ATOM      7  C   UNL     1      48.490   7.873  14.653  0.00  0.00    +0.000 A 
ATOM      8  C   UNL     1      49.504   8.743  15.100  0.00  0.00    +0.000 A 
ATOM      9  C   UNL     1      50.573   8.974  14.223  0.00  0.00    +0.000 A 
BRANCH   6  10
ATOM     10  C   UNL     1      47.492   6.228  13.036  0.00  0.00    +0.000 A 
ATOM     11  C   UNL     1      47.189   5.141  13.880  0.00  0.00    +0.000 A 
ATOM     12  C   UNL     1      46.143   4.262  13.588  0.00  0.00    +0.000 A 
ATOM     13  C   UNL     1      45.378   4.461  12.450  0.00  0.00    +0.000 A 
ATOM     14  F   UNL     1      44.353   3.641  12.189  0.00  0.00    +0.000 F 
ATOM     15  C   UNL     1      45.656   5.508  11.583  0.00  0.00    +0.000 A 
ATOM     16  C   UNL     1      46.714   6.377  11.869  0.00  0.00    +0.000 A 
ENDBRANCH   6  10
BRANCH   4  18
ATOM     17  C   UNL     1      51.708   9.302  11.087  0.00  0.00    +0.000 C 
ATOM     18  O   UNL     1      51.826   8.585  12.308  0.00  0.00    +0.000 OA
ENDBRANCH   4  18
ENDBRANCH   1   8
BRANCH   1  19
ATOM     19  C   UNL     1      50.180   8.501  17.621  0.00  0.00    +0.000 C 
BRANCH  19  20
ATOM     20  N   UNL     1      49.293   7.530  18.272  0.00  0.00    +0.000 N 
ATOM     21  H   UNL     1      48.318   7.820  18.301  0.00  0.00    +0.000 HD
BRANCH  20  22
ATOM     22  C   UNL     1      49.435   6.163  18.038  0.00  0.00    +0.000 A 
ATOM     23  C   UNL     1      48.388   5.337  17.619  0.00  0.00    +0.000 A 
ATOM     24  C   UNL     1      48.614   3.996  17.281  0.00  0.00    +0.000 A 
ATOM     25  C   UNL     1      49.905   3.464  17.325  0.00  0.00    +0.000 A 
ATOM     26  C   UNL     1      50.962   4.270  17.753  0.00  0.00    +0.000 A 
ATOM     27  C   UNL     1      50.724   5.607  18.092  0.00  0.00    +0.000 A 
BRANCH  25  28
ATOM     28  C   UNL     1      50.106   2.053  16.903  0.00  0.00    +0.000 C 
ATOM     29  N   UNL     1      51.012   1.308  17.614  0.00  0.00    +0.000 N 
ATOM     30  O   UNL     1      49.526   1.580  15.934  0.00  0.00    +0.000 OA
ATOM     31  H   UNL     1      51.688   1.724  18.238  0.00  0.00    +0.000 HD
ATOM     32  H   UNL     1      51.225   0.395  17.235  0.00  0.00    +0.000 HD
ENDBRANCH  25  28
ENDBRANCH  20  22
ENDBRANCH  19  20
ENDBRANCH   1  19
TORSDOF 7
ENDMDL
MODEL 8
REMARK VINA RESULT:    -6.155      4.858      8.504
REMARK INTER + INTRA:         -10.089
REMARK INTER:                  -9.160
REMARK INTRA:                  -0.930
REMARK UNBOUND:                -1.416
REMARK  Name = 
REMARK  10 active torsions:
REMARK  status: ('A' for Active; 'I' for Inactive)
REMARK    1  A    between atoms: C_1  and  O_2
REMARK    2  A    between atoms: O_2  and  C_3
REMARK    3  A    between atoms: C_5  and  C_6
REMARK    4  A    between atoms: C_14  and  C_15
REMARK    5  A    between atoms: C_15  and  C_16
REMARK    6  A    between atoms: C_15  and  C_17
REMARK    7  A    between atoms: C_15  and  C_18
REMARK    8  A    between atoms: C_18  and  N_19
REMARK    9  A    between atoms: N_19  and  C_20
REMARK   10  A    between atoms: C_23  and  C_24
REMARK                            x       y       z     vdW  Elec       q    Type
REMARK                         _______ _______ _______ _____ _____    ______ ____
ROOT
ATOM      1  C   UNL     1      49.459   6.701  16.113  0.00  0.00    +0.000 C 
ATOM      2  C   UNL     1      51.000   6.830  16.189  0.00  0.00    +0.000 C 
ATOM      3  C   UNL     1      48.839   7.773  17.046  0.00  0.00    +0.000 C 
ENDROOT
BRANCH   1   8
ATOM      4  C   UNL     1      49.319   7.934  12.440  0.00  0.00    +0.000 A 
ATOM      5  C   UNL     1      48.210   7.240  11.959  0.00  0.00    +0.000 A 
ATOM      6  C   UNL     1      47.470   6.386  12.797  0.00  0.00    +0.000 A 
ATOM      7  C   UNL     1      47.883   6.274  14.141  0.00  0.00    +0.000 A 
ATOM      8  C   UNL     1      48.999   6.960  14.661  0.00  0.00    +0.000 A 
ATOM      9  C   UNL     1      49.680   7.817  13.784  0.00  0.00    +0.000 A 
BRANCH   6  10
ATOM     10  C   UNL     1      46.352   5.557  12.282  0.00  0.00    +0.000 A 
ATOM     11  C   UNL     1      45.890   4.436  13.000  0.00  0.00    +0.000 A 
ATOM     12  C   UNL     1      44.778   3.705  12.573  0.00  0.00    +0.000 A 
ATOM     13  C   UNL     1      44.105   4.091  11.424  0.00  0.00    +0.000 A 
ATOM     14  F   UNL     1      43.018   3.414  11.035  0.00  0.00    +0.000 F 
ATOM     15  C   UNL     1      44.539   5.178  10.679  0.00  0.00    +0.000 A 
ATOM     16  C   UNL     1      45.663   5.897  11.099  0.00  0.00    +0.000 A 
ENDBRANCH   6  10
BRANCH   4  18
ATOM     17  C   UNL     1      51.274   8.116  11.093  0.00  0.00    +0.000 C 
ATOM     18  O   UNL     1      50.151   8.735  11.706  0.00  0.00    +0.000 OA
ENDBRANCH   4  18
ENDBRANCH   1   8
BRANCH   1  19
ATOM     19  C   UNL     1      49.093   5.283  16.672  0.00  0.00    +0.000 C 
BRANCH  19  20
ATOM     20  N   UNL     1      49.923   4.907  17.822  0.00  0.00    +0.000 N 
ATOM     21  H   UNL     1      49.427   4.929  18.711  0.00  0.00    +0.000 HD
BRANCH  20  22
ATOM     22  C   UNL     1      50.820   3.843  17.739  0.00  0.00    +0.000 A 
ATOM     23  C   UNL     1      52.162   3.932  18.120  0.00  0.00    +0.000 A 
ATOM     24  C   UNL     1      52.988   2.800  18.131  0.00  0.00    +0.000 A 
ATOM     25  C   UNL     1      52.474   1.547  17.790  0.00  0.00    +0.000 A 
ATOM     26  C   UNL     1      51.139   1.441  17.394  0.00  0.00    +0.000 A 
ATOM     27  C   UNL     1      50.324   2.579  17.383  0.00  0.00    +0.000 A 
BRANCH  25  28
ATOM     28  C   UNL     1      53.373   0.365  17.870  0.00  0.00    +0.000 C 
ATOM     29  N   UNL     1      52.893  -0.745  18.517  0.00  0.00    +0.000 N 
ATOM     30  O   UNL     1      54.512   0.389  17.423  0.00  0.00    +0.000 OA
ATOM     31  H   UNL     1      52.080  -0.718  19.114  0.00  0.00    +0.000 HD
ATOM     32  H   UNL     1      53.561  -1.489  18.670  0.00  0.00    +0.000 HD
ENDBRANCH  25  28
ENDBRANCH  20  22
ENDBRANCH  19  20
ENDBRANCH   1  19
TORSDOF 7
ENDMDL
MODEL 9
REMARK VINA RESULT:    -6.154      4.106      7.362
REMARK INTER + INTRA:         -10.087
REMARK INTER:                  -8.332
REMARK INTRA:                  -1.755
REMARK UNBOUND:                -1.416
REMARK  Name = 
REMARK  10 active torsions:
REMARK  status: ('A' for Active; 'I' for Inactive)
REMARK    1  A    between atoms: C_1  and  O_2
REMARK    2  A    between atoms: O_2  and  C_3
REMARK    3  A    between atoms: C_5  and  C_6
REMARK    4  A    between atoms: C_14  and  C_15
REMARK    5  A    between atoms: C_15  and  C_16
REMARK    6  A    between atoms: C_15  and  C_17
REMARK    7  A    between atoms: C_15  and  C_18
REMARK    8  A    between atoms: C_18  and  N_19
REMARK    9  A    between atoms: N_19  and  C_20
REMARK   10  A    between atoms: C_23  and  C_24
REMARK                            x       y       z     vdW  Elec       q    Type
REMARK                         _______ _______ _______ _____ _____    ______ ____
ROOT
ATOM      1  C   UNL     1      45.484   4.985  12.473  0.00  0.00    +0.000 C 
ATOM      2  C   UNL     1      44.086   5.081  13.130  0.00  0.00    +0.000 C 
ATOM      3  C   UNL     1      45.314   4.352  11.069  0.00  0.00    +0.000 C 
ENDROOT
BRANCH   1   8
ATOM      4  C   UNL     1      45.837   8.840  12.242  0.00  0.00    +0.000 A 
ATOM      5  C   UNL     1      47.223   8.990  12.244  0.00  0.00    +0.000 A 
ATOM      6  C   UNL     1      48.073   7.869  12.295  0.00  0.00    +0.000 A 
ATOM      7  C   UNL     1      47.469   6.595  12.325  0.00  0.00    +0.000 A 
ATOM      8  C   UNL     1      46.073   6.407  12.325  0.00  0.00    +0.000 A 
ATOM      9  C   UNL     1      45.279   7.559  12.246  0.00  0.00    +0.000 A 
BRANCH   6  10
ATOM     10  C   UNL     1      49.546   8.008  12.405  0.00  0.00    +0.000 A 
ATOM     11  C   UNL     1      50.365   7.982  11.258  0.00  0.00    +0.000 A 
ATOM     12  C   UNL     1      51.742   8.206  11.341  0.00  0.00    +0.000 A 
ATOM     13  C   UNL     1      52.320   8.468  12.573  0.00  0.00    +0.000 A 
ATOM     14  F   UNL     1      53.633   8.720  12.648  0.00  0.00    +0.000 F 
ATOM     15  C   UNL     1      51.552   8.483  13.728  0.00  0.00    +0.000 A 
ATOM     16  C   UNL     1      50.177   8.241  13.645  0.00  0.00    +0.000 A 
ENDBRANCH   6  10
BRANCH   4  18
ATOM     17  C   UNL     1      45.310  11.102  11.716  0.00  0.00    +0.000 C 
ATOM     18  O   UNL     1      44.915   9.851  12.264  0.00  0.00    +0.000 OA
ENDBRANCH   4  18
ENDBRANCH   1   8
BRANCH   1  19
ATOM     19  C   UNL     1      46.338   4.013  13.358  0.00  0.00    +0.000 C 
BRANCH  19  20
ATOM     20  N   UNL     1      46.235   4.329  14.788  0.00  0.00    +0.000 N 
ATOM     21  H   UNL     1      45.491   3.826  15.267  0.00  0.00    +0.000 HD
BRANCH  20  22
ATOM     22  C   UNL     1      47.379   4.463  15.574  0.00  0.00    +0.000 A 
ATOM     23  C   UNL     1      48.070   5.668  15.735  0.00  0.00    +0.000 A 
ATOM     24  C   UNL     1      49.140   5.774  16.633  0.00  0.00    +0.000 A 
ATOM     25  C   UNL     1      49.519   4.678  17.413  0.00  0.00    +0.000 A 
ATOM     26  C   UNL     1      48.849   3.464  17.257  0.00  0.00    +0.000 A 
ATOM     27  C   UNL     1      47.784   3.368  16.354  0.00  0.00    +0.000 A 
BRANCH  25  28
ATOM     28  C   UNL     1      50.624   4.854  18.392  0.00  0.00    +0.000 C 
ATOM     29  N   UNL     1      51.171   3.718  18.932  0.00  0.00    +0.000 N 
ATOM     30  O   UNL     1      51.004   5.963  18.745  0.00  0.00    +0.000 OA
ATOM     31  H   UNL     1      50.723   2.816  18.869  0.00  0.00    +0.000 HD
ATOM     32  H   UNL     1      51.831   3.861  19.684  0.00  0.00    +0.000 HD
ENDBRANCH  25  28
ENDBRANCH  20  22
ENDBRANCH  19  20
ENDBRANCH   1  19
TORSDOF 7
ENDMDL
