MODEL 1
REMARK VINA RESULT:    -7.243      0.000      0.000
REMARK INTER + INTRA:          -9.638
REMARK INTER:                  -9.148
REMARK INTRA:                  -0.490
REMARK UNBOUND:                -0.490
REMARK  Name = 
REMARK  5 active torsions:
REMARK  status: ('A' for Active; 'I' for Inactive)
REMARK    1  A    between atoms: N_1  and  C_2
REMARK    2  A    between atoms: C_2  and  C_3
REMARK    3  A    between atoms: C_6  and  C_7
REMARK    4  A    between atoms: C_7  and  N_8
REMARK    5  A    between atoms: C_13  and  C_14
REMARK                            x       y       z     vdW  Elec       q    Type
REMARK                         _______ _______ _______ _____ _____    ______ ____
ROOT
ATOM      1  N   UNL     1      44.406   4.700  10.353  0.00  0.00    +0.000 N 
ATOM      2  C   UNL     1      43.698   3.632  10.853  0.00  0.00    +0.000 A 
ATOM      3  C   UNL     1      44.160   2.490  10.244  0.00  0.00    +0.000 A 
ATOM      4  C   UNL     1      45.111   2.882   9.266  0.00  0.00    +0.000 A 
ATOM      5  C   UNL     1      45.869   2.169   8.330  0.00  0.00    +0.000 A 
ATOM      6  C   UNL     1      46.664   2.926   7.482  0.00  0.00    +0.000 A 
ATOM      7  N   UNL     1      46.774   4.283   7.520  0.00  0.00    +0.000 NA
ATOM      8  C   UNL     1      46.067   4.967   8.451  0.00  0.00    +0.000 A 
ATOM      9  C   UNL     1      45.226   4.276   9.327  0.00  0.00    +0.000 A 
ENDROOT
BRANCH   6  10
ATOM     10  C   UNL     1      47.441   2.217   6.412  0.00  0.00    +0.000 C 
ATOM     11  N   UNL     1      47.741   2.963   5.307  0.00  0.00    +0.000 N 
ATOM     12  O   UNL     1      47.777   1.043   6.502  0.00  0.00    +0.000 OA
ATOM     13  H   UNL     1      47.415   3.922   5.250  0.00  0.00    +0.000 HD
ATOM     14  H   UNL     1      48.218   2.528   4.530  0.00  0.00    +0.000 HD
ENDBRANCH   6  10
BRANCH   1  15
ATOM     15  C   UNL     1      44.302   6.055  10.888  0.00  0.00    +0.000 C 
BRANCH  15  19
ATOM     16  C   UNL     1      47.324   8.097  12.238  0.00  0.00    +0.000 C 
ATOM     17  C   UNL     1      47.405   6.675  11.657  0.00  0.00    +0.000 C 
ATOM     18  C   UNL     1      46.417   5.709  12.311  0.00  0.00    +0.000 C 
ATOM     19  C   UNL     1      44.962   6.209  12.279  0.00  0.00    +0.000 C 
ATOM     20  C   UNL     1      44.867   7.654  12.798  0.00  0.00    +0.000 C 
ATOM     21  C   UNL     1      45.874   8.603  12.153  0.00  0.00    +0.000 C 
BRANCH  16  22
ATOM     22  C   UNL     1      47.938   8.142  13.654  0.00  0.00    +0.000 C 
BRANCH  22  23
ATOM     23  N   UNL     1      47.203   9.021  14.559  0.00  0.00    +0.000 NA
ATOM     24  H   UNL     1      46.397   8.519  14.931  0.00  0.00    +0.000 HD
ATOM     25  H   UNL     1      46.819   9.806  14.035  0.00  0.00    +0.000 HD
ENDBRANCH  22  23
ENDBRANCH  16  22
ENDBRANCH  15  19
ENDBRANCH   1  15
TORSDOF 5
ENDMDL
MODEL 2
REMARK VINA RESULT:    -6.933      1.299      1.344
REMARK INTER + INTRA:          -9.246
REMARK INTER:                  -8.601
REMARK INTRA:                  -0.645
REMARK UNBOUND:                -0.490
REMARK  Name = 
REMARK  5 active torsions:
REMARK  status: ('A' for Active; 'I' for Inactive)
REMARK    1  A    between atoms: N_1  and  C_2
REMARK    2  A    between atoms: C_2  and  C_3
REMARK    3  A    between atoms: C_6  and  C_7
REMARK    4  A    between atoms: C_7  and  N_8
REMARK    5  A    between atoms: C_13  and  C_14
REMARK                            x       y       z     vdW  Elec       q    Type
REMARK                         _______ _______ _______ _____ _____    ______ ____
ROOT
ATOM      1  N   UNL     1      44.297   5.302  10.988  0.00  0.00    +0.000 N 
ATOM      2  C   UNL     1      43.513   4.390  11.655  0.00  0.00    +0.000 A 
ATOM      3  C   UNL     1      43.760   3.146  11.125  0.00  0.00    +0.000 A 
ATOM      4  C   UNL     1      44.648   3.317  10.030  0.00  0.00    +0.000 A 
ATOM      5  C   UNL     1      45.208   2.428   9.106  0.00  0.00    +0.000 A 
ATOM      6  C   UNL     1      46.002   2.991   8.119  0.00  0.00    +0.000 A 
ATOM      7  N   UNL     1      46.289   4.318   8.009  0.00  0.00    +0.000 NA
ATOM      8  C   UNL     1      45.775   5.171   8.927  0.00  0.00    +0.000 A 
ATOM      9  C   UNL     1      44.947   4.681   9.940  0.00  0.00    +0.000 A 
ENDROOT
BRANCH   6  10
ATOM     10  C   UNL     1      46.568   2.091   7.059  0.00  0.00    +0.000 C 
ATOM     11  N   UNL     1      46.904   0.832   7.470  0.00  0.00    +0.000 N 
ATOM     12  O   UNL     1      46.738   2.454   5.901  0.00  0.00    +0.000 OA
ATOM     13  H   UNL     1      46.784   0.577   8.444  0.00  0.00    +0.000 HD
ATOM     14  H   UNL     1      47.337   0.196   6.814  0.00  0.00    +0.000 HD
ENDBRANCH   6  10
BRANCH   1  15
ATOM     15  C   UNL     1      44.424   6.700  11.392  0.00  0.00    +0.000 C 
BRANCH  15  19
ATOM     16  C   UNL     1      47.993   7.953  12.296  0.00  0.00    +0.000 C 
ATOM     17  C   UNL     1      47.621   6.496  11.977  0.00  0.00    +0.000 C 
ATOM     18  C   UNL     1      46.446   5.985  12.811  0.00  0.00    +0.000 C 
ATOM     19  C   UNL     1      45.198   6.880  12.720  0.00  0.00    +0.000 C 
ATOM     20  C   UNL     1      45.559   8.354  12.975  0.00  0.00    +0.000 C 
ATOM     21  C   UNL     1      46.747   8.843  12.151  0.00  0.00    +0.000 C 
BRANCH  16  22
ATOM     22  C   UNL     1      48.693   8.048  13.669  0.00  0.00    +0.000 C 
BRANCH  22  23
ATOM     23  N   UNL     1      49.738   7.043  13.839  0.00  0.00    +0.000 NA
ATOM     24  H   UNL     1      49.351   6.236  14.327  0.00  0.00    +0.000 HD
ATOM     25  H   UNL     1      50.468   7.408  14.449  0.00  0.00    +0.000 HD
ENDBRANCH  22  23
ENDBRANCH  16  22
ENDBRANCH  15  19
ENDBRANCH   1  15
TORSDOF 5
ENDMDL
MODEL 3
REMARK VINA RESULT:    -6.039      4.285      6.154
REMARK INTER + INTRA:          -8.118
REMARK INTER:                  -7.626
REMARK INTRA:                  -0.492
REMARK UNBOUND:                -0.490
REMARK  Name = 
REMARK  5 active torsions:
REMARK  status: ('A' for Active; 'I' for Inactive)
REMARK    1  A    between atoms: N_1  and  C_2
REMARK    2  A    between atoms: C_2  and  C_3
REMARK    3  A    between atoms: C_6  and  C_7
REMARK    4  A    between atoms: C_7  and  N_8
REMARK    5  A    between atoms: C_13  and  C_14
REMARK                            x       y       z     vdW  Elec       q    Type
REMARK                         _______ _______ _______ _____ _____    ______ ____
ROOT
ATOM      1  N   UNL     1      47.754   6.235  14.159  0.00  0.00    +0.000 N 
ATOM      2  C   UNL     1      47.512   7.473  13.613  0.00  0.00    +0.000 A 
ATOM      3  C   UNL     1      46.456   7.357  12.741  0.00  0.00    +0.000 A 
ATOM      4  C   UNL     1      46.105   5.983  12.676  0.00  0.00    +0.000 A 
ATOM      5  C   UNL     1      45.149   5.274  11.940  0.00  0.00    +0.000 A 
ATOM      6  C   UNL     1      45.147   3.898  12.104  0.00  0.00    +0.000 A 
ATOM      7  N   UNL     1      45.976   3.209  12.937  0.00  0.00    +0.000 NA
ATOM      8  C   UNL     1      46.876   3.902  13.675  0.00  0.00    +0.000 A 
ATOM      9  C   UNL     1      46.954   5.291  13.548  0.00  0.00    +0.000 A 
ENDROOT
BRANCH   6  10
ATOM     10  C   UNL     1      44.190   3.083  11.284  0.00  0.00    +0.000 C 
ATOM     11  N   UNL     1      44.745   2.390  10.245  0.00  0.00    +0.000 N 
ATOM     12  O   UNL     1      42.987   3.045  11.509  0.00  0.00    +0.000 OA
ATOM     13  H   UNL     1      45.739   2.473  10.065  0.00  0.00    +0.000 HD
ATOM     14  H   UNL     1      44.145   1.863   9.625  0.00  0.00    +0.000 HD
ENDBRANCH   6  10
BRANCH   1  15
ATOM     15  C   UNL     1      48.697   6.008  15.251  0.00  0.00    +0.000 C 
BRANCH  15  19
ATOM     16  C   UNL     1      49.754   4.688  18.754  0.00  0.00    +0.000 C 
ATOM     17  C   UNL     1      49.022   3.864  17.680  0.00  0.00    +0.000 C 
ATOM     18  C   UNL     1      47.763   4.554  17.157  0.00  0.00    +0.000 C 
ATOM     19  C   UNL     1      48.018   5.981  16.643  0.00  0.00    +0.000 C 
ATOM     20  C   UNL     1      48.804   6.805  17.677  0.00  0.00    +0.000 C 
ATOM     21  C   UNL     1      50.047   6.095  18.207  0.00  0.00    +0.000 C 
BRANCH  16  22
ATOM     22  C   UNL     1      48.969   4.666  20.084  0.00  0.00    +0.000 C 
BRANCH  22  23
ATOM     23  N   UNL     1      48.392   3.358  20.376  0.00  0.00    +0.000 NA
ATOM     24  H   UNL     1      48.451   2.772  19.543  0.00  0.00    +0.000 HD
ATOM     25  H   UNL     1      47.397   3.459  20.569  0.00  0.00    +0.000 HD
ENDBRANCH  22  23
ENDBRANCH  16  22
ENDBRANCH  15  19
ENDBRANCH   1  15
TORSDOF 5
ENDMDL
MODEL 4
REMARK VINA RESULT:    -5.444      4.289      7.625
REMARK INTER + INTRA:          -7.366
REMARK INTER:                  -6.856
REMARK INTRA:                  -0.509
REMARK UNBOUND:                -0.490
REMARK  Name = 
REMARK  5 active torsions:
REMARK  status: ('A' for Active; 'I' for Inactive)
REMARK    1  A    between atoms: N_1  and  C_2
REMARK    2  A    between atoms: C_2  and  C_3
REMARK    3  A    between atoms: C_6  and  C_7
REMARK    4  A    between atoms: C_7  and  N_8
REMARK    5  A    between atoms: C_13  and  C_14
REMARK                            x       y       z     vdW  Elec       q    Type
REMARK                         _______ _______ _______ _____ _____    ______ ____
ROOT
ATOM      1  N   UNL     1      47.336   7.910  12.926  0.00  0.00    +0.000 N 
ATOM      2  C   UNL     1      47.660   8.977  12.122  0.00  0.00    +0.000 A 
ATOM      3  C   UNL     1      48.981   9.290  12.338  0.00  0.00    +0.000 A 
ATOM      4  C   UNL     1      49.452   8.452  13.384  0.00  0.00    +0.000 A 
ATOM      5  C   UNL     1      50.682   8.347  14.043  0.00  0.00    +0.000 A 
ATOM      6  C   UNL     1      50.744   7.428  15.079  0.00  0.00    +0.000 A 
ATOM      7  N   UNL     1      49.719   6.619  15.468  0.00  0.00    +0.000 NA
ATOM      8  C   UNL     1      48.542   6.697  14.804  0.00  0.00    +0.000 A 
ATOM      9  C   UNL     1      48.395   7.616  13.762  0.00  0.00    +0.000 A 
ENDROOT
BRANCH   6  10
ATOM     10  C   UNL     1      52.017   7.326  15.868  0.00  0.00    +0.000 C 
ATOM     11  N   UNL     1      53.137   7.023  15.146  0.00  0.00    +0.000 N 
ATOM     12  O   UNL     1      52.061   7.486  17.082  0.00  0.00    +0.000 OA
ATOM     13  H   UNL     1      53.058   6.862  14.149  0.00  0.00    +0.000 HD
ATOM     14  H   UNL     1      54.015   6.892  15.628  0.00  0.00    +0.000 HD
ENDBRANCH   6  10
BRANCH   1  15
ATOM     15  C   UNL     1      46.063   7.198  12.844  0.00  0.00    +0.000 C 
BRANCH  15  19
ATOM     16  C   UNL     1      43.492   4.469  11.811  0.00  0.00    +0.000 C 
ATOM     17  C   UNL     1      44.292   4.480  13.125  0.00  0.00    +0.000 C 
ATOM     18  C   UNL     1      45.796   4.641  12.904  0.00  0.00    +0.000 C 
ATOM     19  C   UNL     1      46.161   5.871  12.054  0.00  0.00    +0.000 C 
ATOM     20  C   UNL     1      45.326   5.912  10.762  0.00  0.00    +0.000 C 
ATOM     21  C   UNL     1      43.828   5.729  10.996  0.00  0.00    +0.000 C 
BRANCH  16  22
ATOM     22  C   UNL     1      43.707   3.139  11.055  0.00  0.00    +0.000 C 
BRANCH  22  23
ATOM     23  N   UNL     1      43.042   2.011  11.700  0.00  0.00    +0.000 NA
ATOM     24  H   UNL     1      43.450   1.142  11.358  0.00  0.00    +0.000 HD
ATOM     25  H   UNL     1      42.063   1.985  11.417  0.00  0.00    +0.000 HD
ENDBRANCH  22  23
ENDBRANCH  16  22
ENDBRANCH  15  19
ENDBRANCH   1  15
TORSDOF 5
ENDMDL
MODEL 5
REMARK VINA RESULT:    -5.437      4.755      8.514
REMARK INTER + INTRA:          -7.357
REMARK INTER:                  -6.894
REMARK INTRA:                  -0.463
REMARK UNBOUND:                -0.490
REMARK  Name = 
REMARK  5 active torsions:
REMARK  status: ('A' for Active; 'I' for Inactive)
REMARK    1  A    between atoms: N_1  and  C_2
REMARK    2  A    between atoms: C_2  and  C_3
REMARK    3  A    between atoms: C_6  and  C_7
REMARK    4  A    between atoms: C_7  and  N_8
REMARK    5  A    between atoms: C_13  and  C_14
REMARK                            x       y       z     vdW  Elec       q    Type
REMARK                         _______ _______ _______ _____ _____    ______ ____
ROOT
ATOM      1  N   UNL     1      48.283   6.578  14.390  0.00  0.00    +0.000 N 
ATOM      2  C   UNL     1      48.836   7.837  14.426  0.00  0.00    +0.000 A 
ATOM      3  C   UNL     1      49.440   8.003  15.650  0.00  0.00    +0.000 A 
ATOM      4  C   UNL     1      49.159   6.847  16.425  0.00  0.00    +0.000 A 
ATOM      5  C   UNL     1      49.474   6.476  17.737  0.00  0.00    +0.000 A 
ATOM      6  C   UNL     1      48.960   5.264  18.171  0.00  0.00    +0.000 A 
ATOM      7  N   UNL     1      48.210   4.417  17.412  0.00  0.00    +0.000 NA
ATOM      8  C   UNL     1      47.938   4.762  16.130  0.00  0.00    +0.000 A 
ATOM      9  C   UNL     1      48.403   5.979  15.628  0.00  0.00    +0.000 A 
ENDROOT
BRANCH   6  10
ATOM     10  C   UNL     1      49.206   4.853  19.593  0.00  0.00    +0.000 C 
ATOM     11  N   UNL     1      50.466   4.404  19.869  0.00  0.00    +0.000 N 
ATOM     12  O   UNL     1      48.338   4.896  20.457  0.00  0.00    +0.000 OA
ATOM     13  H   UNL     1      51.149   4.346  19.122  0.00  0.00    +0.000 HD
ATOM     14  H   UNL     1      50.679   4.065  20.797  0.00  0.00    +0.000 HD
ENDBRANCH   6  10
BRANCH   1  15
ATOM     15  C   UNL     1      47.702   5.990  13.186  0.00  0.00    +0.000 C 
BRANCH  15  19
ATOM     16  C   UNL     1      44.952   4.309  11.009  0.00  0.00    +0.000 C 
ATOM     17  C   UNL     1      45.645   5.643  10.685  0.00  0.00    +0.000 C 
ATOM     18  C   UNL     1      45.602   6.634  11.848  0.00  0.00    +0.000 C 
ATOM     19  C   UNL     1      46.156   6.058  13.162  0.00  0.00    +0.000 C 
ATOM     20  C   UNL     1      45.520   4.692  13.474  0.00  0.00    +0.000 C 
ATOM     21  C   UNL     1      45.551   3.720  12.297  0.00  0.00    +0.000 C 
BRANCH  16  22
ATOM     22  C   UNL     1      43.418   4.487  11.038  0.00  0.00    +0.000 C 
BRANCH  22  23
ATOM     23  N   UNL     1      42.719   3.277  11.458  0.00  0.00    +0.000 NA
ATOM     24  H   UNL     1      42.034   3.022  10.747  0.00  0.00    +0.000 HD
ATOM     25  H   UNL     1      42.180   3.469  12.301  0.00  0.00    +0.000 HD
ENDBRANCH  22  23
ENDBRANCH  16  22
ENDBRANCH  15  19
ENDBRANCH   1  15
TORSDOF 5
ENDMDL
MODEL 6
REMARK VINA RESULT:    -5.406      3.092      4.927
REMARK INTER + INTRA:          -7.318
REMARK INTER:                  -6.803
REMARK INTRA:                  -0.515
REMARK UNBOUND:                -0.490
REMARK  Name = 
REMARK  5 active torsions:
REMARK  status: ('A' for Active; 'I' for Inactive)
REMARK    1  A    between atoms: N_1  and  C_2
REMARK    2  A    between atoms: C_2  and  C_3
REMARK    3  A    between atoms: C_6  and  C_7
REMARK    4  A    between atoms: C_7  and  N_8
REMARK    5  A    between atoms: C_13  and  C_14
REMARK                            x       y       z     vdW  Elec       q    Type
REMARK                         _______ _______ _______ _____ _____    ______ ____
ROOT
ATOM      1  N   UNL     1      47.051   6.823  13.256  0.00  0.00    +0.000 N 
ATOM      2  C   UNL     1      47.555   6.164  14.352  0.00  0.00    +0.000 A 
ATOM      3  C   UNL     1      47.167   4.847  14.274  0.00  0.00    +0.000 A 
ATOM      4  C   UNL     1      46.314   4.719  13.147  0.00  0.00    +0.000 A 
ATOM      5  C   UNL     1      45.603   3.643  12.604  0.00  0.00    +0.000 A 
ATOM      6  C   UNL     1      44.810   3.927  11.502  0.00  0.00    +0.000 A 
ATOM      7  N   UNL     1      44.703   5.150  10.911  0.00  0.00    +0.000 NA
ATOM      8  C   UNL     1      45.421   6.181  11.417  0.00  0.00    +0.000 A 
ATOM      9  C   UNL     1      46.227   5.977  12.540  0.00  0.00    +0.000 A 
ENDROOT
BRANCH   6  10
ATOM     10  C   UNL     1      43.970   2.826  10.925  0.00  0.00    +0.000 C 
ATOM     11  N   UNL     1      44.427   2.282   9.759  0.00  0.00    +0.000 N 
ATOM     12  O   UNL     1      42.930   2.440  11.447  0.00  0.00    +0.000 OA
ATOM     13  H   UNL     1      45.272   2.650   9.335  0.00  0.00    +0.000 HD
ATOM     14  H   UNL     1      43.879   1.571   9.295  0.00  0.00    +0.000 HD
ENDBRANCH   6  10
BRANCH   1  15
ATOM     15  C   UNL     1      47.397   8.201  12.917  0.00  0.00    +0.000 C 
BRANCH  15  19
ATOM     16  C   UNL     1      51.033   9.552  12.630  0.00  0.00    +0.000 C 
ATOM     17  C   UNL     1      49.759  10.387  12.417  0.00  0.00    +0.000 C 
ATOM     18  C   UNL     1      48.794   9.754  11.415  0.00  0.00    +0.000 C 
ATOM     19  C   UNL     1      48.421   8.301  11.760  0.00  0.00    +0.000 C 
ATOM     20  C   UNL     1      49.680   7.462  12.038  0.00  0.00    +0.000 C 
ATOM     21  C   UNL     1      50.645   8.117  13.024  0.00  0.00    +0.000 C 
BRANCH  16  22
ATOM     22  C   UNL     1      51.961   9.651  11.399  0.00  0.00    +0.000 C 
BRANCH  22  23
ATOM     23  N   UNL     1      53.089   8.728  11.468  0.00  0.00    +0.000 NA
ATOM     24  H   UNL     1      52.743   7.791  11.671  0.00  0.00    +0.000 HD
ATOM     25  H   UNL     1      53.686   8.976  12.256  0.00  0.00    +0.000 HD
ENDBRANCH  22  23
ENDBRANCH  16  22
ENDBRANCH  15  19
ENDBRANCH   1  15
TORSDOF 5
ENDMDL
MODEL 7
REMARK VINA RESULT:    -5.404      3.558      5.887
REMARK INTER + INTRA:          -7.315
REMARK INTER:                  -6.846
REMARK INTRA:                  -0.469
REMARK UNBOUND:                -0.490
REMARK  Name = 
REMARK  5 active torsions:
REMARK  status: ('A' for Active; 'I' for Inactive)
REMARK    1  A    between atoms: N_1  and  C_2
REMARK    2  A    between atoms: C_2  and  C_3
REMARK    3  A    between atoms: C_6  and  C_7
REMARK    4  A    between atoms: C_7  and  N_8
REMARK    5  A    between atoms: C_13  and  C_14
REMARK                            x       y       z     vdW  Elec       q    Type
REMARK                         _______ _______ _______ _____ _____    ______ ____
ROOT
ATOM      1  N   UNL     1      47.844   6.267  13.862  0.00  0.00    +0.000 N 
ATOM      2  C   UNL     1      48.362   7.194  12.989  0.00  0.00    +0.000 A 
ATOM      3  C   UNL     1      47.588   7.192  11.853  0.00  0.00    +0.000 A 
ATOM      4  C   UNL     1      46.626   6.157  11.995  0.00  0.00    +0.000 A 
ATOM      5  C   UNL     1      45.615   5.671  11.158  0.00  0.00    +0.000 A 
ATOM      6  C   UNL     1      44.900   4.582  11.632  0.00  0.00    +0.000 A 
ATOM      7  N   UNL     1      45.092   3.987  12.842  0.00  0.00    +0.000 NA
ATOM      8  C   UNL     1      46.046   4.484  13.665  0.00  0.00    +0.000 A 
ATOM      9  C   UNL     1      46.824   5.567  13.248  0.00  0.00    +0.000 A 
ENDROOT
BRANCH   6  10
ATOM     10  C   UNL     1      43.854   3.974  10.743  0.00  0.00    +0.000 C 
ATOM     11  N   UNL     1      43.818   4.449   9.462  0.00  0.00    +0.000 N 
ATOM     12  O   UNL     1      43.066   3.120  11.132  0.00  0.00    +0.000 OA
ATOM     13  H   UNL     1      44.461   5.182   9.185  0.00  0.00    +0.000 HD
ATOM     14  H   UNL     1      43.104   4.115   8.830  0.00  0.00    +0.000 HD
ENDBRANCH   6  10
BRANCH   1  15
ATOM     15  C   UNL     1      48.308   6.110  15.238  0.00  0.00    +0.000 C 
BRANCH  15  19
ATOM     16  C   UNL     1      49.908   7.141  18.630  0.00  0.00    +0.000 C 
ATOM     17  C   UNL     1      48.586   7.692  18.071  0.00  0.00    +0.000 C 
ATOM     18  C   UNL     1      48.719   8.225  16.644  0.00  0.00    +0.000 C 
ATOM     19  C   UNL     1      49.320   7.202  15.664  0.00  0.00    +0.000 C 
ATOM     20  C   UNL     1      50.612   6.591  16.232  0.00  0.00    +0.000 C 
ATOM     21  C   UNL     1      50.470   6.083  17.665  0.00  0.00    +0.000 C 
BRANCH  16  22
ATOM     22  C   UNL     1      50.883   8.294  18.957  0.00  0.00    +0.000 C 
BRANCH  22  23
ATOM     23  N   UNL     1      50.266   9.339  19.768  0.00  0.00    +0.000 NA
ATOM     24  H   UNL     1      50.997   9.877  20.233  0.00  0.00    +0.000 HD
ATOM     25  H   UNL     1      49.721   8.914  20.517  0.00  0.00    +0.000 HD
ENDBRANCH  22  23
ENDBRANCH  16  22
ENDBRANCH  15  19
ENDBRANCH   1  15
TORSDOF 5
ENDMDL
MODEL 8
REMARK VINA RESULT:    -5.320      3.513      5.355
REMARK INTER + INTRA:          -7.209
REMARK INTER:                  -6.736
REMARK INTRA:                  -0.474
REMARK UNBOUND:                -0.490
REMARK  Name = 
REMARK  5 active torsions:
REMARK  status: ('A' for Active; 'I' for Inactive)
REMARK    1  A    between atoms: N_1  and  C_2
REMARK    2  A    between atoms: C_2  and  C_3
REMARK    3  A    between atoms: C_6  and  C_7
REMARK    4  A    between atoms: C_7  and  N_8
REMARK    5  A    between atoms: C_13  and  C_14
REMARK                            x       y       z     vdW  Elec       q    Type
REMARK                         _______ _______ _______ _____ _____    ______ ____
ROOT
ATOM      1  N   UNL     1      46.757   7.790  12.995  0.00  0.00    +0.000 N 
ATOM      2  C   UNL     1      46.087   8.761  12.288  0.00  0.00    +0.000 A 
ATOM      3  C   UNL     1      44.994   8.178  11.692  0.00  0.00    +0.000 A 
ATOM      4  C   UNL     1      45.055   6.785  11.959  0.00  0.00    +0.000 A 
ATOM      5  C   UNL     1      44.249   5.704  11.584  0.00  0.00    +0.000 A 
ATOM      6  C   UNL     1      44.674   4.451  11.999  0.00  0.00    +0.000 A 
ATOM      7  N   UNL     1      45.781   4.213  12.756  0.00  0.00    +0.000 NA
ATOM      8  C   UNL     1      46.538   5.265  13.149  0.00  0.00    +0.000 A 
ATOM      9  C   UNL     1      46.186   6.557  12.750  0.00  0.00    +0.000 A 
ENDROOT
BRANCH   6  10
ATOM     10  C   UNL     1      43.887   3.250  11.562  0.00  0.00    +0.000 C 
ATOM     11  N   UNL     1      43.671   2.303  12.523  0.00  0.00    +0.000 N 
ATOM     12  O   UNL     1      43.473   3.108  10.417  0.00  0.00    +0.000 OA
ATOM     13  H   UNL     1      44.059   2.436  13.450  0.00  0.00    +0.000 HD
ATOM     14  H   UNL     1      43.192   1.448  12.276  0.00  0.00    +0.000 HD
ENDBRANCH   6  10
BRANCH   1  15
ATOM     15  C   UNL     1      47.875   8.075  13.891  0.00  0.00    +0.000 C 
BRANCH  15  19
ATOM     16  C   UNL     1      51.174   9.476  12.383  0.00  0.00    +0.000 C 
ATOM     17  C   UNL     1      49.945   9.038  11.570  0.00  0.00    +0.000 C 
ATOM     18  C   UNL     1      49.469   7.630  11.922  0.00  0.00    +0.000 C 
ATOM     19  C   UNL     1      49.204   7.433  13.425  0.00  0.00    +0.000 C 
ATOM     20  C   UNL     1      50.398   7.923  14.262  0.00  0.00    +0.000 C 
ATOM     21  C   UNL     1      50.876   9.323  13.884  0.00  0.00    +0.000 C 
BRANCH  16  22
ATOM     22  C   UNL     1      52.439   8.733  11.900  0.00  0.00    +0.000 C 
BRANCH  22  23
ATOM     23  N   UNL     1      52.620   8.810  10.454  0.00  0.00    +0.000 NA
ATOM     24  H   UNL     1      53.248   9.584  10.237  0.00  0.00    +0.000 HD
ATOM     25  H   UNL     1      51.733   9.044  10.011  0.00  0.00    +0.000 HD
ENDBRANCH  22  23
ENDBRANCH  16  22
ENDBRANCH  15  19
ENDBRANCH   1  15
TORSDOF 5
ENDMDL
MODEL 9
REMARK VINA RESULT:    -5.200      3.205      6.842
REMARK INTER + INTRA:          -7.058
REMARK INTER:                  -6.608
REMARK INTRA:                  -0.449
REMARK UNBOUND:                -0.490
REMARK  Name = 
REMARK  5 active torsions:
REMARK  status: ('A' for Active; 'I' for Inactive)
REMARK    1  A    between atoms: N_1  and  C_2
REMARK    2  A    between atoms: C_2  and  C_3
REMARK    3  A    between atoms: C_6  and  C_7
REMARK    4  A    between atoms: C_7  and  N_8
REMARK    5  A    between atoms: C_13  and  C_14
REMARK                            x       y       z     vdW  Elec       q    Type
REMARK                         _______ _______ _______ _____ _____    ______ ____
ROOT
ATOM      1  N   UNL     1      46.043   7.479  12.794  0.00  0.00    +0.000 N 
ATOM      2  C   UNL     1      45.272   8.589  12.538  0.00  0.00    +0.000 A 
ATOM      3  C   UNL     1      46.104   9.600  12.120  0.00  0.00    +0.000 A 
ATOM      4  C   UNL     1      47.438   9.124  12.221  0.00  0.00    +0.000 A 
ATOM      5  C   UNL     1      48.684   9.712  11.974  0.00  0.00    +0.000 A 
ATOM      6  C   UNL     1      49.795   8.930  12.252  0.00  0.00    +0.000 A 
ATOM      7  N   UNL     1      49.754   7.649  12.711  0.00  0.00    +0.000 NA
ATOM      8  C   UNL     1      48.546   7.070  12.914  0.00  0.00    +0.000 A 
ATOM      9  C   UNL     1      47.380   7.802  12.678  0.00  0.00    +0.000 A 
ENDROOT
BRANCH   6  10
ATOM     10  C   UNL     1      51.156   9.537  12.075  0.00  0.00    +0.000 C 
ATOM     11  N   UNL     1      51.175  10.873  11.788  0.00  0.00    +0.000 N 
ATOM     12  O   UNL     1      52.191   8.886  12.162  0.00  0.00    +0.000 OA
ATOM     13  H   UNL     1      50.299  11.373  11.686  0.00  0.00    +0.000 HD
ATOM     14  H   UNL     1      52.059  11.328  11.607  0.00  0.00    +0.000 HD
ENDBRANCH   6  10
BRANCH   1  15
ATOM     15  C   UNL     1      45.483   6.165  13.099  0.00  0.00    +0.000 C 
BRANCH  15  19
ATOM     16  C   UNL     1      43.690   3.575  10.818  0.00  0.00    +0.000 C 
ATOM     17  C   UNL     1      44.076   3.342  12.289  0.00  0.00    +0.000 C 
ATOM     18  C   UNL     1      45.546   3.647  12.574  0.00  0.00    +0.000 C 
ATOM     19  C   UNL     1      45.973   5.058  12.134  0.00  0.00    +0.000 C 
ATOM     20  C   UNL     1      45.542   5.335  10.683  0.00  0.00    +0.000 C 
ATOM     21  C   UNL     1      44.077   5.005  10.407  0.00  0.00    +0.000 C 
BRANCH  16  22
ATOM     22  C   UNL     1      44.282   2.467   9.919  0.00  0.00    +0.000 C 
BRANCH  22  23
ATOM     23  N   UNL     1      44.305   2.838   8.508  0.00  0.00    +0.000 NA
ATOM     24  H   UNL     1      44.259   3.854   8.429  0.00  0.00    +0.000 HD
ATOM     25  H   UNL     1      43.465   2.489   8.050  0.00  0.00    +0.000 HD
ENDBRANCH  22  23
ENDBRANCH  16  22
ENDBRANCH  15  19
ENDBRANCH   1  15
TORSDOF 5
ENDMDL
