MODEL 1
REMARK VINA RESULT:    -8.816      0.000      0.000
REMARK INTER + INTRA:         -12.178
REMARK INTER:                 -11.393
REMARK INTRA:                  -0.785
REMARK UNBOUND:                -0.785
REMARK  Name = 
REMARK  5 active torsions:
REMARK  status: ('A' for Active; 'I' for Inactive)
REMARK    1  A    between atoms: C_2  and  C_3
REMARK    2  A    between atoms: C_11  and  C_12
REMARK    3  A    between atoms: C_12  and  N_13
REMARK    4  A    between atoms: N_13  and  C_14
REMARK    5  A    between atoms: C_17  and  C_18
REMARK                            x       y       z     vdW  Elec       q    Type
REMARK                         _______ _______ _______ _____ _____    ______ ____
ROOT
ATOM      1  C   UNL     1      43.926   4.801  11.334  0.00  0.00    +0.000 C 
ATOM      2  C   UNL     1      43.283   6.147  11.085  0.00  0.00    +0.000 C 
ATOM      3  C   UNL     1      42.618   5.200  12.027  0.00  0.00    +0.000 C 
ENDROOT
BRANCH   1  12
ATOM      4  C   UNL     1      48.890   9.644  13.547  0.00  0.00    +0.000 C 
ATOM      5  C   UNL     1      49.292   8.394  14.344  0.00  0.00    +0.000 C 
ATOM      6  C   UNL     1      49.090   7.105  13.545  0.00  0.00    +0.000 C 
ATOM      7  N   UNL     1      47.720   7.107  13.070  0.00  0.00    +0.000 N 
ATOM      8  C   UNL     1      47.032   5.916  12.997  0.00  0.00    +0.000 A 
ATOM      9  N   UNL     1      47.499   4.831  13.627  0.00  0.00    +0.000 NA
ATOM     10  C   UNL     1      46.764   3.708  13.556  0.00  0.00    +0.000 A 
ATOM     11  C   UNL     1      45.585   3.617  12.863  0.00  0.00    +0.000 A 
ATOM     12  C   UNL     1      45.169   4.763  12.223  0.00  0.00    +0.000 A 
ATOM     13  N   UNL     1      45.878   5.907  12.326  0.00  0.00    +0.000 NA
ATOM     14  C   UNL     1      47.351   8.180  12.156  0.00  0.00    +0.000 C 
ATOM     15  C   UNL     1      47.502   9.501  12.912  0.00  0.00    +0.000 C 
BRANCH   4  17
ATOM     16  N   UNL     1      50.694  10.176  11.701  0.00  0.00    +0.000 NA
ATOM     17  C   UNL     1      49.903   9.950  12.517  0.00  0.00    +0.000 C 
ENDBRANCH   4  17
ENDBRANCH   1  12
BRANCH   1  18
ATOM     18  N   UNL     1      43.767   3.624  10.455  0.00  0.00    +0.000 N 
ATOM     19  H   UNL     1      43.404   2.815  10.955  0.00  0.00    +0.000 HD
BRANCH  18  20
ATOM     20  C   UNL     1      44.652   3.238   9.430  0.00  0.00    +0.000 A 
ATOM     21  C   UNL     1      45.082   1.931   9.212  0.00  0.00    +0.000 A 
ATOM     22  C   UNL     1      46.042   1.645   8.230  0.00  0.00    +0.000 A 
ATOM     23  C   UNL     1      46.604   2.674   7.463  0.00  0.00    +0.000 A 
ATOM     24  C   UNL     1      46.208   3.991   7.696  0.00  0.00    +0.000 A 
ATOM     25  C   UNL     1      45.251   4.264   8.675  0.00  0.00    +0.000 A 
BRANCH  23  26
ATOM     26  C   UNL     1      47.652   2.337   6.466  0.00  0.00    +0.000 C 
ATOM     27  N   UNL     1      47.730   3.110   5.340  0.00  0.00    +0.000 N 
ATOM     28  O   UNL     1      48.409   1.384   6.627  0.00  0.00    +0.000 OA
ATOM     29  H   UNL     1      47.016   3.772   5.071  0.00  0.00    +0.000 HD
ATOM     30  H   UNL     1      48.404   2.829   4.641  0.00  0.00    +0.000 HD
ENDBRANCH  23  26
ENDBRANCH  18  20
ENDBRANCH   1  18
TORSDOF 5
ENDMDL
MODEL 2
REMARK VINA RESULT:    -7.924      2.341      3.699
REMARK INTER + INTRA:         -11.026
REMARK INTER:                 -11.347
REMARK INTRA:                   0.321
REMARK UNBOUND:                -0.785
REMARK  Name = 
REMARK  5 active torsions:
REMARK  status: ('A' for Active; 'I' for Inactive)
REMARK    1  A    between atoms: C_2  and  C_3
REMARK    2  A    between atoms: C_11  and  C_12
REMARK    3  A    between atoms: C_12  and  N_13
REMARK    4  A    between atoms: N_13  and  C_14
REMARK    5  A    between atoms: C_17  and  C_18
REMARK                            x       y       z     vdW  Elec       q    Type
REMARK                         _______ _______ _______ _____ _____    ______ ____
ROOT
ATOM      1  C   UNL     1      44.395   4.531  11.900  0.00  0.00    +0.000 C 
ATOM      2  C   UNL     1      43.342   4.262  12.951  0.00  0.00    +0.000 C 
ATOM      3  C   UNL     1      44.207   3.133  12.500  0.00  0.00    +0.000 C 
ENDROOT
BRANCH   1  12
ATOM      4  C   UNL     1      48.987   4.160  17.537  0.00  0.00    +0.000 C 
ATOM      5  C   UNL     1      49.666   5.210  16.646  0.00  0.00    +0.000 C 
ATOM      6  C   UNL     1      48.655   6.108  15.930  0.00  0.00    +0.000 C 
ATOM      7  N   UNL     1      47.724   5.235  15.238  0.00  0.00    +0.000 N 
ATOM      8  C   UNL     1      47.220   5.624  14.017  0.00  0.00    +0.000 A 
ATOM      9  N   UNL     1      47.796   6.626  13.341  0.00  0.00    +0.000 NA
ATOM     10  C   UNL     1      47.287   6.933  12.135  0.00  0.00    +0.000 A 
ATOM     11  C   UNL     1      46.211   6.290  11.580  0.00  0.00    +0.000 A 
ATOM     12  C   UNL     1      45.654   5.281  12.334  0.00  0.00    +0.000 A 
ATOM     13  N   UNL     1      46.186   4.936  13.526  0.00  0.00    +0.000 NA
ATOM     14  C   UNL     1      46.921   4.351  16.072  0.00  0.00    +0.000 C 
ATOM     15  C   UNL     1      47.880   3.402  16.794  0.00  0.00    +0.000 C 
BRANCH   4  17
ATOM     16  N   UNL     1      48.049   5.286  19.727  0.00  0.00    +0.000 NA
ATOM     17  C   UNL     1      48.454   4.787  18.762  0.00  0.00    +0.000 C 
ENDBRANCH   4  17
ENDBRANCH   1  12
BRANCH   1  18
ATOM     18  N   UNL     1      44.135   4.565  10.446  0.00  0.00    +0.000 N 
ATOM     19  H   UNL     1      43.141   4.525  10.230  0.00  0.00    +0.000 HD
BRANCH  18  20
ATOM     20  C   UNL     1      44.900   3.914   9.459  0.00  0.00    +0.000 A 
ATOM     21  C   UNL     1      45.062   2.533   9.373  0.00  0.00    +0.000 A 
ATOM     22  C   UNL     1      45.921   1.969   8.418  0.00  0.00    +0.000 A 
ATOM     23  C   UNL     1      46.651   2.786   7.545  0.00  0.00    +0.000 A 
ATOM     24  C   UNL     1      46.524   4.173   7.645  0.00  0.00    +0.000 A 
ATOM     25  C   UNL     1      45.666   4.722   8.598  0.00  0.00    +0.000 A 
BRANCH  23  26
ATOM     26  C   UNL     1      47.586   2.155   6.580  0.00  0.00    +0.000 C 
ATOM     27  N   UNL     1      47.926   2.869   5.465  0.00  0.00    +0.000 N 
ATOM     28  O   UNL     1      48.023   1.021   6.757  0.00  0.00    +0.000 OA
ATOM     29  H   UNL     1      47.449   3.711   5.178  0.00  0.00    +0.000 HD
ATOM     30  H   UNL     1      48.511   2.400   4.785  0.00  0.00    +0.000 HD
ENDBRANCH  23  26
ENDBRANCH  18  20
ENDBRANCH   1  18
TORSDOF 5
ENDMDL
MODEL 3
REMARK VINA RESULT:    -7.488      1.294      2.380
REMARK INTER + INTRA:         -10.461
REMARK INTER:                 -10.548
REMARK INTRA:                   0.087
REMARK UNBOUND:                -0.785
REMARK  Name = 
REMARK  5 active torsions:
REMARK  status: ('A' for Active; 'I' for Inactive)
REMARK    1  A    between atoms: C_2  and  C_3
REMARK    2  A    between atoms: C_11  and  C_12
REMARK    3  A    between atoms: C_12  and  N_13
REMARK    4  A    between atoms: N_13  and  C_14
REMARK    5  A    between atoms: C_17  and  C_18
REMARK                            x       y       z     vdW  Elec       q    Type
REMARK                         _______ _______ _______ _____ _____    ______ ____
ROOT
ATOM      1  C   UNL     1      44.161   4.545  11.570  0.00  0.00    +0.000 C 
ATOM      2  C   UNL     1      43.847   3.936  12.918  0.00  0.00    +0.000 C 
ATOM      3  C   UNL     1      45.197   3.704  12.326  0.00  0.00    +0.000 C 
ENDROOT
BRANCH   1  12
ATOM      4  C   UNL     1      50.028   8.802  12.237  0.00  0.00    +0.000 C 
ATOM      5  C   UNL     1      48.943   9.819  11.853  0.00  0.00    +0.000 C 
ATOM      6  C   UNL     1      47.583   9.479  12.468  0.00  0.00    +0.000 C 
ATOM      7  N   UNL     1      47.284   8.106  12.108  0.00  0.00    +0.000 N 
ATOM      8  C   UNL     1      45.979   7.749  11.845  0.00  0.00    +0.000 A 
ATOM      9  N   UNL     1      45.056   8.695  11.629  0.00  0.00    +0.000 NA
ATOM     10  C   UNL     1      43.809   8.287  11.335  0.00  0.00    +0.000 A 
ATOM     11  C   UNL     1      43.439   6.969  11.266  0.00  0.00    +0.000 A 
ATOM     12  C   UNL     1      44.431   6.048  11.517  0.00  0.00    +0.000 A 
ATOM     13  N   UNL     1      45.696   6.447  11.768  0.00  0.00    +0.000 NA
ATOM     14  C   UNL     1      48.193   7.088  12.616  0.00  0.00    +0.000 C 
ATOM     15  C   UNL     1      49.571   7.357  12.007  0.00  0.00    +0.000 C 
BRANCH   4  17
ATOM     16  N   UNL     1      50.774   9.166  14.738  0.00  0.00    +0.000 NA
ATOM     17  C   UNL     1      50.448   8.997  13.639  0.00  0.00    +0.000 C 
ENDBRANCH   4  17
ENDBRANCH   1  12
BRANCH   1  18
ATOM     18  N   UNL     1      43.779   3.946  10.275  0.00  0.00    +0.000 N 
ATOM     19  H   UNL     1      42.956   3.352  10.351  0.00  0.00    +0.000 HD
BRANCH  18  20
ATOM     20  C   UNL     1      44.671   3.463   9.298  0.00  0.00    +0.000 A 
ATOM     21  C   UNL     1      45.046   2.127   9.166  0.00  0.00    +0.000 A 
ATOM     22  C   UNL     1      46.016   1.742   8.229  0.00  0.00    +0.000 A 
ATOM     23  C   UNL     1      46.644   2.699   7.421  0.00  0.00    +0.000 A 
ATOM     24  C   UNL     1      46.304   4.044   7.568  0.00  0.00    +0.000 A 
ATOM     25  C   UNL     1      45.336   4.415   8.503  0.00  0.00    +0.000 A 
BRANCH  23  26
ATOM     26  C   UNL     1      47.701   2.259   6.475  0.00  0.00    +0.000 C 
ATOM     27  N   UNL     1      47.892   3.006   5.345  0.00  0.00    +0.000 N 
ATOM     28  O   UNL     1      48.366   1.248   6.679  0.00  0.00    +0.000 OA
ATOM     29  H   UNL     1      47.250   3.721   5.037  0.00  0.00    +0.000 HD
ATOM     30  H   UNL     1      48.568   2.657   4.678  0.00  0.00    +0.000 HD
ENDBRANCH  23  26
ENDBRANCH  18  20
ENDBRANCH   1  18
TORSDOF 5
ENDMDL
MODEL 4
REMARK VINA RESULT:    -6.907      4.885      8.531
REMARK INTER + INTRA:          -9.711
REMARK INTER:                  -9.397
REMARK INTRA:                  -0.314
REMARK UNBOUND:                -0.785
REMARK  Name = 
REMARK  5 active torsions:
REMARK  status: ('A' for Active; 'I' for Inactive)
REMARK    1  A    between atoms: C_2  and  C_3
REMARK    2  A    between atoms: C_11  and  C_12
REMARK    3  A    between atoms: C_12  and  N_13
REMARK    4  A    between atoms: N_13  and  C_14
REMARK    5  A    between atoms: C_17  and  C_18
REMARK                            x       y       z     vdW  Elec       q    Type
REMARK                         _______ _______ _______ _____ _____    ______ ____
ROOT
ATOM      1  C   UNL     1      48.184   4.604  16.871  0.00  0.00    +0.000 C 
ATOM      2  C   UNL     1      47.213   3.482  17.161  0.00  0.00    +0.000 C 
ATOM      3  C   UNL     1      47.110   4.741  17.956  0.00  0.00    +0.000 C 
ENDROOT
BRANCH   1  12
ATOM      4  C   UNL     1      43.802   4.135  11.077  0.00  0.00    +0.000 C 
ATOM      5  C   UNL     1      44.500   5.482  10.836  0.00  0.00    +0.000 C 
ATOM      6  C   UNL     1      45.962   5.468  11.287  0.00  0.00    +0.000 C 
ATOM      7  N   UNL     1      45.980   5.013  12.664  0.00  0.00    +0.000 N 
ATOM      8  C   UNL     1      46.901   5.548  13.537  0.00  0.00    +0.000 A 
ATOM      9  N   UNL     1      47.559   6.669  13.214  0.00  0.00    +0.000 NA
ATOM     10  C   UNL     1      48.414   7.169  14.123  0.00  0.00    +0.000 A 
ATOM     11  C   UNL     1      48.656   6.585  15.339  0.00  0.00    +0.000 A 
ATOM     12  C   UNL     1      47.960   5.425  15.602  0.00  0.00    +0.000 A 
ATOM     13  N   UNL     1      47.066   4.940  14.714  0.00  0.00    +0.000 NA
ATOM     14  C   UNL     1      45.497   3.660  12.908  0.00  0.00    +0.000 C 
ATOM     15  C   UNL     1      44.021   3.619  12.504  0.00  0.00    +0.000 C 
BRANCH   4  17
ATOM     16  N   UNL     1      44.587   2.349   9.307  0.00  0.00    +0.000 NA
ATOM     17  C   UNL     1      44.250   3.134  10.089  0.00  0.00    +0.000 C 
ENDBRANCH   4  17
ENDBRANCH   1  12
BRANCH   1  18
ATOM     18  N   UNL     1      49.556   4.682  17.415  0.00  0.00    +0.000 N 
ATOM     19  H   UNL     1      50.001   5.575  17.214  0.00  0.00    +0.000 HD
BRANCH  18  20
ATOM     20  C   UNL     1      50.495   3.633  17.429  0.00  0.00    +0.000 A 
ATOM     21  C   UNL     1      50.186   2.296  17.191  0.00  0.00    +0.000 A 
ATOM     22  C   UNL     1      51.163   1.298  17.322  0.00  0.00    +0.000 A 
ATOM     23  C   UNL     1      52.466   1.626  17.717  0.00  0.00    +0.000 A 
ATOM     24  C   UNL     1      52.780   2.957  17.994  0.00  0.00    +0.000 A 
ATOM     25  C   UNL     1      51.800   3.941  17.859  0.00  0.00    +0.000 A 
BRANCH  23  26
ATOM     26  C   UNL     1      53.460   0.536  17.891  0.00  0.00    +0.000 C 
ATOM     27  N   UNL     1      53.030  -0.631  18.461  0.00  0.00    +0.000 N 
ATOM     28  O   UNL     1      54.634   0.679  17.563  0.00  0.00    +0.000 OA
ATOM     29  H   UNL     1      52.137  -0.728  18.921  0.00  0.00    +0.000 HD
ATOM     30  H   UNL     1      53.732  -1.338  18.633  0.00  0.00    +0.000 HD
ENDBRANCH  23  26
ENDBRANCH  18  20
ENDBRANCH   1  18
TORSDOF 5
ENDMDL
MODEL 5
REMARK VINA RESULT:    -6.329      3.642      6.163
REMARK INTER + INTRA:          -8.964
REMARK INTER:                  -8.398
REMARK INTRA:                  -0.566
REMARK UNBOUND:                -0.785
REMARK  Name = 
REMARK  5 active torsions:
REMARK  status: ('A' for Active; 'I' for Inactive)
REMARK    1  A    between atoms: C_2  and  C_3
REMARK    2  A    between atoms: C_11  and  C_12
REMARK    3  A    between atoms: C_12  and  N_13
REMARK    4  A    between atoms: N_13  and  C_14
REMARK    5  A    between atoms: C_17  and  C_18
REMARK                            x       y       z     vdW  Elec       q    Type
REMARK                         _______ _______ _______ _____ _____    ______ ____
ROOT
ATOM      1  C   UNL     1      48.012   8.151  13.134  0.00  0.00    +0.000 C 
ATOM      2  C   UNL     1      48.283   8.775  11.783  0.00  0.00    +0.000 C 
ATOM      3  C   UNL     1      47.808   9.651  12.894  0.00  0.00    +0.000 C 
ENDROOT
BRANCH   1  12
ATOM      4  C   UNL     1      49.152   3.802  18.859  0.00  0.00    +0.000 C 
ATOM      5  C   UNL     1      50.579   4.262  18.524  0.00  0.00    +0.000 C 
ATOM      6  C   UNL     1      50.624   5.714  18.044  0.00  0.00    +0.000 C 
ATOM      7  N   UNL     1      49.676   5.832  16.952  0.00  0.00    +0.000 N 
ATOM      8  C   UNL     1      49.967   6.668  15.896  0.00  0.00    +0.000 A 
ATOM      9  N   UNL     1      51.214   7.123  15.726  0.00  0.00    +0.000 NA
ATOM     10  C   UNL     1      51.449   7.900  14.654  0.00  0.00    +0.000 A 
ATOM     11  C   UNL     1      50.482   8.257  13.750  0.00  0.00    +0.000 A 
ATOM     12  C   UNL     1      49.217   7.770  13.993  0.00  0.00    +0.000 A 
ATOM     13  N   UNL     1      48.982   6.953  15.042  0.00  0.00    +0.000 NA
ATOM     14  C   UNL     1      48.277   5.586  17.277  0.00  0.00    +0.000 C 
ATOM     15  C   UNL     1      48.161   4.131  17.736  0.00  0.00    +0.000 C 
BRANCH   4  17
ATOM     16  N   UNL     1      48.352   4.871  21.131  0.00  0.00    +0.000 NA
ATOM     17  C   UNL     1      48.704   4.393  20.136  0.00  0.00    +0.000 C 
ENDBRANCH   4  17
ENDBRANCH   1  12
BRANCH   1  18
ATOM     18  N   UNL     1      46.759   7.458  13.497  0.00  0.00    +0.000 N 
ATOM     19  H   UNL     1      46.663   7.335  14.504  0.00  0.00    +0.000 HD
BRANCH  18  20
ATOM     20  C   UNL     1      46.179   6.385  12.793  0.00  0.00    +0.000 A 
ATOM     21  C   UNL     1      45.435   6.523  11.623  0.00  0.00    +0.000 A 
ATOM     22  C   UNL     1      44.807   5.415  11.036  0.00  0.00    +0.000 A 
ATOM     23  C   UNL     1      44.897   4.149  11.630  0.00  0.00    +0.000 A 
ATOM     24  C   UNL     1      45.608   4.004  12.822  0.00  0.00    +0.000 A 
ATOM     25  C   UNL     1      46.230   5.114  13.395  0.00  0.00    +0.000 A 
BRANCH  23  26
ATOM     26  C   UNL     1      44.178   3.009  11.006  0.00  0.00    +0.000 C 
ATOM     27  N   UNL     1      44.798   2.354   9.977  0.00  0.00    +0.000 N 
ATOM     28  O   UNL     1      43.056   2.676  11.376  0.00  0.00    +0.000 OA
ATOM     29  H   UNL     1      45.622   2.705   9.512  0.00  0.00    +0.000 HD
ATOM     30  H   UNL     1      44.270   1.623   9.519  0.00  0.00    +0.000 HD
ENDBRANCH  23  26
ENDBRANCH  18  20
ENDBRANCH   1  18
TORSDOF 5
ENDMDL
