MODEL 1
REMARK VINA RESULT:    -8.004      0.000      0.000
REMARK INTER + INTRA:         -11.656
REMARK INTER:                 -10.578
REMARK INTRA:                  -1.078
REMARK UNBOUND:                -1.078
REMARK  Name = 
REMARK  7 active torsions:
REMARK  status: ('A' for Active; 'I' for Inactive)
REMARK    1  A    between atoms: C_1  and  C_2
REMARK    2  A    between atoms: C_2  and  N_3
REMARK    3  A    between atoms: C_2  and  C_19
REMARK    4  A    between atoms: C_7  and  C_8
REMARK    5  A    between atoms: C_8  and  C_9
REMARK    6  A    between atoms: C_9  and  O_10
REMARK    7  A    between atoms: C_9  and  C_11
REMARK                            x       y       z     vdW  Elec       q    Type
REMARK                         _______ _______ _______ _____ _____    ______ ____
ROOT
ATOM      1  N   UNL     1      46.457   7.869  13.608  0.00  0.00    +0.000 N 
ATOM      2  C   UNL     1      46.084   6.838  12.745  0.00  0.00    +0.000 A 
ATOM      3  C   UNL     1      44.909   6.118  13.023  0.00  0.00    +0.000 A 
ATOM      4  N   UNL     1      44.285   5.275  12.158  0.00  0.00    +0.000 NA
ATOM      5  C   UNL     1      44.853   5.186  10.942  0.00  0.00    +0.000 A 
ATOM      6  C   UNL     1      46.081   5.800  10.693  0.00  0.00    +0.000 A 
ATOM      7  N   UNL     1      46.707   6.631  11.573  0.00  0.00    +0.000 NA
ATOM      8  H   UNL     1      46.140   7.659  14.549  0.00  0.00    +0.000 HD
ENDROOT
BRANCH   1  10
ATOM      9  C   UNL     1      48.034   9.526  12.613  0.00  0.00    +0.000 C 
ATOM     10  C   UNL     1      47.809   8.436  13.673  0.00  0.00    +0.000 C 
BRANCH  10  11
ATOM     11  C   UNL     1      48.461   8.844  14.982  0.00  0.00    +0.000 A 
ATOM     12  C   UNL     1      48.723  10.121  15.439  0.00  0.00    +0.000 A 
ATOM     13  S   UNL     1      49.734  10.132  16.829  0.00  0.00    +0.000 S 
ATOM     14  C   UNL     1      49.860   8.428  16.835  0.00  0.00    +0.000 A 
ATOM     15  N   UNL     1      50.713   7.764  17.657  0.00  0.00    +0.000 NA
ATOM     16  C   UNL     1      50.751   6.481  17.458  0.00  0.00    +0.000 A 
ATOM     17  N   UNL     1      49.939   5.795  16.591  0.00  0.00    +0.000 N 
ATOM     18  C   UNL     1      48.968   6.423  15.845  0.00  0.00    +0.000 A 
ATOM     19  O   UNL     1      48.139   5.780  15.209  0.00  0.00    +0.000 OA
ATOM     20  C   UNL     1      49.028   7.870  15.896  0.00  0.00    +0.000 A 
ATOM     21  H   UNL     1      49.958   4.789  16.538  0.00  0.00    +0.000 HD
ENDBRANCH  10  11
ENDBRANCH   1  10
BRANCH   5  22
ATOM     22  C   UNL     1      44.111   4.496   9.827  0.00  0.00    +0.000 C 
BRANCH  22  23
ATOM     23  C   UNL     1      44.438   3.015   9.519  0.00  0.00    +0.000 C 
BRANCH  23  24
ATOM     24  C   UNL     1      45.391   2.616   8.397  0.00  0.00    +0.000 A 
ATOM     25  C   UNL     1      45.731   3.595   7.436  0.00  0.00    +0.000 A 
ATOM     26  C   UNL     1      46.713   3.365   6.471  0.00  0.00    +0.000 A 
ATOM     27  C   UNL     1      47.384   2.148   6.447  0.00  0.00    +0.000 A 
ATOM     28  C   UNL     1      47.029   1.148   7.350  0.00  0.00    +0.000 A 
ATOM     29  C   UNL     1      46.027   1.373   8.303  0.00  0.00    +0.000 A 
ENDBRANCH  23  24
BRANCH  23  30
ATOM     30  O   UNL     1      44.940   2.465  10.757  0.00  0.00    +0.000 OA
ATOM     31  H   UNL     1      45.381   3.182  11.245  0.00  0.00    +0.000 HD
ENDBRANCH  23  30
ENDBRANCH  22  23
ENDBRANCH   5  22
TORSDOF 6
ENDMDL
MODEL 2
REMARK VINA RESULT:    -7.955      2.271      3.711
REMARK INTER + INTRA:         -11.591
REMARK INTER:                 -11.190
REMARK INTRA:                  -0.400
REMARK UNBOUND:                -1.078
REMARK  Name = 
REMARK  7 active torsions:
REMARK  status: ('A' for Active; 'I' for Inactive)
REMARK    1  A    between atoms: C_1  and  C_2
REMARK    2  A    between atoms: C_2  and  N_3
REMARK    3  A    between atoms: C_2  and  C_19
REMARK    4  A    between atoms: C_7  and  C_8
REMARK    5  A    between atoms: C_8  and  C_9
REMARK    6  A    between atoms: C_9  and  O_10
REMARK    7  A    between atoms: C_9  and  C_11
REMARK                            x       y       z     vdW  Elec       q    Type
REMARK                         _______ _______ _______ _____ _____    ______ ____
ROOT
ATOM      1  N   UNL     1      46.954   6.024  14.185  0.00  0.00    +0.000 N 
ATOM      2  C   UNL     1      46.525   5.486  12.970  0.00  0.00    +0.000 A 
ATOM      3  C   UNL     1      45.889   4.232  12.976  0.00  0.00    +0.000 A 
ATOM      4  N   UNL     1      45.196   3.702  11.934  0.00  0.00    +0.000 NA
ATOM      5  C   UNL     1      45.109   4.492  10.848  0.00  0.00    +0.000 A 
ATOM      6  C   UNL     1      45.833   5.683  10.787  0.00  0.00    +0.000 A 
ATOM      7  N   UNL     1      46.538   6.200  11.833  0.00  0.00    +0.000 NA
ATOM      8  H   UNL     1      47.203   5.274  14.822  0.00  0.00    +0.000 HD
ENDROOT
BRANCH   1  10
ATOM      9  C   UNL     1      49.020   6.790  15.353  0.00  0.00    +0.000 C 
ATOM     10  C   UNL     1      47.945   7.100  14.300  0.00  0.00    +0.000 C 
BRANCH  10  11
ATOM     11  C   UNL     1      48.581   7.756  13.087  0.00  0.00    +0.000 A 
ATOM     12  C   UNL     1      49.810   7.480  12.518  0.00  0.00    +0.000 A 
ATOM     13  S   UNL     1      50.274   8.647  11.346  0.00  0.00    +0.000 S 
ATOM     14  C   UNL     1      48.850   9.558  11.589  0.00  0.00    +0.000 A 
ATOM     15  N   UNL     1      48.663  10.782  11.031  0.00  0.00    +0.000 NA
ATOM     16  C   UNL     1      47.569  11.374  11.403  0.00  0.00    +0.000 A 
ATOM     17  N   UNL     1      46.599  10.811  12.192  0.00  0.00    +0.000 N 
ATOM     18  C   UNL     1      46.693   9.521  12.660  0.00  0.00    +0.000 A 
ATOM     19  O   UNL     1      45.746   8.974  13.216  0.00  0.00    +0.000 OA
ATOM     20  C   UNL     1      47.983   8.902  12.429  0.00  0.00    +0.000 A 
ATOM     21  H   UNL     1      45.733  11.290  12.382  0.00  0.00    +0.000 HD
ENDBRANCH  10  11
ENDBRANCH   1  10
BRANCH   5  22
ATOM     22  C   UNL     1      44.154   4.127   9.741  0.00  0.00    +0.000 C 
BRANCH  22  23
ATOM     23  C   UNL     1      44.411   2.832   8.934  0.00  0.00    +0.000 C 
BRANCH  23  24
ATOM     24  C   UNL     1      45.633   2.671   8.036  0.00  0.00    +0.000 A 
ATOM     25  C   UNL     1      46.336   1.446   8.086  0.00  0.00    +0.000 A 
ATOM     26  C   UNL     1      47.366   1.155   7.189  0.00  0.00    +0.000 A 
ATOM     27  C   UNL     1      47.716   2.084   6.216  0.00  0.00    +0.000 A 
ATOM     28  C   UNL     1      47.074   3.320   6.182  0.00  0.00    +0.000 A 
ATOM     29  C   UNL     1      46.056   3.619   7.097  0.00  0.00    +0.000 A 
ENDBRANCH  23  24
BRANCH  23  30
ATOM     30  O   UNL     1      44.420   1.764   9.908  0.00  0.00    +0.000 OA
ATOM     31  H   UNL     1      43.497   1.510  10.078  0.00  0.00    +0.000 HD
ENDBRANCH  23  30
ENDBRANCH  22  23
ENDBRANCH   5  22
TORSDOF 6
ENDMDL
MODEL 3
REMARK VINA RESULT:    -7.881      1.672      2.202
REMARK INTER + INTRA:         -11.494
REMARK INTER:                 -10.611
REMARK INTRA:                  -0.882
REMARK UNBOUND:                -1.078
REMARK  Name = 
REMARK  7 active torsions:
REMARK  status: ('A' for Active; 'I' for Inactive)
REMARK    1  A    between atoms: C_1  and  C_2
REMARK    2  A    between atoms: C_2  and  N_3
REMARK    3  A    between atoms: C_2  and  C_19
REMARK    4  A    between atoms: C_7  and  C_8
REMARK    5  A    between atoms: C_8  and  C_9
REMARK    6  A    between atoms: C_9  and  O_10
REMARK    7  A    between atoms: C_9  and  C_11
REMARK                            x       y       z     vdW  Elec       q    Type
REMARK                         _______ _______ _______ _____ _____    ______ ____
ROOT
ATOM      1  N   UNL     1      47.679   6.186  14.748  0.00  0.00    +0.000 N 
ATOM      2  C   UNL     1      47.043   5.799  13.568  0.00  0.00    +0.000 A 
ATOM      3  C   UNL     1      46.455   4.523  13.507  0.00  0.00    +0.000 A 
ATOM      4  N   UNL     1      45.593   4.105  12.543  0.00  0.00    +0.000 NA
ATOM      5  C   UNL     1      45.279   5.031  11.619  0.00  0.00    +0.000 A 
ATOM      6  C   UNL     1      45.945   6.257  11.600  0.00  0.00    +0.000 A 
ATOM      7  N   UNL     1      46.821   6.662  12.563  0.00  0.00    +0.000 NA
ATOM      8  H   UNL     1      48.065   5.371  15.212  0.00  0.00    +0.000 HD
ENDROOT
BRANCH   1  10
ATOM      9  C   UNL     1      47.991   8.597  15.307  0.00  0.00    +0.000 C 
ATOM     10  C   UNL     1      48.644   7.289  14.835  0.00  0.00    +0.000 C 
BRANCH  10  11
ATOM     11  C   UNL     1      50.009   7.129  15.480  0.00  0.00    +0.000 A 
ATOM     12  C   UNL     1      51.216   7.649  15.053  0.00  0.00    +0.000 A 
ATOM     13  S   UNL     1      52.558   6.988  15.899  0.00  0.00    +0.000 S 
ATOM     14  C   UNL     1      51.553   5.975  16.839  0.00  0.00    +0.000 A 
ATOM     15  N   UNL     1      52.051   5.013  17.659  0.00  0.00    +0.000 NA
ATOM     16  C   UNL     1      51.144   4.272  18.219  0.00  0.00    +0.000 A 
ATOM     17  N   UNL     1      49.791   4.474  18.120  0.00  0.00    +0.000 N 
ATOM     18  C   UNL     1      49.257   5.525  17.410  0.00  0.00    +0.000 A 
ATOM     19  O   UNL     1      48.062   5.794  17.471  0.00  0.00    +0.000 OA
ATOM     20  C   UNL     1      50.227   6.253  16.615  0.00  0.00    +0.000 A 
ATOM     21  H   UNL     1      49.136   3.915  18.643  0.00  0.00    +0.000 HD
ENDBRANCH  10  11
ENDBRANCH   1  10
BRANCH   5  22
ATOM     22  C   UNL     1      44.143   4.771  10.665  0.00  0.00    +0.000 C 
BRANCH  22  23
ATOM     23  C   UNL     1      44.141   3.455   9.850  0.00  0.00    +0.000 C 
BRANCH  23  24
ATOM     24  C   UNL     1      45.249   3.120   8.858  0.00  0.00    +0.000 A 
ATOM     25  C   UNL     1      45.654   1.770   8.746  0.00  0.00    +0.000 A 
ATOM     26  C   UNL     1      46.545   1.353   7.755  0.00  0.00    +0.000 A 
ATOM     27  C   UNL     1      47.051   2.277   6.849  0.00  0.00    +0.000 A 
ATOM     28  C   UNL     1      46.709   3.622   6.973  0.00  0.00    +0.000 A 
ATOM     29  C   UNL     1      45.832   4.043   7.981  0.00  0.00    +0.000 A 
ENDBRANCH  23  24
BRANCH  23  30
ATOM     30  O   UNL     1      44.075   2.394  10.830  0.00  0.00    +0.000 OA
ATOM     31  H   UNL     1      44.789   1.764  10.635  0.00  0.00    +0.000 HD
ENDBRANCH  23  30
ENDBRANCH  22  23
ENDBRANCH   5  22
TORSDOF 6
ENDMDL
MODEL 4
REMARK VINA RESULT:    -7.875      2.090      2.511
REMARK INTER + INTRA:         -11.485
REMARK INTER:                 -10.518
REMARK INTRA:                  -0.968
REMARK UNBOUND:                -1.078
REMARK  Name = 
REMARK  7 active torsions:
REMARK  status: ('A' for Active; 'I' for Inactive)
REMARK    1  A    between atoms: C_1  and  C_2
REMARK    2  A    between atoms: C_2  and  N_3
REMARK    3  A    between atoms: C_2  and  C_19
REMARK    4  A    between atoms: C_7  and  C_8
REMARK    5  A    between atoms: C_8  and  C_9
REMARK    6  A    between atoms: C_9  and  O_10
REMARK    7  A    between atoms: C_9  and  C_11
REMARK                            x       y       z     vdW  Elec       q    Type
REMARK                         _______ _______ _______ _____ _____    ______ ____
ROOT
ATOM      1  N   UNL     1      47.014   6.484  14.042  0.00  0.00    +0.000 N 
ATOM      2  C   UNL     1      46.564   5.848  12.884  0.00  0.00    +0.000 A 
ATOM      3  C   UNL     1      45.822   4.661  13.012  0.00  0.00    +0.000 A 
ATOM      4  N   UNL     1      45.107   4.075  12.015  0.00  0.00    +0.000 NA
ATOM      5  C   UNL     1      45.111   4.740  10.846  0.00  0.00    +0.000 A 
ATOM      6  C   UNL     1      45.937   5.851  10.672  0.00  0.00    +0.000 A 
ATOM      7  N   UNL     1      46.662   6.423  11.674  0.00  0.00    +0.000 NA
ATOM      8  H   UNL     1      47.184   5.794  14.767  0.00  0.00    +0.000 HD
ENDROOT
BRANCH   1  10
ATOM      9  C   UNL     1      47.567   8.900  14.317  0.00  0.00    +0.000 C 
ATOM     10  C   UNL     1      48.092   7.479  14.065  0.00  0.00    +0.000 C 
BRANCH  10  11
ATOM     11  C   UNL     1      49.386   7.261  14.829  0.00  0.00    +0.000 A 
ATOM     12  C   UNL     1      49.551   6.699  16.080  0.00  0.00    +0.000 A 
ATOM     13  S   UNL     1      51.140   6.911  16.698  0.00  0.00    +0.000 S 
ATOM     14  C   UNL     1      51.637   7.779  15.313  0.00  0.00    +0.000 A 
ATOM     15  N   UNL     1      52.838   8.409  15.239  0.00  0.00    +0.000 NA
ATOM     16  C   UNL     1      53.008   9.103  14.155  0.00  0.00    +0.000 A 
ATOM     17  N   UNL     1      52.136   9.134  13.097  0.00  0.00    +0.000 N 
ATOM     18  C   UNL     1      50.974   8.397  13.082  0.00  0.00    +0.000 A 
ATOM     19  O   UNL     1      50.294   8.300  12.065  0.00  0.00    +0.000 OA
ATOM     20  C   UNL     1      50.659   7.768  14.349  0.00  0.00    +0.000 A 
ATOM     21  H   UNL     1      52.359   9.628  12.247  0.00  0.00    +0.000 HD
ENDBRANCH  10  11
ENDBRANCH   1  10
BRANCH   5  22
ATOM     22  C   UNL     1      44.151   4.332   9.758  0.00  0.00    +0.000 C 
BRANCH  22  23
ATOM     23  C   UNL     1      44.367   2.976   9.044  0.00  0.00    +0.000 C 
BRANCH  23  24
ATOM     24  C   UNL     1      45.584   2.715   8.162  0.00  0.00    +0.000 A 
ATOM     25  C   UNL     1      46.190   1.440   8.228  0.00  0.00    +0.000 A 
ATOM     26  C   UNL     1      47.204   1.065   7.345  0.00  0.00    +0.000 A 
ATOM     27  C   UNL     1      47.635   1.957   6.370  0.00  0.00    +0.000 A 
ATOM     28  C   UNL     1      47.090   3.238   6.320  0.00  0.00    +0.000 A 
ATOM     29  C   UNL     1      46.088   3.621   7.222  0.00  0.00    +0.000 A 
ENDBRANCH  23  24
BRANCH  23  30
ATOM     30  O   UNL     1      44.345   1.979  10.091  0.00  0.00    +0.000 OA
ATOM     31  H   UNL     1      44.195   1.114   9.674  0.00  0.00    +0.000 HD
ENDBRANCH  23  30
ENDBRANCH  22  23
ENDBRANCH   5  22
TORSDOF 6
ENDMDL
MODEL 5
REMARK VINA RESULT:    -7.862      1.996      2.371
REMARK INTER + INTRA:         -11.468
REMARK INTER:                 -10.692
REMARK INTRA:                  -0.775
REMARK UNBOUND:                -1.078
REMARK  Name = 
REMARK  7 active torsions:
REMARK  status: ('A' for Active; 'I' for Inactive)
REMARK    1  A    between atoms: C_1  and  C_2
REMARK    2  A    between atoms: C_2  and  N_3
REMARK    3  A    between atoms: C_2  and  C_19
REMARK    4  A    between atoms: C_7  and  C_8
REMARK    5  A    between atoms: C_8  and  C_9
REMARK    6  A    between atoms: C_9  and  O_10
REMARK    7  A    between atoms: C_9  and  C_11
REMARK                            x       y       z     vdW  Elec       q    Type
REMARK                         _______ _______ _______ _____ _____    ______ ____
ROOT
ATOM      1  N   UNL     1      48.495   7.229  14.066  0.00  0.00    +0.000 N 
ATOM      2  C   UNL     1      47.447   6.440  13.590  0.00  0.00    +0.000 A 
ATOM      3  C   UNL     1      46.529   7.010  12.690  0.00  0.00    +0.000 A 
ATOM      4  N   UNL     1      45.625   6.316  11.951  0.00  0.00    +0.000 NA
ATOM      5  C   UNL     1      45.675   4.979  12.099  0.00  0.00    +0.000 A 
ATOM      6  C   UNL     1      46.496   4.412  13.074  0.00  0.00    +0.000 A 
ATOM      7  N   UNL     1      47.390   5.119  13.822  0.00  0.00    +0.000 NA
ATOM      8  H   UNL     1      48.202   8.200  14.107  0.00  0.00    +0.000 HD
ENDROOT
BRANCH   1  10
ATOM      9  C   UNL     1      50.732   7.401  15.156  0.00  0.00    +0.000 C 
ATOM     10  C   UNL     1      49.279   6.914  15.265  0.00  0.00    +0.000 C 
BRANCH  10  11
ATOM     11  C   UNL     1      48.755   7.158  16.669  0.00  0.00    +0.000 A 
ATOM     12  C   UNL     1      48.359   8.357  17.232  0.00  0.00    +0.000 A 
ATOM     13  S   UNL     1      48.114   8.243  18.929  0.00  0.00    +0.000 S 
ATOM     14  C   UNL     1      48.555   6.592  18.951  0.00  0.00    +0.000 A 
ATOM     15  N   UNL     1      48.729   5.900  20.106  0.00  0.00    +0.000 NA
ATOM     16  C   UNL     1      49.160   4.686  19.938  0.00  0.00    +0.000 A 
ATOM     17  N   UNL     1      49.327   4.072  18.723  0.00  0.00    +0.000 N 
ATOM     18  C   UNL     1      49.027   4.701  17.536  0.00  0.00    +0.000 A 
ATOM     19  O   UNL     1      49.016   4.087  16.474  0.00  0.00    +0.000 OA
ATOM     20  C   UNL     1      48.731   6.113  17.676  0.00  0.00    +0.000 A 
ATOM     21  H   UNL     1      49.589   3.101  18.656  0.00  0.00    +0.000 HD
ENDBRANCH  10  11
ENDBRANCH   1  10
BRANCH   5  22
ATOM     22  C   UNL     1      44.910   4.099  11.145  0.00  0.00    +0.000 C 
BRANCH  22  23
ATOM     23  C   UNL     1      45.002   4.388   9.628  0.00  0.00    +0.000 C 
BRANCH  23  24
ATOM     24  C   UNL     1      45.605   3.385   8.651  0.00  0.00    +0.000 A 
ATOM     25  C   UNL     1      46.337   3.887   7.551  0.00  0.00    +0.000 A 
ATOM     26  C   UNL     1      47.053   3.042   6.700  0.00  0.00    +0.000 A 
ATOM     27  C   UNL     1      47.056   1.671   6.932  0.00  0.00    +0.000 A 
ATOM     28  C   UNL     1      46.299   1.148   7.978  0.00  0.00    +0.000 A 
ATOM     29  C   UNL     1      45.563   1.995   8.817  0.00  0.00    +0.000 A 
ENDBRANCH  23  24
BRANCH  23  30
ATOM     30  O   UNL     1      43.649   4.674   9.206  0.00  0.00    +0.000 OA
ATOM     31  H   UNL     1      43.208   5.154   9.929  0.00  0.00    +0.000 HD
ENDBRANCH  23  30
ENDBRANCH  22  23
ENDBRANCH   5  22
TORSDOF 6
ENDMDL
MODEL 6
REMARK VINA RESULT:    -7.240      3.188      4.609
REMARK INTER + INTRA:         -10.646
REMARK INTER:                 -10.155
REMARK INTRA:                  -0.491
REMARK UNBOUND:                -1.078
REMARK  Name = 
REMARK  7 active torsions:
REMARK  status: ('A' for Active; 'I' for Inactive)
REMARK    1  A    between atoms: C_1  and  C_2
REMARK    2  A    between atoms: C_2  and  N_3
REMARK    3  A    between atoms: C_2  and  C_19
REMARK    4  A    between atoms: C_7  and  C_8
REMARK    5  A    between atoms: C_8  and  C_9
REMARK    6  A    between atoms: C_9  and  O_10
REMARK    7  A    between atoms: C_9  and  C_11
REMARK                            x       y       z     vdW  Elec       q    Type
REMARK                         _______ _______ _______ _____ _____    ______ ____
ROOT
ATOM      1  N   UNL     1      48.804   4.896  16.769  0.00  0.00    +0.000 N 
ATOM      2  C   UNL     1      48.081   4.981  15.578  0.00  0.00    +0.000 A 
ATOM      3  C   UNL     1      46.906   4.219  15.448  0.00  0.00    +0.000 A 
ATOM      4  N   UNL     1      45.971   4.385  14.476  0.00  0.00    +0.000 NA
ATOM      5  C   UNL     1      46.214   5.392  13.618  0.00  0.00    +0.000 A 
ATOM      6  C   UNL     1      47.430   6.075  13.664  0.00  0.00    +0.000 A 
ATOM      7  N   UNL     1      48.369   5.892  14.634  0.00  0.00    +0.000 NA
ATOM      8  H   UNL     1      48.689   3.973  17.174  0.00  0.00    +0.000 HD
ENDROOT
BRANCH   1  10
ATOM      9  C   UNL     1      50.359   6.837  16.945  0.00  0.00    +0.000 C 
ATOM     10  C   UNL     1      50.205   5.309  16.908  0.00  0.00    +0.000 C 
BRANCH  10  11
ATOM     11  C   UNL     1      51.149   4.669  17.909  0.00  0.00    +0.000 A 
ATOM     12  C   UNL     1      51.945   5.296  18.849  0.00  0.00    +0.000 A 
ATOM     13  S   UNL     1      53.077   4.228  19.577  0.00  0.00    +0.000 S 
ATOM     14  C   UNL     1      52.541   2.907  18.635  0.00  0.00    +0.000 A 
ATOM     15  N   UNL     1      53.186   1.712  18.621  0.00  0.00    +0.000 NA
ATOM     16  C   UNL     1      52.701   0.857  17.774  0.00  0.00    +0.000 A 
ATOM     17  N   UNL     1      51.569   1.048  17.023  0.00  0.00    +0.000 N 
ATOM     18  C   UNL     1      50.813   2.194  17.117  0.00  0.00    +0.000 A 
ATOM     19  O   UNL     1      49.717   2.281  16.573  0.00  0.00    +0.000 OA
ATOM     20  C   UNL     1      51.430   3.245  17.902  0.00  0.00    +0.000 A 
ATOM     21  H   UNL     1      51.194   0.316  16.441  0.00  0.00    +0.000 HD
ENDBRANCH  10  11
ENDBRANCH   1  10
BRANCH   5  22
ATOM     22  C   UNL     1      45.131   5.836  12.670  0.00  0.00    +0.000 C 
BRANCH  22  23
ATOM     23  C   UNL     1      45.454   5.925  11.159  0.00  0.00    +0.000 C 
BRANCH  23  24
ATOM     24  C   UNL     1      45.204   4.758  10.210  0.00  0.00    +0.000 A 
ATOM     25  C   UNL     1      45.717   4.849   8.896  0.00  0.00    +0.000 A 
ATOM     26  C   UNL     1      45.672   3.766   8.016  0.00  0.00    +0.000 A 
ATOM     27  C   UNL     1      45.114   2.563   8.431  0.00  0.00    +0.000 A 
ATOM     28  C   UNL     1      44.554   2.465   9.703  0.00  0.00    +0.000 A 
ATOM     29  C   UNL     1      44.580   3.560  10.577  0.00  0.00    +0.000 A 
ENDBRANCH  23  24
BRANCH  23  30
ATOM     30  O   UNL     1      44.717   7.070  10.673  0.00  0.00    +0.000 OA
ATOM     31  H   UNL     1      44.105   7.349  11.376  0.00  0.00    +0.000 HD
ENDBRANCH  23  30
ENDBRANCH  22  23
ENDBRANCH   5  22
TORSDOF 6
ENDMDL
MODEL 7
REMARK VINA RESULT:    -7.132      2.126      2.722
REMARK INTER + INTRA:         -10.503
REMARK INTER:                  -9.603
REMARK INTRA:                  -0.900
REMARK UNBOUND:                -1.078
REMARK  Name = 
REMARK  7 active torsions:
REMARK  status: ('A' for Active; 'I' for Inactive)
REMARK    1  A    between atoms: C_1  and  C_2
REMARK    2  A    between atoms: C_2  and  N_3
REMARK    3  A    between atoms: C_2  and  C_19
REMARK    4  A    between atoms: C_7  and  C_8
REMARK    5  A    between atoms: C_8  and  C_9
REMARK    6  A    between atoms: C_9  and  O_10
REMARK    7  A    between atoms: C_9  and  C_11
REMARK                            x       y       z     vdW  Elec       q    Type
REMARK                         _______ _______ _______ _____ _____    ______ ____
ROOT
ATOM      1  N   UNL     1      48.784   7.611  13.256  0.00  0.00    +0.000 N 
ATOM      2  C   UNL     1      47.740   6.695  13.389  0.00  0.00    +0.000 A 
ATOM      3  C   UNL     1      46.450   7.080  12.984  0.00  0.00    +0.000 A 
ATOM      4  N   UNL     1      45.400   6.234  12.811  0.00  0.00    +0.000 NA
ATOM      5  C   UNL     1      45.676   4.934  13.019  0.00  0.00    +0.000 A 
ATOM      6  C   UNL     1      46.915   4.553  13.536  0.00  0.00    +0.000 A 
ATOM      7  N   UNL     1      47.958   5.412  13.721  0.00  0.00    +0.000 NA
ATOM      8  H   UNL     1      48.426   8.555  13.356  0.00  0.00    +0.000 HD
ENDROOT
BRANCH   1  10
ATOM      9  C   UNL     1      51.092   8.530  13.468  0.00  0.00    +0.000 C 
ATOM     10  C   UNL     1      50.062   7.506  13.968  0.00  0.00    +0.000 C 
BRANCH  10  11
ATOM     11  C   UNL     1      50.147   7.381  15.479  0.00  0.00    +0.000 A 
ATOM     12  C   UNL     1      50.837   6.438  16.216  0.00  0.00    +0.000 A 
ATOM     13  S   UNL     1      50.430   6.475  17.885  0.00  0.00    +0.000 S 
ATOM     14  C   UNL     1      49.305   7.739  17.653  0.00  0.00    +0.000 A 
ATOM     15  N   UNL     1      48.465   8.157  18.636  0.00  0.00    +0.000 NA
ATOM     16  C   UNL     1      47.610   9.057  18.256  0.00  0.00    +0.000 A 
ATOM     17  N   UNL     1      47.589   9.651  17.020  0.00  0.00    +0.000 N 
ATOM     18  C   UNL     1      48.515   9.350  16.047  0.00  0.00    +0.000 A 
ATOM     19  O   UNL     1      48.591  10.008  15.015  0.00  0.00    +0.000 OA
ATOM     20  C   UNL     1      49.359   8.215  16.366  0.00  0.00    +0.000 A 
ATOM     21  H   UNL     1      46.952  10.402  16.808  0.00  0.00    +0.000 HD
ENDBRANCH  10  11
ENDBRANCH   1  10
BRANCH   5  22
ATOM     22  C   UNL     1      44.673   3.888  12.606  0.00  0.00    +0.000 C 
BRANCH  22  23
ATOM     23  C   UNL     1      43.979   4.024  11.230  0.00  0.00    +0.000 C 
BRANCH  23  24
ATOM     24  C   UNL     1      44.645   3.553   9.941  0.00  0.00    +0.000 A 
ATOM     25  C   UNL     1      45.255   4.524   9.116  0.00  0.00    +0.000 A 
ATOM     26  C   UNL     1      46.020   4.165   8.005  0.00  0.00    +0.000 A 
ATOM     27  C   UNL     1      46.196   2.821   7.693  0.00  0.00    +0.000 A 
ATOM     28  C   UNL     1      45.560   1.848   8.461  0.00  0.00    +0.000 A 
ATOM     29  C   UNL     1      44.774   2.211   9.563  0.00  0.00    +0.000 A 
ENDBRANCH  23  24
BRANCH  23  30
ATOM     30  O   UNL     1      42.715   3.337  11.365  0.00  0.00    +0.000 OA
ATOM     31  H   UNL     1      42.366   3.528  12.253  0.00  0.00    +0.000 HD
ENDBRANCH  23  30
ENDBRANCH  22  23
ENDBRANCH   5  22
TORSDOF 6
ENDMDL
MODEL 8
REMARK VINA RESULT:    -6.792      2.182      2.491
REMARK INTER + INTRA:         -10.055
REMARK INTER:                  -9.217
REMARK INTRA:                  -0.838
REMARK UNBOUND:                -1.078
REMARK  Name = 
REMARK  7 active torsions:
REMARK  status: ('A' for Active; 'I' for Inactive)
REMARK    1  A    between atoms: C_1  and  C_2
REMARK    2  A    between atoms: C_2  and  N_3
REMARK    3  A    between atoms: C_2  and  C_19
REMARK    4  A    between atoms: C_7  and  C_8
REMARK    5  A    between atoms: C_8  and  C_9
REMARK    6  A    between atoms: C_9  and  O_10
REMARK    7  A    between atoms: C_9  and  C_11
REMARK                            x       y       z     vdW  Elec       q    Type
REMARK                         _______ _______ _______ _____ _____    ______ ____
ROOT
ATOM      1  N   UNL     1      46.306   8.556  12.311  0.00  0.00    +0.000 N 
ATOM      2  C   UNL     1      45.955   7.240  12.616  0.00  0.00    +0.000 A 
ATOM      3  C   UNL     1      44.609   6.952  12.904  0.00  0.00    +0.000 A 
ATOM      4  N   UNL     1      44.073   5.704  12.965  0.00  0.00    +0.000 NA
ATOM      5  C   UNL     1      44.928   4.704  12.684  0.00  0.00    +0.000 A 
ATOM      6  C   UNL     1      46.287   4.968  12.515  0.00  0.00    +0.000 A 
ATOM      7  N   UNL     1      46.819   6.222  12.471  0.00  0.00    +0.000 NA
ATOM      8  H   UNL     1      45.689   9.198  12.799  0.00  0.00    +0.000 HD
ENDROOT
BRANCH   1  10
ATOM      9  C   UNL     1      47.774  10.526  11.879  0.00  0.00    +0.000 C 
ATOM     10  C   UNL     1      47.678   9.073  12.369  0.00  0.00    +0.000 C 
BRANCH  10  11
ATOM     11  C   UNL     1      48.574   8.874  13.579  0.00  0.00    +0.000 A 
ATOM     12  C   UNL     1      48.282   9.134  14.904  0.00  0.00    +0.000 A 
ATOM     13  S   UNL     1      49.668   9.049  15.916  0.00  0.00    +0.000 S 
ATOM     14  C   UNL     1      50.693   8.684  14.599  0.00  0.00    +0.000 A 
ATOM     15  N   UNL     1      52.045   8.645  14.717  0.00  0.00    +0.000 NA
ATOM     16  C   UNL     1      52.670   8.452  13.595  0.00  0.00    +0.000 A 
ATOM     17  N   UNL     1      52.065   8.187  12.392  0.00  0.00    +0.000 N 
ATOM     18  C   UNL     1      50.699   8.082  12.267  0.00  0.00    +0.000 A 
ATOM     19  O   UNL     1      50.183   7.677  11.231  0.00  0.00    +0.000 OA
ATOM     20  C   UNL     1      49.965   8.483  13.451  0.00  0.00    +0.000 A 
ATOM     21  H   UNL     1      52.604   7.966  11.570  0.00  0.00    +0.000 HD
ENDBRANCH  10  11
ENDBRANCH   1  10
BRANCH   5  22
ATOM     22  C   UNL     1      44.393   3.313  12.463  0.00  0.00    +0.000 C 
BRANCH  22  23
ATOM     23  C   UNL     1      43.715   2.981  11.111  0.00  0.00    +0.000 C 
BRANCH  23  24
ATOM     24  C   UNL     1      44.498   2.955   9.803  0.00  0.00    +0.000 A 
ATOM     25  C   UNL     1      44.766   4.188   9.165  0.00  0.00    +0.000 A 
ATOM     26  C   UNL     1      45.606   4.270   8.054  0.00  0.00    +0.000 A 
ATOM     27  C   UNL     1      46.204   3.119   7.554  0.00  0.00    +0.000 A 
ATOM     28  C   UNL     1      45.913   1.885   8.132  0.00  0.00    +0.000 A 
ATOM     29  C   UNL     1      45.051   1.802   9.234  0.00  0.00    +0.000 A 
ENDBRANCH  23  24
BRANCH  23  30
ATOM     30  O   UNL     1      43.097   1.688  11.296  0.00  0.00    +0.000 OA
ATOM     31  H   UNL     1      42.792   1.633  12.218  0.00  0.00    +0.000 HD
ENDBRANCH  23  30
ENDBRANCH  22  23
ENDBRANCH   5  22
TORSDOF 6
ENDMDL
MODEL 9
REMARK VINA RESULT:    -6.577      2.023      2.715
REMARK INTER + INTRA:          -9.769
REMARK INTER:                  -9.727
REMARK INTRA:                  -0.042
REMARK UNBOUND:                -1.078
REMARK  Name = 
REMARK  7 active torsions:
REMARK  status: ('A' for Active; 'I' for Inactive)
REMARK    1  A    between atoms: C_1  and  C_2
REMARK    2  A    between atoms: C_2  and  N_3
REMARK    3  A    between atoms: C_2  and  C_19
REMARK    4  A    between atoms: C_7  and  C_8
REMARK    5  A    between atoms: C_8  and  C_9
REMARK    6  A    between atoms: C_9  and  O_10
REMARK    7  A    between atoms: C_9  and  C_11
REMARK                            x       y       z     vdW  Elec       q    Type
REMARK                         _______ _______ _______ _____ _____    ______ ____
ROOT
ATOM      1  N   UNL     1      48.724   6.724  13.590  0.00  0.00    +0.000 N 
ATOM      2  C   UNL     1      47.468   6.489  13.026  0.00  0.00    +0.000 A 
ATOM      3  C   UNL     1      47.305   6.679  11.643  0.00  0.00    +0.000 A 
ATOM      4  N   UNL     1      46.238   6.254  10.916  0.00  0.00    +0.000 NA
ATOM      5  C   UNL     1      45.312   5.569  11.612  0.00  0.00    +0.000 A 
ATOM      6  C   UNL     1      45.404   5.477  13.001  0.00  0.00    +0.000 A 
ATOM      7  N   UNL     1      46.471   5.921  13.724  0.00  0.00    +0.000 NA
ATOM      8  H   UNL     1      49.205   7.447  13.065  0.00  0.00    +0.000 HD
ENDROOT
BRANCH   1  10
ATOM      9  C   UNL     1      48.210   8.179  15.549  0.00  0.00    +0.000 C 
ATOM     10  C   UNL     1      48.951   6.940  15.023  0.00  0.00    +0.000 C 
BRANCH  10  11
ATOM     11  C   UNL     1      48.868   5.817  16.041  0.00  0.00    +0.000 A 
ATOM     12  C   UNL     1      47.779   5.021  16.343  0.00  0.00    +0.000 A 
ATOM     13  S   UNL     1      48.022   4.073  17.755  0.00  0.00    +0.000 S 
ATOM     14  C   UNL     1      49.582   4.723  18.006  0.00  0.00    +0.000 A 
ATOM     15  N   UNL     1      50.301   4.479  19.132  0.00  0.00    +0.000 NA
ATOM     16  C   UNL     1      51.421   5.133  19.199  0.00  0.00    +0.000 A 
ATOM     17  N   UNL     1      51.934   5.919  18.199  0.00  0.00    +0.000 N 
ATOM     18  C   UNL     1      51.296   6.076  16.990  0.00  0.00    +0.000 A 
ATOM     19  O   UNL     1      51.846   6.637  16.048  0.00  0.00    +0.000 OA
ATOM     20  C   UNL     1      49.957   5.522  16.953  0.00  0.00    +0.000 A 
ATOM     21  H   UNL     1      52.847   6.338  18.277  0.00  0.00    +0.000 HD
ENDBRANCH  10  11
ENDBRANCH   1  10
BRANCH   5  22
ATOM     22  C   UNL     1      44.228   4.828  10.873  0.00  0.00    +0.000 C 
BRANCH  22  23
ATOM     23  C   UNL     1      44.482   3.359  10.457  0.00  0.00    +0.000 C 
BRANCH  23  24
ATOM     24  C   UNL     1      45.240   3.001   9.183  0.00  0.00    +0.000 A 
ATOM     25  C   UNL     1      45.651   4.056   8.337  0.00  0.00    +0.000 A 
ATOM     26  C   UNL     1      46.482   3.831   7.238  0.00  0.00    +0.000 A 
ATOM     27  C   UNL     1      46.926   2.544   6.960  0.00  0.00    +0.000 A 
ATOM     28  C   UNL     1      46.490   1.480   7.748  0.00  0.00    +0.000 A 
ATOM     29  C   UNL     1      45.638   1.704   8.838  0.00  0.00    +0.000 A 
ENDBRANCH  23  24
BRANCH  23  30
ATOM     30  O   UNL     1      45.166   2.753  11.577  0.00  0.00    +0.000 OA
ATOM     31  H   UNL     1      45.151   1.789  11.448  0.00  0.00    +0.000 HD
ENDBRANCH  23  30
ENDBRANCH  22  23
ENDBRANCH   5  22
TORSDOF 6
ENDMDL
