MODEL 1
REMARK VINA RESULT:    -7.631      0.000      0.000
REMARK INTER + INTRA:         -12.653
REMARK INTER:                 -11.199
REMARK INTRA:                  -1.454
REMARK UNBOUND:                -1.454
REMARK  Name = 
REMARK  9 active torsions:
REMARK  status: ('A' for Active; 'I' for Inactive)
REMARK    1  A    between atoms: C_1  and  O_2
REMARK    2  A    between atoms: O_2  and  C_3
REMARK    3  A    between atoms: C_10  and  C_11
REMARK    4  A    between atoms: N_13  and  C_14
REMARK    5  A    between atoms: C_14  and  C_15
REMARK    6  A    between atoms: C_18  and  N_19
REMARK    7  A    between atoms: N_19  and  C_20
REMARK    8  A    between atoms: C_20  and  C_21
REMARK    9  A    between atoms: C_21  and  O_22
REMARK                            x       y       z     vdW  Elec       q    Type
REMARK                         _______ _______ _______ _____ _____    ______ ____
ROOT
ATOM      1  C   UNL     1      46.512   7.944  12.979  0.00  0.00    +0.000 C 
ENDROOT
BRANCH   1   2
ATOM      2  C   UNL     1      45.826   6.968  12.056  0.00  0.00    +0.000 A 
ATOM      3  C   UNL     1      46.497   6.491  10.927  0.00  0.00    +0.000 A 
ATOM      4  C   UNL     1      45.903   5.546  10.088  0.00  0.00    +0.000 A 
ATOM      5  C   UNL     1      44.638   5.020  10.371  0.00  0.00    +0.000 A 
ATOM      6  C   UNL     1      43.927   5.580  11.439  0.00  0.00    +0.000 A 
ATOM      7  C   UNL     1      44.515   6.535  12.281  0.00  0.00    +0.000 A 
BRANCH   5   8
ATOM      8  N   UNL     1      43.973   4.094   9.531  0.00  0.00    +0.000 N 
ATOM      9  H   UNL     1      44.153   4.428   8.574  0.00  0.00    +0.000 HD
BRANCH   8  10
ATOM     10  C   UNL     1      44.352   2.687   9.679  0.00  0.00    +0.000 C 
BRANCH  10  11
ATOM     11  C   UNL     1      44.786   2.111   8.326  0.00  0.00    +0.000 C 
BRANCH  11  12
ATOM     12  O   UNL     1      46.193   2.088   8.159  0.00  0.00    +0.000 OA
ATOM     13  C   UNL     1      46.739   3.135   7.396  0.00  0.00    +0.000 C 
ATOM     14  C   UNL     1      47.954   2.546   6.709  0.00  0.00    +0.000 C 
ATOM     15  O   UNL     1      47.984   1.161   7.050  0.00  0.00    +0.000 OA
ATOM     16  C   UNL     1      46.756   0.885   7.700  0.00  0.00    +0.000 C 
ENDBRANCH  11  12
ENDBRANCH  10  11
ENDBRANCH   8  10
ENDBRANCH   5   8
ENDBRANCH   1   2
BRANCH   1  19
ATOM     17  C   UNL     1      48.419   6.990  14.223  0.00  0.00    +0.000 C 
ATOM     18  O   UNL     1      49.202   7.269  13.316  0.00  0.00    +0.000 OA
ATOM     19  N   UNL     1      47.087   7.296  14.131  0.00  0.00    +0.000 N 
ATOM     20  H   UNL     1      46.465   7.059  14.891  0.00  0.00    +0.000 HD
BRANCH  17  28
ATOM     21  C   UNL     1      47.268   4.299  16.051  0.00  0.00    +0.000 A 
ATOM     22  N   UNL     1      47.011   3.355  16.979  0.00  0.00    +0.000 NA
ATOM     23  C   UNL     1      47.819   3.272  18.037  0.00  0.00    +0.000 A 
ATOM     24  N   UNL     1      48.880   4.029  18.292  0.00  0.00    +0.000 NA
ATOM     25  C   UNL     1      49.098   4.964  17.354  0.00  0.00    +0.000 A 
ATOM     26  S   UNL     1      50.423   6.013  17.515  0.00  0.00    +0.000 S 
ATOM     27  C   UNL     1      50.018   6.820  16.077  0.00  0.00    +0.000 A 
ATOM     28  C   UNL     1      48.877   6.330  15.454  0.00  0.00    +0.000 A 
ATOM     29  C   UNL     1      48.343   5.196  16.208  0.00  0.00    +0.000 A 
BRANCH  21  31
ATOM     30  C   UNL     1      46.915   3.612  13.833  0.00  0.00    +0.000 C 
ATOM     31  O   UNL     1      46.442   4.372  14.945  0.00  0.00    +0.000 OA
ENDBRANCH  21  31
ENDBRANCH  17  28
ENDBRANCH   1  19
TORSDOF 8
ENDMDL
MODEL 2
REMARK VINA RESULT:    -6.838      1.991      3.560
REMARK INTER + INTRA:         -11.489
REMARK INTER:                 -10.277
REMARK INTRA:                  -1.212
REMARK UNBOUND:                -1.454
REMARK  Name = 
REMARK  9 active torsions:
REMARK  status: ('A' for Active; 'I' for Inactive)
REMARK    1  A    between atoms: C_1  and  O_2
REMARK    2  A    between atoms: O_2  and  C_3
REMARK    3  A    between atoms: C_10  and  C_11
REMARK    4  A    between atoms: N_13  and  C_14
REMARK    5  A    between atoms: C_14  and  C_15
REMARK    6  A    between atoms: C_18  and  N_19
REMARK    7  A    between atoms: N_19  and  C_20
REMARK    8  A    between atoms: C_20  and  C_21
REMARK    9  A    between atoms: C_21  and  O_22
REMARK                            x       y       z     vdW  Elec       q    Type
REMARK                         _______ _______ _______ _____ _____    ______ ____
ROOT
ATOM      1  C   UNL     1      46.792   4.325  14.753  0.00  0.00    +0.000 C 
ENDROOT
BRANCH   1   2
ATOM      2  C   UNL     1      46.168   4.533  13.396  0.00  0.00    +0.000 A 
ATOM      3  C   UNL     1      46.228   5.791  12.790  0.00  0.00    +0.000 A 
ATOM      4  C   UNL     1      45.706   5.994  11.510  0.00  0.00    +0.000 A 
ATOM      5  C   UNL     1      45.143   4.940  10.783  0.00  0.00    +0.000 A 
ATOM      6  C   UNL     1      44.985   3.712  11.437  0.00  0.00    +0.000 A 
ATOM      7  C   UNL     1      45.501   3.503  12.723  0.00  0.00    +0.000 A 
BRANCH   5   8
ATOM      8  N   UNL     1      44.559   5.101   9.503  0.00  0.00    +0.000 N 
ATOM      9  H   UNL     1      45.003   5.944   9.113  0.00  0.00    +0.000 HD
BRANCH   8  10
ATOM     10  C   UNL     1      44.680   3.968   8.582  0.00  0.00    +0.000 C 
BRANCH  10  11
ATOM     11  C   UNL     1      46.040   4.002   7.876  0.00  0.00    +0.000 C 
BRANCH  11  12
ATOM     12  O   UNL     1      46.378   2.772   7.261  0.00  0.00    +0.000 OA
ATOM     13  C   UNL     1      46.081   1.613   8.001  0.00  0.00    +0.000 C 
ATOM     14  C   UNL     1      47.142   0.603   7.616  0.00  0.00    +0.000 C 
ATOM     15  O   UNL     1      48.046   1.275   6.738  0.00  0.00    +0.000 OA
ATOM     16  C   UNL     1      47.689   2.646   6.775  0.00  0.00    +0.000 C 
ENDBRANCH  11  12
ENDBRANCH  10  11
ENDBRANCH   8  10
ENDBRANCH   5   8
ENDBRANCH   1   2
BRANCH   1  19
ATOM     17  C   UNL     1      48.485   5.418  16.178  0.00  0.00    +0.000 C 
ATOM     18  O   UNL     1      48.776   4.352  16.720  0.00  0.00    +0.000 OA
ATOM     19  N   UNL     1      47.527   5.480  15.201  0.00  0.00    +0.000 N 
ATOM     20  H   UNL     1      47.309   6.367  14.770  0.00  0.00    +0.000 HD
BRANCH  17  28
ATOM     21  C   UNL     1      50.047   7.897  14.355  0.00  0.00    +0.000 A 
ATOM     22  N   UNL     1      50.764   8.952  13.917  0.00  0.00    +0.000 NA
ATOM     23  C   UNL     1      51.241   9.811  14.821  0.00  0.00    +0.000 A 
ATOM     24  N   UNL     1      51.087   9.751  16.139  0.00  0.00    +0.000 NA
ATOM     25  C   UNL     1      50.378   8.683  16.538  0.00  0.00    +0.000 A 
ATOM     26  S   UNL     1      50.074   8.456  18.192  0.00  0.00    +0.000 S 
ATOM     27  C   UNL     1      49.225   7.017  17.886  0.00  0.00    +0.000 A 
ATOM     28  C   UNL     1      49.162   6.671  16.543  0.00  0.00    +0.000 A 
ATOM     29  C   UNL     1      49.831   7.688  15.732  0.00  0.00    +0.000 A 
BRANCH  21  31
ATOM     30  C   UNL     1      49.483   7.563  12.100  0.00  0.00    +0.000 C 
ATOM     31  O   UNL     1      49.536   7.019  13.418  0.00  0.00    +0.000 OA
ENDBRANCH  21  31
ENDBRANCH  17  28
ENDBRANCH   1  19
TORSDOF 8
ENDMDL
MODEL 3
REMARK VINA RESULT:    -6.809      1.680      2.062
REMARK INTER + INTRA:         -11.447
REMARK INTER:                 -10.421
REMARK INTRA:                  -1.026
REMARK UNBOUND:                -1.454
REMARK  Name = 
REMARK  9 active torsions:
REMARK  status: ('A' for Active; 'I' for Inactive)
REMARK    1  A    between atoms: C_1  and  O_2
REMARK    2  A    between atoms: O_2  and  C_3
REMARK    3  A    between atoms: C_10  and  C_11
REMARK    4  A    between atoms: N_13  and  C_14
REMARK    5  A    between atoms: C_14  and  C_15
REMARK    6  A    between atoms: C_18  and  N_19
REMARK    7  A    between atoms: N_19  and  C_20
REMARK    8  A    between atoms: C_20  and  C_21
REMARK    9  A    between atoms: C_21  and  O_22
REMARK                            x       y       z     vdW  Elec       q    Type
REMARK                         _______ _______ _______ _____ _____    ______ ____
ROOT
ATOM      1  C   UNL     1      47.474   7.397  12.976  0.00  0.00    +0.000 C 
ENDROOT
BRANCH   1   2
ATOM      2  C   UNL     1      46.642   6.223  12.524  0.00  0.00    +0.000 A 
ATOM      3  C   UNL     1      45.950   6.289  11.312  0.00  0.00    +0.000 A 
ATOM      4  C   UNL     1      45.218   5.193  10.847  0.00  0.00    +0.000 A 
ATOM      5  C   UNL     1      45.186   3.990  11.557  0.00  0.00    +0.000 A 
ATOM      6  C   UNL     1      45.788   3.966  12.821  0.00  0.00    +0.000 A 
ATOM      7  C   UNL     1      46.519   5.064  13.297  0.00  0.00    +0.000 A 
BRANCH   5   8
ATOM      8  N   UNL     1      44.424   2.866  11.153  0.00  0.00    +0.000 N 
ATOM      9  H   UNL     1      43.536   2.950  11.666  0.00  0.00    +0.000 HD
BRANCH   8  10
ATOM     10  C   UNL     1      44.191   2.717   9.714  0.00  0.00    +0.000 C 
BRANCH  10  11
ATOM     11  C   UNL     1      45.246   1.788   9.102  0.00  0.00    +0.000 C 
BRANCH  11  12
ATOM     12  O   UNL     1      45.723   2.240   7.847  0.00  0.00    +0.000 OA
ATOM     13  C   UNL     1      46.967   1.726   7.440  0.00  0.00    +0.000 C 
ATOM     14  C   UNL     1      47.609   2.822   6.616  0.00  0.00    +0.000 C 
ATOM     15  O   UNL     1      46.729   3.944   6.671  0.00  0.00    +0.000 OA
ATOM     16  C   UNL     1      45.747   3.630   7.643  0.00  0.00    +0.000 C 
ENDBRANCH  11  12
ENDBRANCH  10  11
ENDBRANCH   8  10
ENDBRANCH   5   8
ENDBRANCH   1   2
BRANCH   1  19
ATOM     17  C   UNL     1      48.747   7.202  15.082  0.00  0.00    +0.000 C 
ATOM     18  O   UNL     1      49.774   6.891  14.479  0.00  0.00    +0.000 OA
ATOM     19  N   UNL     1      47.584   7.470  14.412  0.00  0.00    +0.000 N 
ATOM     20  H   UNL     1      46.756   7.726  14.929  0.00  0.00    +0.000 HD
BRANCH  17  28
ATOM     21  C   UNL     1      48.791   4.893  17.646  0.00  0.00    +0.000 A 
ATOM     22  N   UNL     1      48.726   4.231  18.820  0.00  0.00    +0.000 NA
ATOM     23  C   UNL     1      48.627   4.946  19.943  0.00  0.00    +0.000 A 
ATOM     24  N   UNL     1      48.587   6.269  20.046  0.00  0.00    +0.000 NA
ATOM     25  C   UNL     1      48.642   6.892  18.859  0.00  0.00    +0.000 A 
ATOM     26  S   UNL     1      48.614   8.588  18.806  0.00  0.00    +0.000 S 
ATOM     27  C   UNL     1      48.689   8.583  17.110  0.00  0.00    +0.000 A 
ATOM     28  C   UNL     1      48.725   7.314  16.547  0.00  0.00    +0.000 A 
ATOM     29  C   UNL     1      48.725   6.300  17.602  0.00  0.00    +0.000 A 
BRANCH  21  31
ATOM     30  C   UNL     1      47.814   3.274  16.253  0.00  0.00    +0.000 C 
ATOM     31  O   UNL     1      48.914   4.154  16.484  0.00  0.00    +0.000 OA
ENDBRANCH  21  31
ENDBRANCH  17  28
ENDBRANCH   1  19
TORSDOF 8
ENDMDL
MODEL 4
REMARK VINA RESULT:    -6.590      2.180      2.924
REMARK INTER + INTRA:         -11.126
REMARK INTER:                 -10.269
REMARK INTRA:                  -0.857
REMARK UNBOUND:                -1.454
REMARK  Name = 
REMARK  9 active torsions:
REMARK  status: ('A' for Active; 'I' for Inactive)
REMARK    1  A    between atoms: C_1  and  O_2
REMARK    2  A    between atoms: O_2  and  C_3
REMARK    3  A    between atoms: C_10  and  C_11
REMARK    4  A    between atoms: N_13  and  C_14
REMARK    5  A    between atoms: C_14  and  C_15
REMARK    6  A    between atoms: C_18  and  N_19
REMARK    7  A    between atoms: N_19  and  C_20
REMARK    8  A    between atoms: C_20  and  C_21
REMARK    9  A    between atoms: C_21  and  O_22
REMARK                            x       y       z     vdW  Elec       q    Type
REMARK                         _______ _______ _______ _____ _____    ______ ____
ROOT
ATOM      1  C   UNL     1      47.883   6.675  13.609  0.00  0.00    +0.000 C 
ENDROOT
BRANCH   1   2
ATOM      2  C   UNL     1      46.841   5.974  12.774  0.00  0.00    +0.000 A 
ATOM      3  C   UNL     1      46.412   6.547  11.574  0.00  0.00    +0.000 A 
ATOM      4  C   UNL     1      45.488   5.889  10.758  0.00  0.00    +0.000 A 
ATOM      5  C   UNL     1      44.995   4.626  11.096  0.00  0.00    +0.000 A 
ATOM      6  C   UNL     1      45.341   4.108  12.349  0.00  0.00    +0.000 A 
ATOM      7  C   UNL     1      46.263   4.765  13.177  0.00  0.00    +0.000 A 
BRANCH   5   8
ATOM      8  N   UNL     1      44.025   3.937  10.328  0.00  0.00    +0.000 N 
ATOM      9  H   UNL     1      43.713   4.617   9.622  0.00  0.00    +0.000 HD
BRANCH   8  10
ATOM     10  C   UNL     1      44.456   2.685   9.700  0.00  0.00    +0.000 C 
BRANCH  10  11
ATOM     11  C   UNL     1      44.938   2.951   8.268  0.00  0.00    +0.000 C 
BRANCH  11  12
ATOM     12  O   UNL     1      46.294   2.593   8.065  0.00  0.00    +0.000 OA
ATOM     13  C   UNL     1      46.985   3.333   7.088  0.00  0.00    +0.000 C 
ATOM     14  C   UNL     1      47.999   2.376   6.496  0.00  0.00    +0.000 C 
ATOM     15  O   UNL     1      47.770   1.107   7.109  0.00  0.00    +0.000 OA
ATOM     16  C   UNL     1      46.563   1.233   7.841  0.00  0.00    +0.000 C 
ENDBRANCH  11  12
ENDBRANCH  10  11
ENDBRANCH   8  10
ENDBRANCH   5   8
ENDBRANCH   1   2
BRANCH   1  19
ATOM     17  C   UNL     1      48.988   6.244  15.774  0.00  0.00    +0.000 C 
ATOM     18  O   UNL     1      50.071   6.641  15.345  0.00  0.00    +0.000 OA
ATOM     19  N   UNL     1      47.871   6.238  14.982  0.00  0.00    +0.000 N 
ATOM     20  H   UNL     1      46.993   5.910  15.358  0.00  0.00    +0.000 HD
BRANCH  17  28
ATOM     21  C   UNL     1      49.007   7.824  18.841  0.00  0.00    +0.000 A 
ATOM     22  N   UNL     1      49.042   8.156  20.148  0.00  0.00    +0.000 NA
ATOM     23  C   UNL     1      48.918   7.181  21.051  0.00  0.00    +0.000 A 
ATOM     24  N   UNL     1      48.756   5.885  20.809  0.00  0.00    +0.000 NA
ATOM     25  C   UNL     1      48.738   5.592  19.500  0.00  0.00    +0.000 A 
ATOM     26  S   UNL     1      48.526   3.981  19.010  0.00  0.00    +0.000 S 
ATOM     27  C   UNL     1      48.632   4.416  17.372  0.00  0.00    +0.000 A 
ATOM     28  C   UNL     1      48.839   5.773  17.158  0.00  0.00    +0.000 A 
ATOM     29  C   UNL     1      48.874   6.481  18.437  0.00  0.00    +0.000 A 
BRANCH  21  31
ATOM     30  C   UNL     1      47.860   9.405  17.536  0.00  0.00    +0.000 C 
ATOM     31  O   UNL     1      49.116   8.837  17.906  0.00  0.00    +0.000 OA
ENDBRANCH  21  31
ENDBRANCH  17  28
ENDBRANCH   1  19
TORSDOF 8
ENDMDL
MODEL 5
REMARK VINA RESULT:    -6.433      2.490      3.490
REMARK INTER + INTRA:         -10.896
REMARK INTER:                 -10.084
REMARK INTRA:                  -0.812
REMARK UNBOUND:                -1.454
REMARK  Name = 
REMARK  9 active torsions:
REMARK  status: ('A' for Active; 'I' for Inactive)
REMARK    1  A    between atoms: C_1  and  O_2
REMARK    2  A    between atoms: O_2  and  C_3
REMARK    3  A    between atoms: C_10  and  C_11
REMARK    4  A    between atoms: N_13  and  C_14
REMARK    5  A    between atoms: C_14  and  C_15
REMARK    6  A    between atoms: C_18  and  N_19
REMARK    7  A    between atoms: N_19  and  C_20
REMARK    8  A    between atoms: C_20  and  C_21
REMARK    9  A    between atoms: C_21  and  O_22
REMARK                            x       y       z     vdW  Elec       q    Type
REMARK                         _______ _______ _______ _____ _____    ______ ____
ROOT
ATOM      1  C   UNL     1      46.819   4.398  14.891  0.00  0.00    +0.000 C 
ENDROOT
BRANCH   1   2
ATOM      2  C   UNL     1      46.335   4.610  13.478  0.00  0.00    +0.000 A 
ATOM      3  C   UNL     1      45.688   3.572  12.802  0.00  0.00    +0.000 A 
ATOM      4  C   UNL     1      45.183   3.763  11.514  0.00  0.00    +0.000 A 
ATOM      5  C   UNL     1      45.273   5.005  10.878  0.00  0.00    +0.000 A 
ATOM      6  C   UNL     1      46.017   6.007  11.513  0.00  0.00    +0.000 A 
ATOM      7  C   UNL     1      46.533   5.820  12.804  0.00  0.00    +0.000 A 
BRANCH   5   8
ATOM      8  N   UNL     1      44.818   5.240   9.558  0.00  0.00    +0.000 N 
ATOM      9  H   UNL     1      45.418   5.996   9.201  0.00  0.00    +0.000 HD
BRANCH   8  10
ATOM     10  C   UNL     1      44.823   4.090   8.650  0.00  0.00    +0.000 C 
BRANCH  10  11
ATOM     11  C   UNL     1      46.101   4.090   7.803  0.00  0.00    +0.000 C 
BRANCH  11  12
ATOM     12  O   UNL     1      46.386   2.827   7.228  0.00  0.00    +0.000 OA
ATOM     13  C   UNL     1      46.041   1.707   8.005  0.00  0.00    +0.000 C 
ATOM     14  C   UNL     1      47.059   0.641   7.655  0.00  0.00    +0.000 C 
ATOM     15  O   UNL     1      47.991   1.245   6.758  0.00  0.00    +0.000 OA
ATOM     16  C   UNL     1      47.692   2.630   6.750  0.00  0.00    +0.000 C 
ENDBRANCH  11  12
ENDBRANCH  10  11
ENDBRANCH   8  10
ENDBRANCH   5   8
ENDBRANCH   1   2
BRANCH   1  19
ATOM     17  C   UNL     1      48.605   5.386  16.278  0.00  0.00    +0.000 C 
ATOM     18  O   UNL     1      48.945   4.281  16.699  0.00  0.00    +0.000 OA
ATOM     19  N   UNL     1      47.575   5.520  15.385  0.00  0.00    +0.000 N 
ATOM     20  H   UNL     1      47.317   6.438  15.054  0.00  0.00    +0.000 HD
BRANCH  17  28
ATOM     21  C   UNL     1      48.608   7.227  19.197  0.00  0.00    +0.000 A 
ATOM     22  N   UNL     1      48.747   8.157  20.163  0.00  0.00    +0.000 NA
ATOM     23  C   UNL     1      49.534   9.208  19.921  0.00  0.00    +0.000 A 
ATOM     24  N   UNL     1      50.219   9.452  18.810  0.00  0.00    +0.000 NA
ATOM     25  C   UNL     1      50.048   8.511  17.868  0.00  0.00    +0.000 A 
ATOM     26  S   UNL     1      50.862   8.658  16.386  0.00  0.00    +0.000 S 
ATOM     27  C   UNL     1      50.161   7.224  15.805  0.00  0.00    +0.000 A 
ATOM     28  C   UNL     1      49.296   6.612  16.703  0.00  0.00    +0.000 A 
ATOM     29  C   UNL     1      49.251   7.372  17.952  0.00  0.00    +0.000 A 
BRANCH  21  31
ATOM     30  C   UNL     1      47.249   6.131  20.769  0.00  0.00    +0.000 C 
ATOM     31  O   UNL     1      47.809   6.129  19.456  0.00  0.00    +0.000 OA
ENDBRANCH  21  31
ENDBRANCH  17  28
ENDBRANCH   1  19
TORSDOF 8
ENDMDL
MODEL 6
REMARK VINA RESULT:    -6.328      2.626      3.515
REMARK INTER + INTRA:         -10.742
REMARK INTER:                  -9.699
REMARK INTRA:                  -1.043
REMARK UNBOUND:                -1.454
REMARK  Name = 
REMARK  9 active torsions:
REMARK  status: ('A' for Active; 'I' for Inactive)
REMARK    1  A    between atoms: C_1  and  O_2
REMARK    2  A    between atoms: O_2  and  C_3
REMARK    3  A    between atoms: C_10  and  C_11
REMARK    4  A    between atoms: N_13  and  C_14
REMARK    5  A    between atoms: C_14  and  C_15
REMARK    6  A    between atoms: C_18  and  N_19
REMARK    7  A    between atoms: N_19  and  C_20
REMARK    8  A    between atoms: C_20  and  C_21
REMARK    9  A    between atoms: C_21  and  O_22
REMARK                            x       y       z     vdW  Elec       q    Type
REMARK                         _______ _______ _______ _____ _____    ______ ____
ROOT
ATOM      1  C   UNL     1      48.646   6.894  15.664  0.00  0.00    +0.000 C 
ENDROOT
BRANCH   1   2
ATOM      2  C   UNL     1      47.807   6.324  14.549  0.00  0.00    +0.000 A 
ATOM      3  C   UNL     1      47.272   5.038  14.670  0.00  0.00    +0.000 A 
ATOM      4  C   UNL     1      46.446   4.511  13.674  0.00  0.00    +0.000 A 
ATOM      5  C   UNL     1      46.099   5.264  12.548  0.00  0.00    +0.000 A 
ATOM      6  C   UNL     1      46.725   6.505  12.379  0.00  0.00    +0.000 A 
ATOM      7  C   UNL     1      47.560   7.038  13.371  0.00  0.00    +0.000 A 
BRANCH   5   8
ATOM      8  N   UNL     1      45.304   4.762  11.489  0.00  0.00    +0.000 N 
ATOM      9  H   UNL     1      45.673   5.214  10.642  0.00  0.00    +0.000 HD
BRANCH   8  10
ATOM     10  C   UNL     1      45.264   3.305  11.335  0.00  0.00    +0.000 C 
BRANCH  10  11
ATOM     11  C   UNL     1      44.108   2.903  10.411  0.00  0.00    +0.000 C 
BRANCH  11  12
ATOM     12  O   UNL     1      44.500   2.773   9.056  0.00  0.00    +0.000 OA
ATOM     13  C   UNL     1      45.583   1.910   8.809  0.00  0.00    +0.000 C 
ATOM     14  C   UNL     1      46.296   2.488   7.604  0.00  0.00    +0.000 C 
ATOM     15  O   UNL     1      45.628   3.707   7.281  0.00  0.00    +0.000 OA
ATOM     16  C   UNL     1      44.731   3.963   8.347  0.00  0.00    +0.000 C 
ENDBRANCH  11  12
ENDBRANCH  10  11
ENDBRANCH   8  10
ENDBRANCH   5   8
ENDBRANCH   1   2
BRANCH   1  19
ATOM     17  C   UNL     1      50.266   6.048  17.324  0.00  0.00    +0.000 C 
ATOM     18  O   UNL     1      49.911   6.883  18.155  0.00  0.00    +0.000 OA
ATOM     19  N   UNL     1      49.687   5.989  16.084  0.00  0.00    +0.000 N 
ATOM     20  H   UNL     1      49.993   5.292  15.421  0.00  0.00    +0.000 HD
BRANCH  17  28
ATOM     21  C   UNL     1      50.435   2.607  17.127  0.00  0.00    +0.000 A 
ATOM     22  N   UNL     1      50.754   1.300  17.219  0.00  0.00    +0.000 NA
ATOM     23  C   UNL     1      51.960   0.976  17.692  0.00  0.00    +0.000 A 
ATOM     24  N   UNL     1      52.912   1.811  18.091  0.00  0.00    +0.000 NA
ATOM     25  C   UNL     1      52.555   3.101  17.995  0.00  0.00    +0.000 A 
ATOM     26  S   UNL     1      53.658   4.307  18.452  0.00  0.00    +0.000 S 
ATOM     27  C   UNL     1      52.541   5.533  18.086  0.00  0.00    +0.000 A 
ATOM     28  C   UNL     1      51.316   5.066  17.627  0.00  0.00    +0.000 A 
ATOM     29  C   UNL     1      51.337   3.605  17.546  0.00  0.00    +0.000 A 
BRANCH  21  31
ATOM     30  C   UNL     1      48.160   2.943  17.601  0.00  0.00    +0.000 C 
ATOM     31  O   UNL     1      49.194   2.944  16.618  0.00  0.00    +0.000 OA
ENDBRANCH  21  31
ENDBRANCH  17  28
ENDBRANCH   1  19
TORSDOF 8
ENDMDL
MODEL 7
REMARK VINA RESULT:    -6.306      4.535      9.058
REMARK INTER + INTRA:         -10.710
REMARK INTER:                  -9.744
REMARK INTRA:                  -0.966
REMARK UNBOUND:                -1.454
REMARK  Name = 
REMARK  9 active torsions:
REMARK  status: ('A' for Active; 'I' for Inactive)
REMARK    1  A    between atoms: C_1  and  O_2
REMARK    2  A    between atoms: O_2  and  C_3
REMARK    3  A    between atoms: C_10  and  C_11
REMARK    4  A    between atoms: N_13  and  C_14
REMARK    5  A    between atoms: C_14  and  C_15
REMARK    6  A    between atoms: C_18  and  N_19
REMARK    7  A    between atoms: N_19  and  C_20
REMARK    8  A    between atoms: C_20  and  C_21
REMARK    9  A    between atoms: C_21  and  O_22
REMARK                            x       y       z     vdW  Elec       q    Type
REMARK                         _______ _______ _______ _____ _____    ______ ____
ROOT
ATOM      1  C   UNL     1      47.273   3.401  16.708  0.00  0.00    +0.000 C 
ENDROOT
BRANCH   1   2
ATOM      2  C   UNL     1      48.726   3.527  17.090  0.00  0.00    +0.000 A 
ATOM      3  C   UNL     1      49.538   2.389  17.120  0.00  0.00    +0.000 A 
ATOM      4  C   UNL     1      50.899   2.490  17.419  0.00  0.00    +0.000 A 
ATOM      5  C   UNL     1      51.498   3.730  17.657  0.00  0.00    +0.000 A 
ATOM      6  C   UNL     1      50.662   4.851  17.735  0.00  0.00    +0.000 A 
ATOM      7  C   UNL     1      49.293   4.756  17.443  0.00  0.00    +0.000 A 
BRANCH   5   8
ATOM      8  N   UNL     1      52.861   3.883  18.007  0.00  0.00    +0.000 N 
ATOM      9  H   UNL     1      52.852   4.162  18.998  0.00  0.00    +0.000 HD
BRANCH   8  10
ATOM     10  C   UNL     1      53.726   2.719  17.795  0.00  0.00    +0.000 C 
BRANCH  10  11
ATOM     11  C   UNL     1      54.246   2.195  19.139  0.00  0.00    +0.000 C 
BRANCH  11  12
ATOM     12  O   UNL     1      54.245   0.781  19.220  0.00  0.00    +0.000 OA
ATOM     13  C   UNL     1      55.460   0.186  19.604  0.00  0.00    +0.000 C 
ATOM     14  C   UNL     1      55.497  -1.154  18.898  0.00  0.00    +0.000 C 
ATOM     15  O   UNL     1      54.334  -1.214  18.074  0.00  0.00    +0.000 OA
ATOM     16  C   UNL     1      53.761   0.082  18.101  0.00  0.00    +0.000 C 
ENDBRANCH  11  12
ENDBRANCH  10  11
ENDBRANCH   8  10
ENDBRANCH   5   8
ENDBRANCH   1   2
BRANCH   1  19
ATOM     17  C   UNL     1      46.867   4.254  14.428  0.00  0.00    +0.000 C 
ATOM     18  O   UNL     1      47.225   3.191  13.922  0.00  0.00    +0.000 OA
ATOM     19  N   UNL     1      46.858   4.428  15.786  0.00  0.00    +0.000 N 
ATOM     20  H   UNL     1      46.558   5.309  16.176  0.00  0.00    +0.000 HD
BRANCH  17  28
ATOM     21  C   UNL     1      43.965   4.920  12.683  0.00  0.00    +0.000 A 
ATOM     22  N   UNL     1      43.000   5.401  11.873  0.00  0.00    +0.000 NA
ATOM     23  C   UNL     1      43.213   6.569  11.262  0.00  0.00    +0.000 A 
ATOM     24  N   UNL     1      44.291   7.337  11.361  0.00  0.00    +0.000 NA
ATOM     25  C   UNL     1      45.233   6.821  12.166  0.00  0.00    +0.000 A 
ATOM     26  S   UNL     1      46.675   7.680  12.418  0.00  0.00    +0.000 S 
ATOM     27  C   UNL     1      47.278   6.461  13.436  0.00  0.00    +0.000 A 
ATOM     28  C   UNL     1      46.418   5.382  13.599  0.00  0.00    +0.000 A 
ATOM     29  C   UNL     1      45.179   5.614  12.858  0.00  0.00    +0.000 A 
BRANCH  21  31
ATOM     30  C   UNL     1      43.592   2.614  12.442  0.00  0.00    +0.000 C 
ATOM     31  O   UNL     1      43.737   3.720  13.331  0.00  0.00    +0.000 OA
ENDBRANCH  21  31
ENDBRANCH  17  28
ENDBRANCH   1  19
TORSDOF 8
ENDMDL
MODEL 8
REMARK VINA RESULT:    -6.291      1.522      2.135
REMARK INTER + INTRA:         -10.687
REMARK INTER:                  -9.579
REMARK INTRA:                  -1.109
REMARK UNBOUND:                -1.454
REMARK  Name = 
REMARK  9 active torsions:
REMARK  status: ('A' for Active; 'I' for Inactive)
REMARK    1  A    between atoms: C_1  and  O_2
REMARK    2  A    between atoms: O_2  and  C_3
REMARK    3  A    between atoms: C_10  and  C_11
REMARK    4  A    between atoms: N_13  and  C_14
REMARK    5  A    between atoms: C_14  and  C_15
REMARK    6  A    between atoms: C_18  and  N_19
REMARK    7  A    between atoms: N_19  and  C_20
REMARK    8  A    between atoms: C_20  and  C_21
REMARK    9  A    between atoms: C_21  and  O_22
REMARK                            x       y       z     vdW  Elec       q    Type
REMARK                         _______ _______ _______ _____ _____    ______ ____
ROOT
ATOM      1  C   UNL     1      48.129   8.518  14.068  0.00  0.00    +0.000 C 
ENDROOT
BRANCH   1   2
ATOM      2  C   UNL     1      47.124   7.851  13.163  0.00  0.00    +0.000 A 
ATOM      3  C   UNL     1      45.827   8.363  13.069  0.00  0.00    +0.000 A 
ATOM      4  C   UNL     1      44.896   7.794  12.196  0.00  0.00    +0.000 A 
ATOM      5  C   UNL     1      45.242   6.725  11.365  0.00  0.00    +0.000 A 
ATOM      6  C   UNL     1      46.505   6.147  11.542  0.00  0.00    +0.000 A 
ATOM      7  C   UNL     1      47.442   6.708  12.421  0.00  0.00    +0.000 A 
BRANCH   5   8
ATOM      8  N   UNL     1      44.325   6.084  10.496  0.00  0.00    +0.000 N 
ATOM      9  H   UNL     1      44.569   6.423   9.556  0.00  0.00    +0.000 HD
BRANCH   8  10
ATOM     10  C   UNL     1      44.297   4.620  10.539  0.00  0.00    +0.000 C 
BRANCH  10  11
ATOM     11  C   UNL     1      44.370   4.048   9.118  0.00  0.00    +0.000 C 
BRANCH  11  12
ATOM     12  O   UNL     1      45.496   3.215   8.912  0.00  0.00    +0.000 OA
ATOM     13  C   UNL     1      46.245   3.470   7.749  0.00  0.00    +0.000 C 
ATOM     14  C   UNL     1      46.806   2.127   7.326  0.00  0.00    +0.000 C 
ATOM     15  O   UNL     1      46.270   1.158   8.226  0.00  0.00    +0.000 OA
ATOM     16  C   UNL     1      45.281   1.829   8.988  0.00  0.00    +0.000 C 
ENDBRANCH  11  12
ENDBRANCH  10  11
ENDBRANCH   8  10
ENDBRANCH   5   8
ENDBRANCH   1   2
BRANCH   1  19
ATOM     17  C   UNL     1      49.365   8.030  16.148  0.00  0.00    +0.000 C 
ATOM     18  O   UNL     1      50.225   8.869  15.881  0.00  0.00    +0.000 OA
ATOM     19  N   UNL     1      48.305   7.808  15.309  0.00  0.00    +0.000 N 
ATOM     20  H   UNL     1      47.612   7.116  15.552  0.00  0.00    +0.000 HD
BRANCH  17  28
ATOM     21  C   UNL     1      48.513   4.781  16.938  0.00  0.00    +0.000 A 
ATOM     22  N   UNL     1      48.209   3.610  17.535  0.00  0.00    +0.000 NA
ATOM     23  C   UNL     1      48.442   3.490  18.844  0.00  0.00    +0.000 A 
ATOM     24  N   UNL     1      48.955   4.411  19.651  0.00  0.00    +0.000 NA
ATOM     25  C   UNL     1      49.234   5.565  19.025  0.00  0.00    +0.000 A 
ATOM     26  S   UNL     1      49.908   6.849  19.905  0.00  0.00    +0.000 S 
ATOM     27  C   UNL     1      49.934   7.842  18.528  0.00  0.00    +0.000 A 
ATOM     28  C   UNL     1      49.427   7.238  17.384  0.00  0.00    +0.000 A 
ATOM     29  C   UNL     1      49.034   5.860  17.679  0.00  0.00    +0.000 A 
BRANCH  21  31
ATOM     30  C   UNL     1      47.049   4.336  15.156  0.00  0.00    +0.000 C 
ATOM     31  O   UNL     1      48.290   4.899  15.578  0.00  0.00    +0.000 OA
ENDBRANCH  21  31
ENDBRANCH  17  28
ENDBRANCH   1  19
TORSDOF 8
ENDMDL
MODEL 9
REMARK VINA RESULT:    -5.791      2.281      3.098
REMARK INTER + INTRA:          -9.953
REMARK INTER:                  -8.838
REMARK INTRA:                  -1.115
REMARK UNBOUND:                -1.454
REMARK  Name = 
REMARK  9 active torsions:
REMARK  status: ('A' for Active; 'I' for Inactive)
REMARK    1  A    between atoms: C_1  and  O_2
REMARK    2  A    between atoms: O_2  and  C_3
REMARK    3  A    between atoms: C_10  and  C_11
REMARK    4  A    between atoms: N_13  and  C_14
REMARK    5  A    between atoms: C_14  and  C_15
REMARK    6  A    between atoms: C_18  and  N_19
REMARK    7  A    between atoms: N_19  and  C_20
REMARK    8  A    between atoms: C_20  and  C_21
REMARK    9  A    between atoms: C_21  and  O_22
REMARK                            x       y       z     vdW  Elec       q    Type
REMARK                         _______ _______ _______ _____ _____    ______ ____
ROOT
ATOM      1  C   UNL     1      49.370   8.000  13.192  0.00  0.00    +0.000 C 
ENDROOT
BRANCH   1   2
ATOM      2  C   UNL     1      48.186   7.102  12.933  0.00  0.00    +0.000 A 
ATOM      3  C   UNL     1      47.480   7.212  11.732  0.00  0.00    +0.000 A 
ATOM      4  C   UNL     1      46.415   6.354  11.448  0.00  0.00    +0.000 A 
ATOM      5  C   UNL     1      46.048   5.337  12.334  0.00  0.00    +0.000 A 
ATOM      6  C   UNL     1      46.685   5.302  13.581  0.00  0.00    +0.000 A 
ATOM      7  C   UNL     1      47.750   6.164  13.876  0.00  0.00    +0.000 A 
BRANCH   5   8
ATOM      8  N   UNL     1      44.950   4.470  12.115  0.00  0.00    +0.000 N 
ATOM      9  H   UNL     1      44.540   4.321  13.047  0.00  0.00    +0.000 HD
BRANCH   8  10
ATOM     10  C   UNL     1      43.937   4.927  11.160  0.00  0.00    +0.000 C 
BRANCH  10  11
ATOM     11  C   UNL     1      43.808   3.924  10.007  0.00  0.00    +0.000 C 
BRANCH  11  12
ATOM     12  O   UNL     1      45.059   3.511   9.488  0.00  0.00    +0.000 OA
ATOM     13  C   UNL     1      45.567   4.279   8.425  0.00  0.00    +0.000 C 
ATOM     14  C   UNL     1      46.362   3.314   7.570  0.00  0.00    +0.000 C 
ATOM     15  O   UNL     1      46.190   2.020   8.148  0.00  0.00    +0.000 OA
ATOM     16  C   UNL     1      45.182   2.157   9.135  0.00  0.00    +0.000 C 
ENDBRANCH  11  12
ENDBRANCH  10  11
ENDBRANCH   8  10
ENDBRANCH   5   8
ENDBRANCH   1   2
BRANCH   1  19
ATOM     17  C   UNL     1      50.652   7.741  15.285  0.00  0.00    +0.000 C 
ATOM     18  O   UNL     1      50.032   8.657  15.825  0.00  0.00    +0.000 OA
ATOM     19  N   UNL     1      50.378   7.360  13.999  0.00  0.00    +0.000 N 
ATOM     20  H   UNL     1      50.899   6.604  13.579  0.00  0.00    +0.000 HD
BRANCH  17  28
ATOM     21  C   UNL     1      50.667   4.875  17.207  0.00  0.00    +0.000 A 
ATOM     22  N   UNL     1      50.952   3.853  18.039  0.00  0.00    +0.000 NA
ATOM     23  C   UNL     1      52.209   3.718  18.467  0.00  0.00    +0.000 A 
ATOM     24  N   UNL     1      53.243   4.492  18.160  0.00  0.00    +0.000 NA
ATOM     25  C   UNL     1      52.920   5.504  17.341  0.00  0.00    +0.000 A 
ATOM     26  S   UNL     1      54.126   6.586  16.836  0.00  0.00    +0.000 S 
ATOM     27  C   UNL     1      53.006   7.487  15.932  0.00  0.00    +0.000 A 
ATOM     28  C   UNL     1      51.705   7.004  15.999  0.00  0.00    +0.000 A 
ATOM     29  C   UNL     1      51.661   5.797  16.823  0.00  0.00    +0.000 A 
BRANCH  21  31
ATOM     30  C   UNL     1      48.490   3.994  17.244  0.00  0.00    +0.000 C 
ATOM     31  O   UNL     1      49.369   5.003  16.748  0.00  0.00    +0.000 OA
ENDBRANCH  21  31
ENDBRANCH  17  28
ENDBRANCH   1  19
TORSDOF 8
ENDMDL
