MODEL 1
REMARK VINA RESULT:    -7.637      0.000      0.000
REMARK INTER + INTRA:         -11.831
REMARK INTER:                 -10.762
REMARK INTRA:                  -1.069
REMARK UNBOUND:                -1.069
REMARK  Name = 
REMARK  10 active torsions:
REMARK  status: ('A' for Active; 'I' for Inactive)
REMARK    1  A    between atoms: C_1  and  C_2
REMARK    2  A    between atoms: C_4  and  S_5
REMARK    3  A    between atoms: S_5  and  C_6
REMARK    4  A    between atoms: C_11  and  N_12
REMARK    5  A    between atoms: N_12  and  C_13
REMARK    6  A    between atoms: C_13  and  C_14
REMARK    7  A    between atoms: C_14  and  C_17
REMARK    8  A    between atoms: C_21  and  C_22
REMARK    9  A    between atoms: C_22  and  C_23
REMARK   10  A    between atoms: N_25  and  C_26
REMARK                            x       y       z     vdW  Elec       q    Type
REMARK                         _______ _______ _______ _____ _____    ______ ____
ROOT
ATOM      1  C   UNL     1      45.395   7.213  11.895  0.00  0.00    +0.000 C 
ATOM      2  F   UNL     1      44.903   8.102  10.978  0.00  0.00    +0.000 F 
ATOM      3  F   UNL     1      45.226   7.827  13.107  0.00  0.00    +0.000 F 
ENDROOT
BRANCH   1   4
ATOM      4  C   UNL     1      44.678   5.873  11.828  0.00  0.00    +0.000 A 
ATOM      5  C   UNL     1      43.801   5.483  12.851  0.00  0.00    +0.000 A 
ATOM      6  C   UNL     1      43.191   4.228  12.819  0.00  0.00    +0.000 A 
ATOM      7  C   UNL     1      43.416   3.361  11.748  0.00  0.00    +0.000 A 
ATOM      8  C   UNL     1      44.230   3.754  10.677  0.00  0.00    +0.000 A 
ATOM      9  C   UNL     1      44.878   4.999  10.742  0.00  0.00    +0.000 A 
BRANCH   8  10
ATOM     10  C   UNL     1      44.329   2.895   9.436  0.00  0.00    +0.000 C 
BRANCH  10  11
ATOM     11  C   UNL     1      45.751   2.803   8.901  0.00  0.00    +0.000 C 
ATOM     12  C   UNL     1      45.942   3.501   7.534  0.00  0.00    +0.000 C 
ATOM     13  N   UNL     1      46.529   2.276   6.974  0.00  0.00    +0.000 NA
ATOM     14  C   UNL     1      47.978   2.413   6.847  0.00  0.00    +0.000 C 
ATOM     15  C   UNL     1      46.176   1.508   8.179  0.00  0.00    +0.000 C 
ENDBRANCH  10  11
ENDBRANCH   8  10
ENDBRANCH   1   4
BRANCH   1  16
ATOM     16  C   UNL     1      46.924   7.046  11.652  0.00  0.00    +0.000 C 
BRANCH  16  17
ATOM     17  N   UNL     1      47.739   7.156  12.880  0.00  0.00    +0.000 N 
ATOM     18  H   UNL     1      48.064   8.093  13.101  0.00  0.00    +0.000 HD
BRANCH  17  25
ATOM     19  C   UNL     1      48.805   7.912  15.504  0.00  0.00    +0.000 C 
ATOM     20  C   UNL     1      48.252   6.546  15.185  0.00  0.00    +0.000 A 
ATOM     21  C   UNL     1      48.334   5.558  16.188  0.00  0.00    +0.000 A 
ATOM     22  C   UNL     1      47.846   4.277  15.947  0.00  0.00    +0.000 A 
ATOM     23  C   UNL     1      47.203   3.982  14.753  0.00  0.00    +0.000 A 
ATOM     24  C   UNL     1      47.124   4.960  13.757  0.00  0.00    +0.000 A 
ATOM     25  C   UNL     1      47.659   6.249  13.934  0.00  0.00    +0.000 A 
BRANCH  22  26
ATOM     26  S   UNL     1      48.092   2.990  17.148  0.00  0.00    +0.000 S 
ATOM     27  C   UNL     1      48.878   3.852  18.485  0.00  0.00    +0.000 C 
ATOM     28  O   UNL     1      46.779   2.549  17.602  0.00  0.00    +0.000 OA
ATOM     29  O   UNL     1      49.040   2.047  16.592  0.00  0.00    +0.000 OA
ENDBRANCH  22  26
ENDBRANCH  17  25
ENDBRANCH  16  17
ENDBRANCH   1  16
TORSDOF 7
ENDMDL
MODEL 2
REMARK VINA RESULT:    -6.836      2.190      2.819
REMARK INTER + INTRA:         -10.703
REMARK INTER:                  -9.691
REMARK INTRA:                  -1.012
REMARK UNBOUND:                -1.069
REMARK  Name = 
REMARK  10 active torsions:
REMARK  status: ('A' for Active; 'I' for Inactive)
REMARK    1  A    between atoms: C_1  and  C_2
REMARK    2  A    between atoms: C_4  and  S_5
REMARK    3  A    between atoms: S_5  and  C_6
REMARK    4  A    between atoms: C_11  and  N_12
REMARK    5  A    between atoms: N_12  and  C_13
REMARK    6  A    between atoms: C_13  and  C_14
REMARK    7  A    between atoms: C_14  and  C_17
REMARK    8  A    between atoms: C_21  and  C_22
REMARK    9  A    between atoms: C_22  and  C_23
REMARK   10  A    between atoms: N_25  and  C_26
REMARK                            x       y       z     vdW  Elec       q    Type
REMARK                         _______ _______ _______ _____ _____    ______ ____
ROOT
ATOM      1  C   UNL     1      46.712   5.458  13.294  0.00  0.00    +0.000 C 
ATOM      2  F   UNL     1      47.906   5.531  12.631  0.00  0.00    +0.000 F 
ATOM      3  F   UNL     1      46.605   6.649  13.961  0.00  0.00    +0.000 F 
ENDROOT
BRANCH   1   4
ATOM      4  C   UNL     1      45.547   5.231  12.342  0.00  0.00    +0.000 A 
ATOM      5  C   UNL     1      44.477   6.136  12.296  0.00  0.00    +0.000 A 
ATOM      6  C   UNL     1      43.381   5.894  11.467  0.00  0.00    +0.000 A 
ATOM      7  C   UNL     1      43.355   4.767  10.642  0.00  0.00    +0.000 A 
ATOM      8  C   UNL     1      44.442   3.884  10.614  0.00  0.00    +0.000 A 
ATOM      9  C   UNL     1      45.519   4.109  11.489  0.00  0.00    +0.000 A 
BRANCH   8  10
ATOM     10  C   UNL     1      44.496   2.767   9.595  0.00  0.00    +0.000 C 
BRANCH  10  11
ATOM     11  C   UNL     1      45.867   2.629   8.950  0.00  0.00    +0.000 C 
ATOM     12  C   UNL     1      46.020   3.442   7.644  0.00  0.00    +0.000 C 
ATOM     13  N   UNL     1      46.472   2.239   6.931  0.00  0.00    +0.000 NA
ATOM     14  C   UNL     1      47.915   2.285   6.710  0.00  0.00    +0.000 C 
ATOM     15  C   UNL     1      46.142   1.384   8.082  0.00  0.00    +0.000 C 
ENDBRANCH  10  11
ENDBRANCH   8  10
ENDBRANCH   1   4
BRANCH   1  16
ATOM     16  C   UNL     1      46.801   4.322  14.355  0.00  0.00    +0.000 C 
BRANCH  16  17
ATOM     17  N   UNL     1      46.973   4.810  15.739  0.00  0.00    +0.000 N 
ATOM     18  H   UNL     1      46.110   4.974  16.251  0.00  0.00    +0.000 HD
BRANCH  17  25
ATOM     19  C   UNL     1      48.776   7.047  16.324  0.00  0.00    +0.000 C 
ATOM     20  C   UNL     1      49.061   5.618  16.709  0.00  0.00    +0.000 A 
ATOM     21  C   UNL     1      50.306   5.338  17.310  0.00  0.00    +0.000 A 
ATOM     22  C   UNL     1      50.625   4.036  17.680  0.00  0.00    +0.000 A 
ATOM     23  C   UNL     1      49.696   3.015  17.538  0.00  0.00    +0.000 A 
ATOM     24  C   UNL     1      48.461   3.290  16.940  0.00  0.00    +0.000 A 
ATOM     25  C   UNL     1      48.121   4.580  16.494  0.00  0.00    +0.000 A 
BRANCH  22  26
ATOM     26  S   UNL     1      52.252   3.657  18.289  0.00  0.00    +0.000 S 
ATOM     27  C   UNL     1      53.268   4.836  17.439  0.00  0.00    +0.000 C 
ATOM     28  O   UNL     1      52.279   3.975  19.710  0.00  0.00    +0.000 OA
ATOM     29  O   UNL     1      52.598   2.332  17.819  0.00  0.00    +0.000 OA
ENDBRANCH  22  26
ENDBRANCH  17  25
ENDBRANCH  16  17
ENDBRANCH   1  16
TORSDOF 7
ENDMDL
MODEL 3
REMARK VINA RESULT:    -6.764      2.349      2.914
REMARK INTER + INTRA:         -10.602
REMARK INTER:                  -9.716
REMARK INTRA:                  -0.886
REMARK UNBOUND:                -1.069
REMARK  Name = 
REMARK  10 active torsions:
REMARK  status: ('A' for Active; 'I' for Inactive)
REMARK    1  A    between atoms: C_1  and  C_2
REMARK    2  A    between atoms: C_4  and  S_5
REMARK    3  A    between atoms: S_5  and  C_6
REMARK    4  A    between atoms: C_11  and  N_12
REMARK    5  A    between atoms: N_12  and  C_13
REMARK    6  A    between atoms: C_13  and  C_14
REMARK    7  A    between atoms: C_14  and  C_17
REMARK    8  A    between atoms: C_21  and  C_22
REMARK    9  A    between atoms: C_22  and  C_23
REMARK   10  A    between atoms: N_25  and  C_26
REMARK                            x       y       z     vdW  Elec       q    Type
REMARK                         _______ _______ _______ _____ _____    ______ ____
ROOT
ATOM      1  C   UNL     1      46.619   6.681  12.561  0.00  0.00    +0.000 C 
ATOM      2  F   UNL     1      47.312   7.342  11.584  0.00  0.00    +0.000 F 
ATOM      3  F   UNL     1      46.237   7.656  13.444  0.00  0.00    +0.000 F 
ENDROOT
BRANCH   1   4
ATOM      4  C   UNL     1      45.427   5.922  11.997  0.00  0.00    +0.000 A 
ATOM      5  C   UNL     1      44.226   5.847  12.716  0.00  0.00    +0.000 A 
ATOM      6  C   UNL     1      43.154   5.099  12.225  0.00  0.00    +0.000 A 
ATOM      7  C   UNL     1      43.252   4.449  10.994  0.00  0.00    +0.000 A 
ATOM      8  C   UNL     1      44.414   4.566  10.220  0.00  0.00    +0.000 A 
ATOM      9  C   UNL     1      45.506   5.280  10.745  0.00  0.00    +0.000 A 
BRANCH   8  10
ATOM     10  C   UNL     1      44.456   4.017   8.812  0.00  0.00    +0.000 C 
BRANCH  10  11
ATOM     11  C   UNL     1      45.823   3.460   8.442  0.00  0.00    +0.000 C 
ATOM     12  C   UNL     1      46.099   3.463   6.920  0.00  0.00    +0.000 C 
ATOM     13  N   UNL     1      46.441   2.034   6.965  0.00  0.00    +0.000 NA
ATOM     14  C   UNL     1      47.887   1.849   6.868  0.00  0.00    +0.000 C 
ATOM     15  C   UNL     1      45.988   1.928   8.361  0.00  0.00    +0.000 C 
ENDBRANCH  10  11
ENDBRANCH   8  10
ENDBRANCH   1   4
BRANCH   1  16
ATOM     16  C   UNL     1      47.598   5.722  13.300  0.00  0.00    +0.000 C 
BRANCH  16  17
ATOM     17  N   UNL     1      47.251   5.493  14.718  0.00  0.00    +0.000 N 
ATOM     18  H   UNL     1      46.469   4.863  14.877  0.00  0.00    +0.000 HD
BRANCH  17  25
ATOM     19  C   UNL     1      47.166   3.627  16.978  0.00  0.00    +0.000 C 
ATOM     20  C   UNL     1      48.081   4.823  16.912  0.00  0.00    +0.000 A 
ATOM     21  C   UNL     1      48.878   5.099  18.043  0.00  0.00    +0.000 A 
ATOM     22  C   UNL     1      49.736   6.194  18.040  0.00  0.00    +0.000 A 
ATOM     23  C   UNL     1      49.878   6.976  16.902  0.00  0.00    +0.000 A 
ATOM     24  C   UNL     1      49.087   6.704  15.781  0.00  0.00    +0.000 A 
ATOM     25  C   UNL     1      48.161   5.646  15.762  0.00  0.00    +0.000 A 
BRANCH  22  26
ATOM     26  S   UNL     1      50.621   6.636  19.519  0.00  0.00    +0.000 S 
ATOM     27  C   UNL     1      50.564   5.137  20.466  0.00  0.00    +0.000 C 
ATOM     28  O   UNL     1      52.007   6.887  19.148  0.00  0.00    +0.000 OA
ATOM     29  O   UNL     1      49.843   7.643  20.209  0.00  0.00    +0.000 OA
ENDBRANCH  22  26
ENDBRANCH  17  25
ENDBRANCH  16  17
ENDBRANCH   1  16
TORSDOF 7
ENDMDL
MODEL 4
REMARK VINA RESULT:    -6.677      4.637      8.625
REMARK INTER + INTRA:         -10.479
REMARK INTER:                  -9.687
REMARK INTRA:                  -0.792
REMARK UNBOUND:                -1.069
REMARK  Name = 
REMARK  10 active torsions:
REMARK  status: ('A' for Active; 'I' for Inactive)
REMARK    1  A    between atoms: C_1  and  C_2
REMARK    2  A    between atoms: C_4  and  S_5
REMARK    3  A    between atoms: S_5  and  C_6
REMARK    4  A    between atoms: C_11  and  N_12
REMARK    5  A    between atoms: N_12  and  C_13
REMARK    6  A    between atoms: C_13  and  C_14
REMARK    7  A    between atoms: C_14  and  C_17
REMARK    8  A    between atoms: C_21  and  C_22
REMARK    9  A    between atoms: C_22  and  C_23
REMARK   10  A    between atoms: N_25  and  C_26
REMARK                            x       y       z     vdW  Elec       q    Type
REMARK                         _______ _______ _______ _____ _____    ______ ____
ROOT
ATOM      1  C   UNL     1      47.846   3.248  16.988  0.00  0.00    +0.000 C 
ATOM      2  F   UNL     1      48.266   2.508  15.916  0.00  0.00    +0.000 F 
ATOM      3  F   UNL     1      46.998   2.422  17.676  0.00  0.00    +0.000 F 
ENDROOT
BRANCH   1   4
ATOM      4  C   UNL     1      49.012   3.714  17.847  0.00  0.00    +0.000 A 
ATOM      5  C   UNL     1      48.781   4.397  19.050  0.00  0.00    +0.000 A 
ATOM      6  C   UNL     1      49.851   4.878  19.806  0.00  0.00    +0.000 A 
ATOM      7  C   UNL     1      51.166   4.650  19.394  0.00  0.00    +0.000 A 
ATOM      8  C   UNL     1      51.427   3.907  18.235  0.00  0.00    +0.000 A 
ATOM      9  C   UNL     1      50.343   3.471  17.454  0.00  0.00    +0.000 A 
BRANCH   8  10
ATOM     10  C   UNL     1      52.842   3.505  17.885  0.00  0.00    +0.000 C 
BRANCH  10  11
ATOM     11  C   UNL     1      53.205   2.125  18.413  0.00  0.00    +0.000 C 
ATOM     12  C   UNL     1      54.559   1.597  17.882  0.00  0.00    +0.000 C 
ATOM     13  N   UNL     1      53.914   0.354  17.435  0.00  0.00    +0.000 NA
ATOM     14  C   UNL     1      54.243  -0.747  18.338  0.00  0.00    +0.000 C 
ATOM     15  C   UNL     1      52.577   0.894  17.728  0.00  0.00    +0.000 C 
ENDBRANCH  10  11
ENDBRANCH   8  10
ENDBRANCH   1   4
BRANCH   1  16
ATOM     16  C   UNL     1      47.016   4.456  16.462  0.00  0.00    +0.000 C 
BRANCH  16  17
ATOM     17  N   UNL     1      47.508   5.006  15.182  0.00  0.00    +0.000 N 
ATOM     18  H   UNL     1      48.502   5.221  15.156  0.00  0.00    +0.000 HD
BRANCH  17  25
ATOM     19  C   UNL     1      47.134   7.243  13.324  0.00  0.00    +0.000 C 
ATOM     20  C   UNL     1      46.595   5.856  13.085  0.00  0.00    +0.000 A 
ATOM     21  C   UNL     1      45.795   5.653  11.941  0.00  0.00    +0.000 A 
ATOM     22  C   UNL     1      45.266   4.394  11.674  0.00  0.00    +0.000 A 
ATOM     23  C   UNL     1      45.583   3.311  12.481  0.00  0.00    +0.000 A 
ATOM     24  C   UNL     1      46.374   3.511  13.618  0.00  0.00    +0.000 A 
ATOM     25  C   UNL     1      46.878   4.778  13.960  0.00  0.00    +0.000 A 
BRANCH  22  26
ATOM     26  S   UNL     1      44.130   4.174  10.323  0.00  0.00    +0.000 S 
ATOM     27  C   UNL     1      45.154   4.472   8.905  0.00  0.00    +0.000 C 
ATOM     28  O   UNL     1      43.727   2.775  10.306  0.00  0.00    +0.000 OA
ATOM     29  O   UNL     1      43.143   5.230  10.405  0.00  0.00    +0.000 OA
ENDBRANCH  22  26
ENDBRANCH  17  25
ENDBRANCH  16  17
ENDBRANCH   1  16
TORSDOF 7
ENDMDL
MODEL 5
REMARK VINA RESULT:    -6.487      4.206      7.822
REMARK INTER + INTRA:         -10.210
REMARK INTER:                  -8.861
REMARK INTRA:                  -1.349
REMARK UNBOUND:                -1.069
REMARK  Name = 
REMARK  10 active torsions:
REMARK  status: ('A' for Active; 'I' for Inactive)
REMARK    1  A    between atoms: C_1  and  C_2
REMARK    2  A    between atoms: C_4  and  S_5
REMARK    3  A    between atoms: S_5  and  C_6
REMARK    4  A    between atoms: C_11  and  N_12
REMARK    5  A    between atoms: N_12  and  C_13
REMARK    6  A    between atoms: C_13  and  C_14
REMARK    7  A    between atoms: C_14  and  C_17
REMARK    8  A    between atoms: C_21  and  C_22
REMARK    9  A    between atoms: C_22  and  C_23
REMARK   10  A    between atoms: N_25  and  C_26
REMARK                            x       y       z     vdW  Elec       q    Type
REMARK                         _______ _______ _______ _____ _____    ______ ____
ROOT
ATOM      1  C   UNL     1      49.826   7.442  15.764  0.00  0.00    +0.000 C 
ATOM      2  F   UNL     1      50.180   8.645  16.311  0.00  0.00    +0.000 F 
ATOM      3  F   UNL     1      50.949   7.008  15.110  0.00  0.00    +0.000 F 
ENDROOT
BRANCH   1   4
ATOM      4  C   UNL     1      49.364   6.452  16.823  0.00  0.00    +0.000 A 
ATOM      5  C   UNL     1      48.414   6.829  17.784  0.00  0.00    +0.000 A 
ATOM      6  C   UNL     1      48.037   5.939  18.791  0.00  0.00    +0.000 A 
ATOM      7  C   UNL     1      48.570   4.649  18.829  0.00  0.00    +0.000 A 
ATOM      8  C   UNL     1      49.465   4.221  17.840  0.00  0.00    +0.000 A 
ATOM      9  C   UNL     1      49.877   5.140  16.859  0.00  0.00    +0.000 A 
BRANCH   8  10
ATOM     10  C   UNL     1      49.902   2.775  17.775  0.00  0.00    +0.000 C 
BRANCH  10  11
ATOM     11  C   UNL     1      51.371   2.624  17.408  0.00  0.00    +0.000 C 
ATOM     12  C   UNL     1      51.896   1.175  17.546  0.00  0.00    +0.000 C 
ATOM     13  N   UNL     1      53.003   1.643  18.392  0.00  0.00    +0.000 NA
ATOM     14  C   UNL     1      54.256   1.647  17.641  0.00  0.00    +0.000 C 
ATOM     15  C   UNL     1      52.429   2.995  18.469  0.00  0.00    +0.000 C 
ENDBRANCH  10  11
ENDBRANCH   8  10
ENDBRANCH   1   4
BRANCH   1  16
ATOM     16  C   UNL     1      48.717   7.687  14.700  0.00  0.00    +0.000 C 
BRANCH  16  17
ATOM     17  N   UNL     1      48.477   6.531  13.811  0.00  0.00    +0.000 N 
ATOM     18  H   UNL     1      49.162   5.782  13.879  0.00  0.00    +0.000 HD
BRANCH  17  25
ATOM     19  C   UNL     1      46.998   4.324  15.051  0.00  0.00    +0.000 C 
ATOM     20  C   UNL     1      46.523   5.072  13.830  0.00  0.00    +0.000 A 
ATOM     21  C   UNL     1      45.340   4.622  13.208  0.00  0.00    +0.000 A 
ATOM     22  C   UNL     1      44.859   5.269  12.074  0.00  0.00    +0.000 A 
ATOM     23  C   UNL     1      45.487   6.409  11.594  0.00  0.00    +0.000 A 
ATOM     24  C   UNL     1      46.662   6.855  12.209  0.00  0.00    +0.000 A 
ATOM     25  C   UNL     1      47.219   6.194  13.318  0.00  0.00    +0.000 A 
BRANCH  22  26
ATOM     26  S   UNL     1      43.460   4.608  11.197  0.00  0.00    +0.000 S 
ATOM     27  C   UNL     1      43.390   2.936  11.786  0.00  0.00    +0.000 C 
ATOM     28  O   UNL     1      42.271   5.305  11.667  0.00  0.00    +0.000 OA
ATOM     29  O   UNL     1      43.798   4.583   9.790  0.00  0.00    +0.000 OA
ENDBRANCH  22  26
ENDBRANCH  17  25
ENDBRANCH  16  17
ENDBRANCH   1  16
TORSDOF 7
ENDMDL
MODEL 6
REMARK VINA RESULT:    -6.263      4.448      8.592
REMARK INTER + INTRA:          -9.895
REMARK INTER:                  -8.906
REMARK INTRA:                  -0.989
REMARK UNBOUND:                -1.069
REMARK  Name = 
REMARK  10 active torsions:
REMARK  status: ('A' for Active; 'I' for Inactive)
REMARK    1  A    between atoms: C_1  and  C_2
REMARK    2  A    between atoms: C_4  and  S_5
REMARK    3  A    between atoms: S_5  and  C_6
REMARK    4  A    between atoms: C_11  and  N_12
REMARK    5  A    between atoms: N_12  and  C_13
REMARK    6  A    between atoms: C_13  and  C_14
REMARK    7  A    between atoms: C_14  and  C_17
REMARK    8  A    between atoms: C_21  and  C_22
REMARK    9  A    between atoms: C_22  and  C_23
REMARK   10  A    between atoms: N_25  and  C_26
REMARK                            x       y       z     vdW  Elec       q    Type
REMARK                         _______ _______ _______ _____ _____    ______ ____
ROOT
ATOM      1  C   UNL     1      47.876   3.253  16.992  0.00  0.00    +0.000 C 
ATOM      2  F   UNL     1      48.371   2.520  15.948  0.00  0.00    +0.000 F 
ATOM      3  F   UNL     1      47.041   2.396  17.659  0.00  0.00    +0.000 F 
ENDROOT
BRANCH   1   4
ATOM      4  C   UNL     1      48.985   3.783  17.889  0.00  0.00    +0.000 A 
ATOM      5  C   UNL     1      48.687   4.310  19.154  0.00  0.00    +0.000 A 
ATOM      6  C   UNL     1      49.697   4.852  19.950  0.00  0.00    +0.000 A 
ATOM      7  C   UNL     1      51.023   4.840  19.513  0.00  0.00    +0.000 A 
ATOM      8  C   UNL     1      51.360   4.254  18.286  0.00  0.00    +0.000 A 
ATOM      9  C   UNL     1      50.329   3.755  17.469  0.00  0.00    +0.000 A 
BRANCH   8  10
ATOM     10  C   UNL     1      52.810   4.077  17.894  0.00  0.00    +0.000 C 
BRANCH  10  11
ATOM     11  C   UNL     1      53.541   5.403  17.744  0.00  0.00    +0.000 C 
ATOM     12  C   UNL     1      53.181   6.163  16.445  0.00  0.00    +0.000 C 
ATOM     13  N   UNL     1      54.606   6.278  16.102  0.00  0.00    +0.000 NA
ATOM     14  C   UNL     1      55.084   7.637  16.344  0.00  0.00    +0.000 C 
ATOM     15  C   UNL     1      54.987   5.381  17.204  0.00  0.00    +0.000 C 
ENDBRANCH  10  11
ENDBRANCH   8  10
ENDBRANCH   1   4
BRANCH   1  16
ATOM     16  C   UNL     1      47.012   4.414  16.419  0.00  0.00    +0.000 C 
BRANCH  16  17
ATOM     17  N   UNL     1      47.515   4.957  15.140  0.00  0.00    +0.000 N 
ATOM     18  H   UNL     1      48.511   5.162  15.118  0.00  0.00    +0.000 HD
BRANCH  17  25
ATOM     19  C   UNL     1      47.160   7.200  13.285  0.00  0.00    +0.000 C 
ATOM     20  C   UNL     1      46.614   5.816  13.042  0.00  0.00    +0.000 A 
ATOM     21  C   UNL     1      45.817   5.619  11.895  0.00  0.00    +0.000 A 
ATOM     22  C   UNL     1      45.281   4.364  11.624  0.00  0.00    +0.000 A 
ATOM     23  C   UNL     1      45.590   3.277  12.431  0.00  0.00    +0.000 A 
ATOM     24  C   UNL     1      46.378   3.471  13.570  0.00  0.00    +0.000 A 
ATOM     25  C   UNL     1      46.889   4.735  13.916  0.00  0.00    +0.000 A 
BRANCH  22  26
ATOM     26  S   UNL     1      44.149   4.152  10.269  0.00  0.00    +0.000 S 
ATOM     27  C   UNL     1      45.184   4.422   8.854  0.00  0.00    +0.000 C 
ATOM     28  O   UNL     1      43.722   2.760  10.261  0.00  0.00    +0.000 OA
ATOM     29  O   UNL     1      43.179   5.225  10.338  0.00  0.00    +0.000 OA
ENDBRANCH  22  26
ENDBRANCH  17  25
ENDBRANCH  16  17
ENDBRANCH   1  16
TORSDOF 7
ENDMDL
MODEL 7
REMARK VINA RESULT:    -6.230      3.901      7.098
REMARK INTER + INTRA:          -9.849
REMARK INTER:                  -8.897
REMARK INTRA:                  -0.952
REMARK UNBOUND:                -1.069
REMARK  Name = 
REMARK  10 active torsions:
REMARK  status: ('A' for Active; 'I' for Inactive)
REMARK    1  A    between atoms: C_1  and  C_2
REMARK    2  A    between atoms: C_4  and  S_5
REMARK    3  A    between atoms: S_5  and  C_6
REMARK    4  A    between atoms: C_11  and  N_12
REMARK    5  A    between atoms: N_12  and  C_13
REMARK    6  A    between atoms: C_13  and  C_14
REMARK    7  A    between atoms: C_14  and  C_17
REMARK    8  A    between atoms: C_21  and  C_22
REMARK    9  A    between atoms: C_22  and  C_23
REMARK   10  A    between atoms: N_25  and  C_26
REMARK                            x       y       z     vdW  Elec       q    Type
REMARK                         _______ _______ _______ _____ _____    ______ ____
ROOT
ATOM      1  C   UNL     1      49.469   8.056  15.675  0.00  0.00    +0.000 C 
ATOM      2  F   UNL     1      50.212   9.105  16.143  0.00  0.00    +0.000 F 
ATOM      3  F   UNL     1      50.365   7.258  15.013  0.00  0.00    +0.000 F 
ENDROOT
BRANCH   1   4
ATOM      4  C   UNL     1      48.765   7.313  16.800  0.00  0.00    +0.000 A 
ATOM      5  C   UNL     1      48.419   7.977  17.986  0.00  0.00    +0.000 A 
ATOM      6  C   UNL     1      47.829   7.279  19.041  0.00  0.00    +0.000 A 
ATOM      7  C   UNL     1      47.539   5.920  18.913  0.00  0.00    +0.000 A 
ATOM      8  C   UNL     1      47.807   5.247  17.713  0.00  0.00    +0.000 A 
ATOM      9  C   UNL     1      48.447   5.946  16.675  0.00  0.00    +0.000 A 
BRANCH   8  10
ATOM     10  C   UNL     1      47.330   3.826  17.509  0.00  0.00    +0.000 C 
BRANCH  10  11
ATOM     11  C   UNL     1      48.437   2.803  17.716  0.00  0.00    +0.000 C 
ATOM     12  C   UNL     1      49.839   3.435  17.885  0.00  0.00    +0.000 C 
ATOM     13  N   UNL     1      50.370   2.576  16.817  0.00  0.00    +0.000 NA
ATOM     14  C   UNL     1      51.179   1.497  17.380  0.00  0.00    +0.000 C 
ATOM     15  C   UNL     1      49.021   2.099  16.473  0.00  0.00    +0.000 C 
ENDBRANCH  10  11
ENDBRANCH   8  10
ENDBRANCH   1   4
BRANCH   1  16
ATOM     16  C   UNL     1      48.448   8.596  14.632  0.00  0.00    +0.000 C 
BRANCH  16  17
ATOM     17  N   UNL     1      48.382   7.797  13.391  0.00  0.00    +0.000 N 
ATOM     18  H   UNL     1      49.279   7.474  13.036  0.00  0.00    +0.000 HD
BRANCH  17  25
ATOM     19  C   UNL     1      46.141   9.218  12.144  0.00  0.00    +0.000 C 
ATOM     20  C   UNL     1      46.116   7.750  12.489  0.00  0.00    +0.000 A 
ATOM     21  C   UNL     1      44.912   7.048  12.273  0.00  0.00    +0.000 A 
ATOM     22  C   UNL     1      44.830   5.694  12.579  0.00  0.00    +0.000 A 
ATOM     23  C   UNL     1      45.949   5.002  13.022  0.00  0.00    +0.000 A 
ATOM     24  C   UNL     1      47.143   5.698  13.240  0.00  0.00    +0.000 A 
ATOM     25  C   UNL     1      47.253   7.079  13.003  0.00  0.00    +0.000 A 
BRANCH  22  26
ATOM     26  S   UNL     1      43.271   4.846  12.458  0.00  0.00    +0.000 S 
ATOM     27  C   UNL     1      43.743   3.258  11.823  0.00  0.00    +0.000 C 
ATOM     28  O   UNL     1      42.760   4.661  13.809  0.00  0.00    +0.000 OA
ATOM     29  O   UNL     1      42.481   5.525  11.452  0.00  0.00    +0.000 OA
ENDBRANCH  22  26
ENDBRANCH  17  25
ENDBRANCH  16  17
ENDBRANCH   1  16
TORSDOF 7
ENDMDL
MODEL 8
REMARK VINA RESULT:    -6.191      4.132      8.761
REMARK INTER + INTRA:          -9.794
REMARK INTER:                  -9.060
REMARK INTRA:                  -0.734
REMARK UNBOUND:                -1.069
REMARK  Name = 
REMARK  10 active torsions:
REMARK  status: ('A' for Active; 'I' for Inactive)
REMARK    1  A    between atoms: C_1  and  C_2
REMARK    2  A    between atoms: C_4  and  S_5
REMARK    3  A    between atoms: S_5  and  C_6
REMARK    4  A    between atoms: C_11  and  N_12
REMARK    5  A    between atoms: N_12  and  C_13
REMARK    6  A    between atoms: C_13  and  C_14
REMARK    7  A    between atoms: C_14  and  C_17
REMARK    8  A    between atoms: C_21  and  C_22
REMARK    9  A    between atoms: C_22  and  C_23
REMARK   10  A    between atoms: N_25  and  C_26
REMARK                            x       y       z     vdW  Elec       q    Type
REMARK                         _______ _______ _______ _____ _____    ______ ____
ROOT
ATOM      1  C   UNL     1      47.894   3.264  17.000  0.00  0.00    +0.000 C 
ATOM      2  F   UNL     1      48.331   2.490  15.959  0.00  0.00    +0.000 F 
ATOM      3  F   UNL     1      47.115   2.430  17.757  0.00  0.00    +0.000 F 
ENDROOT
BRANCH   1   4
ATOM      4  C   UNL     1      49.051   3.847  17.798  0.00  0.00    +0.000 A 
ATOM      5  C   UNL     1      50.375   3.500  17.491  0.00  0.00    +0.000 A 
ATOM      6  C   UNL     1      51.430   3.987  18.264  0.00  0.00    +0.000 A 
ATOM      7  C   UNL     1      51.184   4.858  19.327  0.00  0.00    +0.000 A 
ATOM      8  C   UNL     1      49.878   5.279  19.611  0.00  0.00    +0.000 A 
ATOM      9  C   UNL     1      48.817   4.744  18.859  0.00  0.00    +0.000 A 
BRANCH   8  10
ATOM     10  C   UNL     1      49.628   6.357  20.641  0.00  0.00    +0.000 C 
BRANCH  10  11
ATOM     11  C   UNL     1      49.345   7.713  20.011  0.00  0.00    +0.000 C 
ATOM     12  C   UNL     1      47.863   7.913  19.616  0.00  0.00    +0.000 C 
ATOM     13  N   UNL     1      48.262   8.280  18.250  0.00  0.00    +0.000 NA
ATOM     14  C   UNL     1      48.141   9.723  18.051  0.00  0.00    +0.000 C 
ATOM     15  C   UNL     1      49.660   7.901  18.512  0.00  0.00    +0.000 C 
ENDBRANCH  10  11
ENDBRANCH   8  10
ENDBRANCH   1   4
BRANCH   1  16
ATOM     16  C   UNL     1      46.980   4.389  16.432  0.00  0.00    +0.000 C 
BRANCH  16  17
ATOM     17  N   UNL     1      47.469   4.974  15.167  0.00  0.00    +0.000 N 
ATOM     18  H   UNL     1      48.456   5.219  15.156  0.00  0.00    +0.000 HD
BRANCH  17  25
ATOM     19  C   UNL     1      47.083   7.225  13.327  0.00  0.00    +0.000 C 
ATOM     20  C   UNL     1      46.571   5.831  13.067  0.00  0.00    +0.000 A 
ATOM     21  C   UNL     1      45.791   5.627  11.909  0.00  0.00    +0.000 A 
ATOM     22  C   UNL     1      45.286   4.363  11.622  0.00  0.00    +0.000 A 
ATOM     23  C   UNL     1      45.610   3.276  12.423  0.00  0.00    +0.000 A 
ATOM     24  C   UNL     1      46.382   3.478  13.572  0.00  0.00    +0.000 A 
ATOM     25  C   UNL     1      46.860   4.749  13.934  0.00  0.00    +0.000 A 
BRANCH  22  26
ATOM     26  S   UNL     1      44.173   4.138  10.254  0.00  0.00    +0.000 S 
ATOM     27  C   UNL     1      45.221   4.425   8.852  0.00  0.00    +0.000 C 
ATOM     28  O   UNL     1      43.766   2.739  10.238  0.00  0.00    +0.000 OA
ATOM     29  O   UNL     1      43.187   5.197  10.313  0.00  0.00    +0.000 OA
ENDBRANCH  22  26
ENDBRANCH  17  25
ENDBRANCH  16  17
ENDBRANCH   1  16
TORSDOF 7
ENDMDL
MODEL 9
REMARK VINA RESULT:    -5.732      3.962      7.481
REMARK INTER + INTRA:          -9.147
REMARK INTER:                  -7.941
REMARK INTRA:                  -1.206
REMARK UNBOUND:                -1.069
REMARK  Name = 
REMARK  10 active torsions:
REMARK  status: ('A' for Active; 'I' for Inactive)
REMARK    1  A    between atoms: C_1  and  C_2
REMARK    2  A    between atoms: C_4  and  S_5
REMARK    3  A    between atoms: S_5  and  C_6
REMARK    4  A    between atoms: C_11  and  N_12
REMARK    5  A    between atoms: N_12  and  C_13
REMARK    6  A    between atoms: C_13  and  C_14
REMARK    7  A    between atoms: C_14  and  C_17
REMARK    8  A    between atoms: C_21  and  C_22
REMARK    9  A    between atoms: C_22  and  C_23
REMARK   10  A    between atoms: N_25  and  C_26
REMARK                            x       y       z     vdW  Elec       q    Type
REMARK                         _______ _______ _______ _____ _____    ______ ____
ROOT
ATOM      1  C   UNL     1      49.626   8.806  14.414  0.00  0.00    +0.000 C 
ATOM      2  F   UNL     1      49.978  10.101  14.145  0.00  0.00    +0.000 F 
ATOM      3  F   UNL     1      50.772   8.082  14.219  0.00  0.00    +0.000 F 
ENDROOT
BRANCH   1   4
ATOM      4  C   UNL     1      49.082   8.646  15.826  0.00  0.00    +0.000 A 
ATOM      5  C   UNL     1      48.351   9.680  16.428  0.00  0.00    +0.000 A 
ATOM      6  C   UNL     1      47.906   9.556  17.746  0.00  0.00    +0.000 A 
ATOM      7  C   UNL     1      48.149   8.384  18.465  0.00  0.00    +0.000 A 
ATOM      8  C   UNL     1      48.813   7.307  17.864  0.00  0.00    +0.000 A 
ATOM      9  C   UNL     1      49.301   7.460  16.554  0.00  0.00    +0.000 A 
BRANCH   8  10
ATOM     10  C   UNL     1      48.917   5.977  18.576  0.00  0.00    +0.000 C 
BRANCH  10  11
ATOM     11  C   UNL     1      49.410   4.863  17.665  0.00  0.00    +0.000 C 
ATOM     12  C   UNL     1      48.635   3.535  17.839  0.00  0.00    +0.000 C 
ATOM     13  N   UNL     1      49.897   2.810  18.041  0.00  0.00    +0.000 NA
ATOM     14  C   UNL     1      50.243   2.039  16.849  0.00  0.00    +0.000 C 
ATOM     15  C   UNL     1      50.660   4.067  18.096  0.00  0.00    +0.000 C 
ENDBRANCH  10  11
ENDBRANCH   8  10
ENDBRANCH   1   4
BRANCH   1  16
ATOM     16  C   UNL     1      48.583   8.345  13.354  0.00  0.00    +0.000 C 
BRANCH  16  17
ATOM     17  N   UNL     1      48.434   6.878  13.261  0.00  0.00    +0.000 N 
ATOM     18  H   UNL     1      48.990   6.344  13.925  0.00  0.00    +0.000 HD
BRANCH  17  25
ATOM     19  C   UNL     1      47.118   4.764  14.810  0.00  0.00    +0.000 C 
ATOM     20  C   UNL     1      46.704   5.166  13.417  0.00  0.00    +0.000 A 
ATOM     21  C   UNL     1      45.678   4.420  12.800  0.00  0.00    +0.000 A 
ATOM     22  C   UNL     1      45.259   4.742  11.513  0.00  0.00    +0.000 A 
ATOM     23  C   UNL     1      45.785   5.845  10.856  0.00  0.00    +0.000 A 
ATOM     24  C   UNL     1      46.805   6.584  11.466  0.00  0.00    +0.000 A 
ATOM     25  C   UNL     1      47.302   6.256  12.739  0.00  0.00    +0.000 A 
BRANCH  22  26
ATOM     26  S   UNL     1      44.080   3.707  10.675  0.00  0.00    +0.000 S 
ATOM     27  C   UNL     1      43.352   2.792  12.009  0.00  0.00    +0.000 C 
ATOM     28  O   UNL     1      43.057   4.571  10.104  0.00  0.00    +0.000 OA
ATOM     29  O   UNL     1      44.823   2.785   9.841  0.00  0.00    +0.000 OA
ENDBRANCH  22  26
ENDBRANCH  17  25
ENDBRANCH  16  17
ENDBRANCH   1  16
TORSDOF 7
ENDMDL
