MODEL 1
REMARK VINA RESULT:    -8.260      0.000      0.000
REMARK INTER + INTRA:         -11.451
REMARK INTER:                 -10.674
REMARK INTRA:                  -0.777
REMARK UNBOUND:                -0.777
REMARK  Name = 
REMARK  6 active torsions:
REMARK  status: ('A' for Active; 'I' for Inactive)
REMARK    1  A    between atoms: C_1  and  N_2
REMARK    2  A    between atoms: N_5  and  C_6
REMARK    3  A    between atoms: C_10  and  C_11
REMARK    4  A    between atoms: C_11  and  O_12
REMARK    5  A    between atoms: O_12  and  C_13
REMARK    6  A    between atoms: C_16  and  C_17
REMARK                            x       y       z     vdW  Elec       q    Type
REMARK                         _______ _______ _______ _____ _____    ______ ____
ROOT
ATOM      1  C   UNL     1      46.207   5.932  13.368  0.00  0.00    +0.000 A 
ATOM      2  C   UNL     1      46.139   7.241  12.888  0.00  0.00    +0.000 A 
ATOM      3  N   UNL     1      45.284   7.685  11.929  0.00  0.00    +0.000 NA
ATOM      4  C   UNL     1      44.444   6.767  11.407  0.00  0.00    +0.000 A 
ATOM      5  C   UNL     1      44.414   5.434  11.784  0.00  0.00    +0.000 A 
ATOM      6  C   UNL     1      45.325   5.028  12.764  0.00  0.00    +0.000 A 
ENDROOT
BRANCH   1  11
ATOM      7  C   UNL     1      49.028   4.698  18.005  0.00  0.00    +0.000 C 
ATOM      8  N   UNL     1      48.753   4.757  16.573  0.00  0.00    +0.000 NA
ATOM      9  C   UNL     1      47.495   4.038  16.255  0.00  0.00    +0.000 C 
ATOM     10  C   UNL     1      47.157   4.090  14.746  0.00  0.00    +0.000 C 
ATOM     11  N   UNL     1      47.090   5.495  14.328  0.00  0.00    +0.000 N 
ATOM     12  C   UNL     1      48.312   6.267  14.614  0.00  0.00    +0.000 C 
ATOM     13  C   UNL     1      48.638   6.163  16.122  0.00  0.00    +0.000 C 
ENDBRANCH   1  11
BRANCH   5  14
ATOM     14  C   UNL     1      43.443   4.466  11.178  0.00  0.00    +0.000 C 
BRANCH  14  15
ATOM     15  O   UNL     1      43.490   4.545   9.752  0.00  0.00    +0.000 OA
BRANCH  15  16
ATOM     16  C   UNL     1      44.464   3.804   9.141  0.00  0.00    +0.000 A 
ATOM     17  C   UNL     1      44.651   2.429   9.273  0.00  0.00    +0.000 A 
ATOM     18  C   UNL     1      45.679   1.799   8.572  0.00  0.00    +0.000 A 
ATOM     19  C   UNL     1      46.497   2.569   7.759  0.00  0.00    +0.000 A 
ATOM     20  N   UNL     1      46.358   3.915   7.608  0.00  0.00    +0.000 NA
ATOM     21  C   UNL     1      45.344   4.491   8.305  0.00  0.00    +0.000 A 
BRANCH  19  22
ATOM     22  C   UNL     1      47.595   1.908   6.983  0.00  0.00    +0.000 C 
ATOM     23  N   UNL     1      48.538   2.744   6.451  0.00  0.00    +0.000 N 
ATOM     24  O   UNL     1      47.648   0.696   6.823  0.00  0.00    +0.000 OA
ATOM     25  H   UNL     1      48.456   3.746   6.595  0.00  0.00    +0.000 HD
ATOM     26  H   UNL     1      49.294   2.362   5.908  0.00  0.00    +0.000 HD
ENDBRANCH  19  22
ENDBRANCH  15  16
ENDBRANCH  14  15
ENDBRANCH   5  14
TORSDOF 5
ENDMDL
MODEL 2
REMARK VINA RESULT:    -8.173      2.048      3.533
REMARK INTER + INTRA:         -11.339
REMARK INTER:                 -10.644
REMARK INTRA:                  -0.695
REMARK UNBOUND:                -0.777
REMARK  Name = 
REMARK  6 active torsions:
REMARK  status: ('A' for Active; 'I' for Inactive)
REMARK    1  A    between atoms: C_1  and  N_2
REMARK    2  A    between atoms: N_5  and  C_6
REMARK    3  A    between atoms: C_10  and  C_11
REMARK    4  A    between atoms: C_11  and  O_12
REMARK    5  A    between atoms: O_12  and  C_13
REMARK    6  A    between atoms: C_16  and  C_17
REMARK                            x       y       z     vdW  Elec       q    Type
REMARK                         _______ _______ _______ _____ _____    ______ ____
ROOT
ATOM      1  C   UNL     1      46.502   5.976  12.651  0.00  0.00    +0.000 A 
ATOM      2  C   UNL     1      46.837   4.903  13.477  0.00  0.00    +0.000 A 
ATOM      3  N   UNL     1      46.182   3.712  13.526  0.00  0.00    +0.000 NA
ATOM      4  C   UNL     1      45.121   3.581  12.704  0.00  0.00    +0.000 A 
ATOM      5  C   UNL     1      44.675   4.570  11.842  0.00  0.00    +0.000 A 
ATOM      6  C   UNL     1      45.376   5.780  11.843  0.00  0.00    +0.000 A 
ENDROOT
BRANCH   1  11
ATOM      7  C   UNL     1      48.998  10.785  11.374  0.00  0.00    +0.000 C 
ATOM      8  N   UNL     1      48.542   9.691  12.224  0.00  0.00    +0.000 NA
ATOM      9  C   UNL     1      47.062   9.590  12.194  0.00  0.00    +0.000 C 
ATOM     10  C   UNL     1      46.536   8.429  13.071  0.00  0.00    +0.000 C 
ATOM     11  N   UNL     1      47.166   7.181  12.626  0.00  0.00    +0.000 N 
ATOM     12  C   UNL     1      48.639   7.214  12.634  0.00  0.00    +0.000 C 
ATOM     13  C   UNL     1      49.127   8.405  11.777  0.00  0.00    +0.000 C 
ENDBRANCH   1  11
BRANCH   5  14
ATOM     14  C   UNL     1      43.497   4.356  10.939  0.00  0.00    +0.000 C 
BRANCH  14  15
ATOM     15  O   UNL     1      43.604   3.095  10.278  0.00  0.00    +0.000 OA
BRANCH  15  16
ATOM     16  C   UNL     1      44.542   3.014   9.286  0.00  0.00    +0.000 A 
ATOM     17  C   UNL     1      44.919   4.046   8.427  0.00  0.00    +0.000 A 
ATOM     18  C   UNL     1      45.909   3.825   7.471  0.00  0.00    +0.000 A 
ATOM     19  C   UNL     1      46.493   2.569   7.397  0.00  0.00    +0.000 A 
ATOM     20  N   UNL     1      46.150   1.530   8.208  0.00  0.00    +0.000 NA
ATOM     21  C   UNL     1      45.184   1.786   9.128  0.00  0.00    +0.000 A 
BRANCH  19  22
ATOM     22  C   UNL     1      47.571   2.318   6.388  0.00  0.00    +0.000 C 
ATOM     23  N   UNL     1      47.545   3.114   5.276  0.00  0.00    +0.000 N 
ATOM     24  O   UNL     1      48.421   1.451   6.537  0.00  0.00    +0.000 OA
ATOM     25  H   UNL     1      46.817   3.817   5.181  0.00  0.00    +0.000 HD
ATOM     26  H   UNL     1      48.234   2.986   4.554  0.00  0.00    +0.000 HD
ENDBRANCH  19  22
ENDBRANCH  15  16
ENDBRANCH  14  15
ENDBRANCH   5  14
TORSDOF 5
ENDMDL
MODEL 3
REMARK VINA RESULT:    -8.129      1.918      2.862
REMARK INTER + INTRA:         -11.281
REMARK INTER:                 -10.598
REMARK INTRA:                  -0.683
REMARK UNBOUND:                -0.777
REMARK  Name = 
REMARK  6 active torsions:
REMARK  status: ('A' for Active; 'I' for Inactive)
REMARK    1  A    between atoms: C_1  and  N_2
REMARK    2  A    between atoms: N_5  and  C_6
REMARK    3  A    between atoms: C_10  and  C_11
REMARK    4  A    between atoms: C_11  and  O_12
REMARK    5  A    between atoms: O_12  and  C_13
REMARK    6  A    between atoms: C_16  and  C_17
REMARK                            x       y       z     vdW  Elec       q    Type
REMARK                         _______ _______ _______ _____ _____    ______ ____
ROOT
ATOM      1  C   UNL     1      46.912   5.906  12.856  0.00  0.00    +0.000 A 
ATOM      2  C   UNL     1      46.734   4.884  13.789  0.00  0.00    +0.000 A 
ATOM      3  N   UNL     1      45.705   3.995  13.796  0.00  0.00    +0.000 NA
ATOM      4  C   UNL     1      44.790   4.135  12.815  0.00  0.00    +0.000 A 
ATOM      5  C   UNL     1      44.840   5.111  11.834  0.00  0.00    +0.000 A 
ATOM      6  C   UNL     1      45.911   6.008  11.882  0.00  0.00    +0.000 A 
ENDROOT
BRANCH   1  11
ATOM      7  C   UNL     1      51.793   8.581  12.970  0.00  0.00    +0.000 C 
ATOM      8  N   UNL     1      50.342   8.430  12.955  0.00  0.00    +0.000 NA
ATOM      9  C   UNL     1      49.904   7.735  11.720  0.00  0.00    +0.000 C 
ATOM     10  C   UNL     1      48.370   7.539  11.671  0.00  0.00    +0.000 C 
ATOM     11  N   UNL     1      47.951   6.809  12.872  0.00  0.00    +0.000 N 
ATOM     12  C   UNL     1      48.353   7.449  14.137  0.00  0.00    +0.000 C 
ATOM     13  C   UNL     1      49.885   7.661  14.135  0.00  0.00    +0.000 C 
ENDBRANCH   1  11
BRANCH   5  14
ATOM     14  C   UNL     1      43.799   5.203  10.759  0.00  0.00    +0.000 C 
BRANCH  14  15
ATOM     15  O   UNL     1      43.547   3.911  10.203  0.00  0.00    +0.000 OA
BRANCH  15  16
ATOM     16  C   UNL     1      44.506   3.425   9.356  0.00  0.00    +0.000 A 
ATOM     17  C   UNL     1      44.995   2.120   9.335  0.00  0.00    +0.000 A 
ATOM     18  C   UNL     1      45.963   1.758   8.400  0.00  0.00    +0.000 A 
ATOM     19  C   UNL     1      46.420   2.719   7.510  0.00  0.00    +0.000 A 
ATOM     20  N   UNL     1      45.978   4.008   7.500  0.00  0.00    +0.000 NA
ATOM     21  C   UNL     1      45.033   4.320   8.426  0.00  0.00    +0.000 A 
BRANCH  19  22
ATOM     22  C   UNL     1      47.446   2.345   6.486  0.00  0.00    +0.000 C 
ATOM     23  N   UNL     1      47.430   3.075   5.329  0.00  0.00    +0.000 N 
ATOM     24  O   UNL     1      48.247   1.436   6.660  0.00  0.00    +0.000 OA
ATOM     25  H   UNL     1      46.743   3.815   5.214  0.00  0.00    +0.000 HD
ATOM     26  H   UNL     1      48.085   2.864   4.595  0.00  0.00    +0.000 HD
ENDBRANCH  19  22
ENDBRANCH  15  16
ENDBRANCH  14  15
ENDBRANCH   5  14
TORSDOF 5
ENDMDL
MODEL 4
REMARK VINA RESULT:    -7.182      2.768      7.582
REMARK INTER + INTRA:         -10.057
REMARK INTER:                  -9.692
REMARK INTRA:                  -0.365
REMARK UNBOUND:                -0.777
REMARK  Name = 
REMARK  6 active torsions:
REMARK  status: ('A' for Active; 'I' for Inactive)
REMARK    1  A    between atoms: C_1  and  N_2
REMARK    2  A    between atoms: N_5  and  C_6
REMARK    3  A    between atoms: C_10  and  C_11
REMARK    4  A    between atoms: C_11  and  O_12
REMARK    5  A    between atoms: O_12  and  C_13
REMARK    6  A    between atoms: C_16  and  C_17
REMARK                            x       y       z     vdW  Elec       q    Type
REMARK                         _______ _______ _______ _____ _____    ______ ____
ROOT
ATOM      1  C   UNL     1      44.620   4.187  10.503  0.00  0.00    +0.000 A 
ATOM      2  C   UNL     1      43.408   3.907  11.135  0.00  0.00    +0.000 A 
ATOM      3  N   UNL     1      42.950   4.513  12.263  0.00  0.00    +0.000 NA
ATOM      4  C   UNL     1      43.751   5.456  12.801  0.00  0.00    +0.000 A 
ATOM      5  C   UNL     1      44.982   5.822  12.282  0.00  0.00    +0.000 A 
ATOM      6  C   UNL     1      45.411   5.157  11.130  0.00  0.00    +0.000 A 
ENDROOT
BRANCH   1  11
ATOM      7  C   UNL     1      47.519   1.651   6.485  0.00  0.00    +0.000 C 
ATOM      8  N   UNL     1      46.357   2.251   7.130  0.00  0.00    +0.000 NA
ATOM      9  C   UNL     1      46.018   1.521   8.376  0.00  0.00    +0.000 C 
ATOM     10  C   UNL     1      44.799   2.137   9.103  0.00  0.00    +0.000 C 
ATOM     11  N   UNL     1      45.077   3.552   9.371  0.00  0.00    +0.000 N 
ATOM     12  C   UNL     1      45.418   4.337   8.171  0.00  0.00    +0.000 C 
ATOM     13  C   UNL     1      46.617   3.673   7.453  0.00  0.00    +0.000 C 
ENDBRANCH   1  11
BRANCH   5  14
ATOM     14  C   UNL     1      45.819   6.891  12.918  0.00  0.00    +0.000 C 
BRANCH  14  15
ATOM     15  O   UNL     1      47.176   6.458  13.028  0.00  0.00    +0.000 OA
BRANCH  15  16
ATOM     16  C   UNL     1      47.500   5.785  14.175  0.00  0.00    +0.000 A 
ATOM     17  C   UNL     1      48.210   6.304  15.256  0.00  0.00    +0.000 A 
ATOM     18  C   UNL     1      48.453   5.506  16.373  0.00  0.00    +0.000 A 
ATOM     19  C   UNL     1      47.980   4.201  16.373  0.00  0.00    +0.000 A 
ATOM     20  N   UNL     1      47.292   3.650  15.335  0.00  0.00    +0.000 NA
ATOM     21  C   UNL     1      47.074   4.461  14.267  0.00  0.00    +0.000 A 
BRANCH  19  22
ATOM     22  C   UNL     1      48.215   3.334  17.571  0.00  0.00    +0.000 C 
ATOM     23  N   UNL     1      47.113   2.698  18.073  0.00  0.00    +0.000 N 
ATOM     24  O   UNL     1      49.319   3.204  18.081  0.00  0.00    +0.000 OA
ATOM     25  H   UNL     1      46.209   2.839  17.630  0.00  0.00    +0.000 HD
ATOM     26  H   UNL     1      47.202   2.112  18.886  0.00  0.00    +0.000 HD
ENDBRANCH  19  22
ENDBRANCH  15  16
ENDBRANCH  14  15
ENDBRANCH   5  14
TORSDOF 5
ENDMDL
MODEL 5
REMARK VINA RESULT:    -7.163      2.016      2.599
REMARK INTER + INTRA:         -10.033
REMARK INTER:                  -9.370
REMARK INTRA:                  -0.663
REMARK UNBOUND:                -0.777
REMARK  Name = 
REMARK  6 active torsions:
REMARK  status: ('A' for Active; 'I' for Inactive)
REMARK    1  A    between atoms: C_1  and  N_2
REMARK    2  A    between atoms: N_5  and  C_6
REMARK    3  A    between atoms: C_10  and  C_11
REMARK    4  A    between atoms: C_11  and  O_12
REMARK    5  A    between atoms: O_12  and  C_13
REMARK    6  A    between atoms: C_16  and  C_17
REMARK                            x       y       z     vdW  Elec       q    Type
REMARK                         _______ _______ _______ _____ _____    ______ ____
ROOT
ATOM      1  C   UNL     1      47.081   7.426  12.445  0.00  0.00    +0.000 A 
ATOM      2  C   UNL     1      46.237   8.510  12.202  0.00  0.00    +0.000 A 
ATOM      3  N   UNL     1      44.947   8.425  11.781  0.00  0.00    +0.000 NA
ATOM      4  C   UNL     1      44.465   7.180  11.582  0.00  0.00    +0.000 A 
ATOM      5  C   UNL     1      45.199   6.021  11.774  0.00  0.00    +0.000 A 
ATOM      6  C   UNL     1      46.524   6.167  12.194  0.00  0.00    +0.000 A 
ENDROOT
BRANCH   1  11
ATOM      7  C   UNL     1      52.115   9.002  14.223  0.00  0.00    +0.000 C 
ATOM      8  N   UNL     1      51.088   8.094  13.724  0.00  0.00    +0.000 NA
ATOM      9  C   UNL     1      49.954   8.015  14.677  0.00  0.00    +0.000 C 
ATOM     10  C   UNL     1      48.833   7.073  14.177  0.00  0.00    +0.000 C 
ATOM     11  N   UNL     1      48.391   7.530  12.855  0.00  0.00    +0.000 N 
ATOM     12  C   UNL     1      49.471   7.628  11.858  0.00  0.00    +0.000 C 
ATOM     13  C   UNL     1      50.587   8.547  12.405  0.00  0.00    +0.000 C 
ENDBRANCH   1  11
BRANCH   5  14
ATOM     14  C   UNL     1      44.600   4.664  11.552  0.00  0.00    +0.000 C 
BRANCH  14  15
ATOM     15  O   UNL     1      44.132   4.543  10.208  0.00  0.00    +0.000 OA
BRANCH  15  16
ATOM     16  C   UNL     1      44.951   3.868   9.345  0.00  0.00    +0.000 A 
ATOM     17  C   UNL     1      45.152   2.489   9.315  0.00  0.00    +0.000 A 
ATOM     18  C   UNL     1      46.006   1.933   8.364  0.00  0.00    +0.000 A 
ATOM     19  C   UNL     1      46.643   2.780   7.468  0.00  0.00    +0.000 A 
ATOM     20  N   UNL     1      46.485   4.133   7.467  0.00  0.00    +0.000 NA
ATOM     21  C   UNL     1      45.643   4.634   8.408  0.00  0.00    +0.000 A 
BRANCH  19  22
ATOM     22  C   UNL     1      47.550   2.200   6.427  0.00  0.00    +0.000 C 
ATOM     23  N   UNL     1      47.843   3.016   5.368  0.00  0.00    +0.000 N 
ATOM     24  O   UNL     1      47.998   1.064   6.504  0.00  0.00    +0.000 OA
ATOM     25  H   UNL     1      47.443   3.950   5.331  0.00  0.00    +0.000 HD
ATOM     26  H   UNL     1      48.436   2.680   4.628  0.00  0.00    +0.000 HD
ENDBRANCH  19  22
ENDBRANCH  15  16
ENDBRANCH  14  15
ENDBRANCH   5  14
TORSDOF 5
ENDMDL
MODEL 6
REMARK VINA RESULT:    -6.513      3.097      7.522
REMARK INTER + INTRA:          -9.193
REMARK INTER:                  -8.538
REMARK INTRA:                  -0.655
REMARK UNBOUND:                -0.777
REMARK  Name = 
REMARK  6 active torsions:
REMARK  status: ('A' for Active; 'I' for Inactive)
REMARK    1  A    between atoms: C_1  and  N_2
REMARK    2  A    between atoms: N_5  and  C_6
REMARK    3  A    between atoms: C_10  and  C_11
REMARK    4  A    between atoms: C_11  and  O_12
REMARK    5  A    between atoms: O_12  and  C_13
REMARK    6  A    between atoms: C_16  and  C_17
REMARK                            x       y       z     vdW  Elec       q    Type
REMARK                         _______ _______ _______ _____ _____    ______ ____
ROOT
ATOM      1  C   UNL     1      44.720   4.104  10.584  0.00  0.00    +0.000 A 
ATOM      2  C   UNL     1      43.456   4.656  10.797  0.00  0.00    +0.000 A 
ATOM      3  N   UNL     1      43.033   5.230  11.955  0.00  0.00    +0.000 NA
ATOM      4  C   UNL     1      43.922   5.252  12.970  0.00  0.00    +0.000 A 
ATOM      5  C   UNL     1      45.203   4.731  12.895  0.00  0.00    +0.000 A 
ATOM      6  C   UNL     1      45.582   4.140  11.687  0.00  0.00    +0.000 A 
ENDROOT
BRANCH   1  11
ATOM      7  C   UNL     1      47.446   1.743   6.344  0.00  0.00    +0.000 C 
ATOM      8  N   UNL     1      46.309   2.301   7.068  0.00  0.00    +0.000 NA
ATOM      9  C   UNL     1      46.052   1.529   8.308  0.00  0.00    +0.000 C 
ATOM     10  C   UNL     1      44.862   2.099   9.116  0.00  0.00    +0.000 C 
ATOM     11  N   UNL     1      45.127   3.511   9.411  0.00  0.00    +0.000 N 
ATOM     12  C   UNL     1      45.389   4.336   8.218  0.00  0.00    +0.000 C 
ATOM     13  C   UNL     1      46.559   3.719   7.418  0.00  0.00    +0.000 C 
ENDBRANCH   1  11
BRANCH   5  14
ATOM     14  C   UNL     1      46.152   4.803  14.055  0.00  0.00    +0.000 C 
BRANCH  14  15
ATOM     15  O   UNL     1      47.488   5.000  13.590  0.00  0.00    +0.000 OA
BRANCH  15  16
ATOM     16  C   UNL     1      47.876   6.300  13.411  0.00  0.00    +0.000 A 
ATOM     17  C   UNL     1      47.883   6.994  12.202  0.00  0.00    +0.000 A 
ATOM     18  C   UNL     1      48.287   8.328  12.171  0.00  0.00    +0.000 A 
ATOM     19  C   UNL     1      48.680   8.931  13.357  0.00  0.00    +0.000 A 
ATOM     20  N   UNL     1      48.699   8.289  14.559  0.00  0.00    +0.000 NA
ATOM     21  C   UNL     1      48.295   6.991  14.546  0.00  0.00    +0.000 A 
BRANCH  19  22
ATOM     22  C   UNL     1      49.100  10.368  13.348  0.00  0.00    +0.000 C 
ATOM     23  N   UNL     1      48.089  11.285  13.258  0.00  0.00    +0.000 N 
ATOM     24  O   UNL     1      50.273  10.710  13.406  0.00  0.00    +0.000 OA
ATOM     25  H   UNL     1      47.126  10.964  13.200  0.00  0.00    +0.000 HD
ATOM     26  H   UNL     1      48.306  12.268  13.233  0.00  0.00    +0.000 HD
ENDBRANCH  19  22
ENDBRANCH  15  16
ENDBRANCH  14  15
ENDBRANCH   5  14
TORSDOF 5
ENDMDL
MODEL 7
REMARK VINA RESULT:    -6.321      3.903      7.989
REMARK INTER + INTRA:          -8.945
REMARK INTER:                  -8.261
REMARK INTRA:                  -0.684
REMARK UNBOUND:                -0.777
REMARK  Name = 
REMARK  6 active torsions:
REMARK  status: ('A' for Active; 'I' for Inactive)
REMARK    1  A    between atoms: C_1  and  N_2
REMARK    2  A    between atoms: N_5  and  C_6
REMARK    3  A    between atoms: C_10  and  C_11
REMARK    4  A    between atoms: C_11  and  O_12
REMARK    5  A    between atoms: O_12  and  C_13
REMARK    6  A    between atoms: C_16  and  C_17
REMARK                            x       y       z     vdW  Elec       q    Type
REMARK                         _______ _______ _______ _____ _____    ______ ____
ROOT
ATOM      1  C   UNL     1      47.610   6.342  12.979  0.00  0.00    +0.000 A 
ATOM      2  C   UNL     1      48.540   7.117  12.287  0.00  0.00    +0.000 A 
ATOM      3  N   UNL     1      49.593   7.771  12.846  0.00  0.00    +0.000 NA
ATOM      4  C   UNL     1      49.727   7.651  14.184  0.00  0.00    +0.000 A 
ATOM      5  C   UNL     1      48.869   6.922  14.991  0.00  0.00    +0.000 A 
ATOM      6  C   UNL     1      47.795   6.282  14.366  0.00  0.00    +0.000 A 
ENDROOT
BRANCH   1  11
ATOM      7  C   UNL     1      44.124   3.097  10.097  0.00  0.00    +0.000 C 
ATOM      8  N   UNL     1      44.527   4.176  10.993  0.00  0.00    +0.000 NA
ATOM      9  C   UNL     1      45.244   3.633  12.172  0.00  0.00    +0.000 C 
ATOM     10  C   UNL     1      45.705   4.747  13.141  0.00  0.00    +0.000 C 
ATOM     11  N   UNL     1      46.540   5.699  12.400  0.00  0.00    +0.000 N 
ATOM     12  C   UNL     1      45.884   6.279  11.215  0.00  0.00    +0.000 C 
ATOM     13  C   UNL     1      45.406   5.137  10.288  0.00  0.00    +0.000 C 
ENDBRANCH   1  11
BRANCH   5  14
ATOM     14  C   UNL     1      49.082   6.814  16.471  0.00  0.00    +0.000 C 
BRANCH  14  15
ATOM     15  O   UNL     1      48.448   5.638  16.978  0.00  0.00    +0.000 OA
BRANCH  15  16
ATOM     16  C   UNL     1      49.257   4.549  17.155  0.00  0.00    +0.000 A 
ATOM     17  C   UNL     1      48.856   3.214  17.107  0.00  0.00    +0.000 A 
ATOM     18  C   UNL     1      49.797   2.202  17.288  0.00  0.00    +0.000 A 
ATOM     19  C   UNL     1      51.119   2.556  17.519  0.00  0.00    +0.000 A 
ATOM     20  N   UNL     1      51.553   3.846  17.584  0.00  0.00    +0.000 NA
ATOM     21  C   UNL     1      50.606   4.802  17.400  0.00  0.00    +0.000 A 
BRANCH  19  22
ATOM     22  C   UNL     1      52.147   1.482  17.697  0.00  0.00    +0.000 C 
ATOM     23  N   UNL     1      51.672   0.259  18.084  0.00  0.00    +0.000 N 
ATOM     24  O   UNL     1      53.341   1.680  17.519  0.00  0.00    +0.000 OA
ATOM     25  H   UNL     1      50.675   0.134  18.233  0.00  0.00    +0.000 HD
ATOM     26  H   UNL     1      52.314  -0.501  18.234  0.00  0.00    +0.000 HD
ENDBRANCH  19  22
ENDBRANCH  15  16
ENDBRANCH  14  15
ENDBRANCH   5  14
TORSDOF 5
ENDMDL
MODEL 8
REMARK VINA RESULT:    -5.716      2.878      4.780
REMARK INTER + INTRA:          -8.163
REMARK INTER:                  -7.471
REMARK INTRA:                  -0.692
REMARK UNBOUND:                -0.777
REMARK  Name = 
REMARK  6 active torsions:
REMARK  status: ('A' for Active; 'I' for Inactive)
REMARK    1  A    between atoms: C_1  and  N_2
REMARK    2  A    between atoms: N_5  and  C_6
REMARK    3  A    between atoms: C_10  and  C_11
REMARK    4  A    between atoms: C_11  and  O_12
REMARK    5  A    between atoms: O_12  and  C_13
REMARK    6  A    between atoms: C_16  and  C_17
REMARK                            x       y       z     vdW  Elec       q    Type
REMARK                         _______ _______ _______ _____ _____    ______ ____
ROOT
ATOM      1  C   UNL     1      49.136   6.526  16.463  0.00  0.00    +0.000 A 
ATOM      2  C   UNL     1      49.087   7.746  17.138  0.00  0.00    +0.000 A 
ATOM      3  N   UNL     1      48.640   8.918  16.615  0.00  0.00    +0.000 NA
ATOM      4  C   UNL     1      48.218   8.878  15.334  0.00  0.00    +0.000 A 
ATOM      5  C   UNL     1      48.222   7.737  14.548  0.00  0.00    +0.000 A 
ATOM      6  C   UNL     1      48.706   6.562  15.131  0.00  0.00    +0.000 A 
ENDROOT
BRANCH   1  11
ATOM      7  C   UNL     1      51.293   1.502  17.510  0.00  0.00    +0.000 C 
ATOM      8  N   UNL     1      50.646   2.777  17.805  0.00  0.00    +0.000 NA
ATOM      9  C   UNL     1      51.536   3.908  17.446  0.00  0.00    +0.000 C 
ATOM     10  C   UNL     1      50.881   5.281  17.727  0.00  0.00    +0.000 C 
ATOM     11  N   UNL     1      49.608   5.351  17.002  0.00  0.00    +0.000 N 
ATOM     12  C   UNL     1      48.675   4.255  17.315  0.00  0.00    +0.000 C 
ATOM     13  C   UNL     1      49.374   2.900  17.056  0.00  0.00    +0.000 C 
ENDBRANCH   1  11
BRANCH   5  14
ATOM     14  C   UNL     1      47.722   7.753  13.134  0.00  0.00    +0.000 C 
BRANCH  14  15
ATOM     15  O   UNL     1      46.296   7.671  13.112  0.00  0.00    +0.000 OA
BRANCH  15  16
ATOM     16  C   UNL     1      45.769   6.492  12.660  0.00  0.00    +0.000 A 
ATOM     17  C   UNL     1      45.698   5.298  13.377  0.00  0.00    +0.000 A 
ATOM     18  C   UNL     1      45.114   4.174  12.794  0.00  0.00    +0.000 A 
ATOM     19  C   UNL     1      44.620   4.277  11.501  0.00  0.00    +0.000 A 
ATOM     20  N   UNL     1      44.678   5.419  10.761  0.00  0.00    +0.000 NA
ATOM     21  C   UNL     1      45.252   6.492  11.366  0.00  0.00    +0.000 A 
BRANCH  19  22
ATOM     22  C   UNL     1      43.973   3.086  10.865  0.00  0.00    +0.000 C 
ATOM     23  N   UNL     1      44.427   2.754   9.618  0.00  0.00    +0.000 N 
ATOM     24  O   UNL     1      43.085   2.448  11.415  0.00  0.00    +0.000 OA
ATOM     25  H   UNL     1      45.158   3.313   9.187  0.00  0.00    +0.000 HD
ATOM     26  H   UNL     1      44.023   1.972   9.131  0.00  0.00    +0.000 HD
ENDBRANCH  19  22
ENDBRANCH  15  16
ENDBRANCH  14  15
ENDBRANCH   5  14
TORSDOF 5
ENDMDL
MODEL 9
REMARK VINA RESULT:    -5.640      2.935      4.780
REMARK INTER + INTRA:          -8.065
REMARK INTER:                  -7.460
REMARK INTRA:                  -0.604
REMARK UNBOUND:                -0.777
REMARK  Name = 
REMARK  6 active torsions:
REMARK  status: ('A' for Active; 'I' for Inactive)
REMARK    1  A    between atoms: C_1  and  N_2
REMARK    2  A    between atoms: N_5  and  C_6
REMARK    3  A    between atoms: C_10  and  C_11
REMARK    4  A    between atoms: C_11  and  O_12
REMARK    5  A    between atoms: O_12  and  C_13
REMARK    6  A    between atoms: C_16  and  C_17
REMARK                            x       y       z     vdW  Elec       q    Type
REMARK                         _______ _______ _______ _____ _____    ______ ____
ROOT
ATOM      1  C   UNL     1      49.667   7.115  15.810  0.00  0.00    +0.000 A 
ATOM      2  C   UNL     1      50.916   7.701  15.605  0.00  0.00    +0.000 A 
ATOM      3  N   UNL     1      51.380   8.171  14.416  0.00  0.00    +0.000 NA
ATOM      4  C   UNL     1      50.550   8.046  13.361  0.00  0.00    +0.000 A 
ATOM      5  C   UNL     1      49.289   7.475  13.423  0.00  0.00    +0.000 A 
ATOM      6  C   UNL     1      48.868   6.995  14.667  0.00  0.00    +0.000 A 
ENDROOT
BRANCH   1  11
ATOM      7  C   UNL     1      48.989   4.810  20.831  0.00  0.00    +0.000 C 
ATOM      8  N   UNL     1      48.598   5.472  19.591  0.00  0.00    +0.000 NA
ATOM      9  C   UNL     1      49.285   6.780  19.461  0.00  0.00    +0.000 C 
ATOM     10  C   UNL     1      48.912   7.509  18.148  0.00  0.00    +0.000 C 
ATOM     11  N   UNL     1      49.219   6.628  17.017  0.00  0.00    +0.000 N 
ATOM     12  C   UNL     1      48.563   5.311  17.084  0.00  0.00    +0.000 C 
ATOM     13  C   UNL     1      48.931   4.627  18.421  0.00  0.00    +0.000 C 
ENDBRANCH   1  11
BRANCH   5  14
ATOM     14  C   UNL     1      48.406   7.381  12.215  0.00  0.00    +0.000 C 
BRANCH  14  15
ATOM     15  O   UNL     1      47.033   7.351  12.607  0.00  0.00    +0.000 OA
BRANCH  15  16
ATOM     16  C   UNL     1      46.342   6.214  12.287  0.00  0.00    +0.000 A 
ATOM     17  C   UNL     1      46.079   5.146  13.144  0.00  0.00    +0.000 A 
ATOM     18  C   UNL     1      45.342   4.055  12.685  0.00  0.00    +0.000 A 
ATOM     19  C   UNL     1      44.892   4.062  11.373  0.00  0.00    +0.000 A 
ATOM     20  N   UNL     1      45.134   5.078  10.498  0.00  0.00    +0.000 NA
ATOM     21  C   UNL     1      45.853   6.123  10.985  0.00  0.00    +0.000 A 
BRANCH  19  22
ATOM     22  C   UNL     1      44.084   2.907  10.867  0.00  0.00    +0.000 C 
ATOM     23  N   UNL     1      44.635   2.199   9.834  0.00  0.00    +0.000 N 
ATOM     24  O   UNL     1      42.993   2.613  11.336  0.00  0.00    +0.000 OA
ATOM     25  H   UNL     1      45.538   2.478   9.462  0.00  0.00    +0.000 HD
ATOM     26  H   UNL     1      44.135   1.419   9.441  0.00  0.00    +0.000 HD
ENDBRANCH  19  22
ENDBRANCH  15  16
ENDBRANCH  14  15
ENDBRANCH   5  14
TORSDOF 5
ENDMDL
