MODEL 1
REMARK VINA RESULT:    -8.810      0.000      0.000
REMARK INTER + INTRA:         -12.513
REMARK INTER:                 -11.900
REMARK INTRA:                  -0.613
REMARK UNBOUND:                -0.613
REMARK  Name = 
REMARK  7 active torsions:
REMARK  status: ('A' for Active; 'I' for Inactive)
REMARK    1  A    between atoms: C_1  and  C_2
REMARK    2  A    between atoms: C_2  and  N_3
REMARK    3  A    between atoms: C_2  and  C_12
REMARK    4  A    between atoms: C_4  and  C_6
REMARK    5  A    between atoms: C_15  and  C_16
REMARK    6  A    between atoms: C_16  and  N_17
REMARK    7  A    between atoms: C_18  and  C_20
REMARK                            x       y       z     vdW  Elec       q    Type
REMARK                         _______ _______ _______ _____ _____    ______ ____
ROOT
ATOM      1  C   UNL     1      45.030   5.656  11.560  0.00  0.00    +0.000 A 
ATOM      2  C   UNL     1      46.020   6.485  11.007  0.00  0.00    +0.000 A 
ATOM      3  C   UNL     1      47.182   6.797  11.724  0.00  0.00    +0.000 A 
ATOM      4  C   UNL     1      47.391   6.271  13.004  0.00  0.00    +0.000 A 
ATOM      5  C   UNL     1      46.424   5.418  13.547  0.00  0.00    +0.000 A 
ATOM      6  C   UNL     1      45.267   5.103  12.828  0.00  0.00    +0.000 A 
ENDROOT
BRANCH   1   8
ATOM      7  C   UNL     1      42.697   4.618  11.571  0.00  0.00    +0.000 C 
ATOM      8  C   UNL     1      43.767   5.370  10.764  0.00  0.00    +0.000 C 
BRANCH   8   9
ATOM      9  N   UNL     1      44.112   4.620   9.570  0.00  0.00    +0.000 N 
ATOM     10  C   UNL     1      44.437   3.279   9.596  0.00  0.00    +0.000 C 
ATOM     11  O   UNL     1      44.261   2.557  10.567  0.00  0.00    +0.000 OA
ATOM     12  H   UNL     1      44.256   5.146   8.718  0.00  0.00    +0.000 HD
BRANCH  10  13
ATOM     13  C   UNL     1      45.121   2.824   8.314  0.00  0.00    +0.000 C 
ATOM     14  C   UNL     1      46.009   3.970   7.806  0.00  0.00    +0.000 C 
ATOM     15  C   UNL     1      46.778   3.549   6.562  0.00  0.00    +0.000 C 
ATOM     16  C   UNL     1      47.537   2.247   6.796  0.00  0.00    +0.000 C 
ATOM     17  N   UNL     1      46.647   1.183   7.264  0.00  0.00    +0.000 NA
ATOM     18  C   UNL     1      45.965   1.560   8.513  0.00  0.00    +0.000 C 
ATOM     19  H   UNL     1      47.194   0.338   7.426  0.00  0.00    +0.000 HD
ENDBRANCH  10  13
ENDBRANCH   8   9
ENDBRANCH   1   8
BRANCH   4  20
ATOM     20  C   UNL     1      48.592   6.659  13.824  0.00  0.00    +0.000 C 
BRANCH  20  21
ATOM     21  N   UNL     1      48.232   6.845  15.208  0.00  0.00    +0.000 N 
ATOM     22  C   UNL     1      49.135   6.611  16.212  0.00  0.00    +0.000 C 
ATOM     23  O   UNL     1      50.294   6.279  15.975  0.00  0.00    +0.000 OA
ATOM     24  H   UNL     1      47.241   6.903  15.427  0.00  0.00    +0.000 HD
BRANCH  22  25
ATOM     25  C   UNL     1      48.670   6.833  17.588  0.00  0.00    +0.000 A 
ATOM     26  C   UNL     1      48.244   8.099  17.968  0.00  0.00    +0.000 A 
ATOM     27  S   UNL     1      47.704   8.185  19.582  0.00  0.00    +0.000 S 
ATOM     28  C   UNL     1      48.065   6.545  19.849  0.00  0.00    +0.000 A 
ATOM     29  N   UNL     1      47.861   5.974  21.067  0.00  0.00    +0.000 NA
ATOM     30  C   UNL     1      48.205   4.731  21.137  0.00  0.00    +0.000 A 
ATOM     31  N   UNL     1      48.725   4.004  20.093  0.00  0.00    +0.000 N 
ATOM     32  C   UNL     1      48.920   4.533  18.838  0.00  0.00    +0.000 A 
ATOM     33  O   UNL     1      49.347   3.846  17.917  0.00  0.00    +0.000 OA
ATOM     34  C   UNL     1      48.568   5.933  18.712  0.00  0.00    +0.000 A 
ATOM     35  H   UNL     1      48.961   3.031  20.213  0.00  0.00    +0.000 HD
ENDBRANCH  22  25
ENDBRANCH  20  21
ENDBRANCH   4  20
TORSDOF 6
ENDMDL
MODEL 2
REMARK VINA RESULT:    -8.562      1.235      1.906
REMARK INTER + INTRA:         -12.179
REMARK INTER:                 -11.409
REMARK INTRA:                  -0.769
REMARK UNBOUND:                -0.613
REMARK  Name = 
REMARK  7 active torsions:
REMARK  status: ('A' for Active; 'I' for Inactive)
REMARK    1  A    between atoms: C_1  and  C_2
REMARK    2  A    between atoms: C_2  and  N_3
REMARK    3  A    between atoms: C_2  and  C_12
REMARK    4  A    between atoms: C_4  and  C_6
REMARK    5  A    between atoms: C_15  and  C_16
REMARK    6  A    between atoms: C_16  and  N_17
REMARK    7  A    between atoms: C_18  and  C_20
REMARK                            x       y       z     vdW  Elec       q    Type
REMARK                         _______ _______ _______ _____ _____    ______ ____
ROOT
ATOM      1  C   UNL     1      44.981   5.656  11.551  0.00  0.00    +0.000 A 
ATOM      2  C   UNL     1      45.978   6.476  10.997  0.00  0.00    +0.000 A 
ATOM      3  C   UNL     1      47.122   6.814  11.730  0.00  0.00    +0.000 A 
ATOM      4  C   UNL     1      47.306   6.324  13.028  0.00  0.00    +0.000 A 
ATOM      5  C   UNL     1      46.332   5.481  13.573  0.00  0.00    +0.000 A 
ATOM      6  C   UNL     1      45.193   5.139  12.838  0.00  0.00    +0.000 A 
ENDROOT
BRANCH   1   8
ATOM      7  C   UNL     1      42.682   4.545  11.520  0.00  0.00    +0.000 C 
ATOM      8  C   UNL     1      43.736   5.341  10.736  0.00  0.00    +0.000 C 
BRANCH   8   9
ATOM      9  N   UNL     1      44.120   4.618   9.537  0.00  0.00    +0.000 N 
ATOM     10  C   UNL     1      44.463   3.281   9.546  0.00  0.00    +0.000 C 
ATOM     11  O   UNL     1      44.274   2.538  10.499  0.00  0.00    +0.000 OA
ATOM     12  H   UNL     1      44.276   5.161   8.698  0.00  0.00    +0.000 HD
BRANCH  10  13
ATOM     13  C   UNL     1      45.182   2.859   8.271  0.00  0.00    +0.000 C 
ATOM     14  C   UNL     1      46.087   4.016   7.821  0.00  0.00    +0.000 C 
ATOM     15  C   UNL     1      46.890   3.627   6.589  0.00  0.00    +0.000 C 
ATOM     16  C   UNL     1      47.639   2.317   6.808  0.00  0.00    +0.000 C 
ATOM     17  N   UNL     1      46.734   1.243   7.221  0.00  0.00    +0.000 NA
ATOM     18  C   UNL     1      46.017   1.587   8.460  0.00  0.00    +0.000 C 
ATOM     19  H   UNL     1      47.274   0.392   7.375  0.00  0.00    +0.000 HD
ENDBRANCH  10  13
ENDBRANCH   8   9
ENDBRANCH   1   8
BRANCH   4  20
ATOM     20  C   UNL     1      48.487   6.742  13.863  0.00  0.00    +0.000 C 
BRANCH  20  21
ATOM     21  N   UNL     1      48.227   6.528  15.265  0.00  0.00    +0.000 N 
ATOM     22  C   UNL     1      49.253   6.337  16.154  0.00  0.00    +0.000 C 
ATOM     23  O   UNL     1      50.429   6.385  15.804  0.00  0.00    +0.000 OA
ATOM     24  H   UNL     1      47.279   6.271  15.530  0.00  0.00    +0.000 HD
BRANCH  22  25
ATOM     25  C   UNL     1      48.883   6.130  17.561  0.00  0.00    +0.000 A 
ATOM     26  C   UNL     1      49.071   4.882  18.139  0.00  0.00    +0.000 A 
ATOM     27  S   UNL     1      48.626   4.813  19.783  0.00  0.00    +0.000 S 
ATOM     28  C   UNL     1      48.120   6.436  19.771  0.00  0.00    +0.000 A 
ATOM     29  N   UNL     1      47.592   7.011  20.885  0.00  0.00    +0.000 NA
ATOM     30  C   UNL     1      47.223   8.240  20.728  0.00  0.00    +0.000 A 
ATOM     31  N   UNL     1      47.345   8.948  19.557  0.00  0.00    +0.000 N 
ATOM     32  C   UNL     1      47.899   8.414  18.416  0.00  0.00    +0.000 A 
ATOM     33  O   UNL     1      48.032   9.086  17.398  0.00  0.00    +0.000 OA
ATOM     34  C   UNL     1      48.312   7.031  18.535  0.00  0.00    +0.000 A 
ATOM     35  H   UNL     1      47.048   9.909  19.505  0.00  0.00    +0.000 HD
ENDBRANCH  22  25
ENDBRANCH  20  21
ENDBRANCH   4  20
TORSDOF 6
ENDMDL
MODEL 3
REMARK VINA RESULT:    -8.316      2.265      2.392
REMARK INTER + INTRA:         -11.846
REMARK INTER:                 -10.943
REMARK INTRA:                  -0.903
REMARK UNBOUND:                -0.613
REMARK  Name = 
REMARK  7 active torsions:
REMARK  status: ('A' for Active; 'I' for Inactive)
REMARK    1  A    between atoms: C_1  and  C_2
REMARK    2  A    between atoms: C_2  and  N_3
REMARK    3  A    between atoms: C_2  and  C_12
REMARK    4  A    between atoms: C_4  and  C_6
REMARK    5  A    between atoms: C_15  and  C_16
REMARK    6  A    between atoms: C_16  and  N_17
REMARK    7  A    between atoms: C_18  and  C_20
REMARK                            x       y       z     vdW  Elec       q    Type
REMARK                         _______ _______ _______ _____ _____    ______ ____
ROOT
ATOM      1  C   UNL     1      44.831   5.939  11.589  0.00  0.00    +0.000 A 
ATOM      2  C   UNL     1      44.741   7.336  11.703  0.00  0.00    +0.000 A 
ATOM      3  C   UNL     1      45.669   8.057  12.464  0.00  0.00    +0.000 A 
ATOM      4  C   UNL     1      46.721   7.400  13.113  0.00  0.00    +0.000 A 
ATOM      5  C   UNL     1      46.835   6.013  12.975  0.00  0.00    +0.000 A 
ATOM      6  C   UNL     1      45.911   5.295  12.211  0.00  0.00    +0.000 A 
ENDROOT
BRANCH   1   8
ATOM      7  C   UNL     1      42.664   4.589  11.648  0.00  0.00    +0.000 C 
ATOM      8  C   UNL     1      43.783   5.188  10.782  0.00  0.00    +0.000 C 
BRANCH   8   9
ATOM      9  N   UNL     1      44.431   4.143  10.009  0.00  0.00    +0.000 N 
ATOM     10  C   UNL     1      45.297   4.410   8.968  0.00  0.00    +0.000 C 
ATOM     11  O   UNL     1      45.762   5.517   8.739  0.00  0.00    +0.000 OA
ATOM     12  H   UNL     1      44.114   3.194  10.156  0.00  0.00    +0.000 HD
BRANCH  10  13
ATOM     13  C   UNL     1      45.535   3.191   8.087  0.00  0.00    +0.000 C 
ATOM     14  C   UNL     1      46.775   3.456   7.220  0.00  0.00    +0.000 C 
ATOM     15  C   UNL     1      47.109   2.241   6.366  0.00  0.00    +0.000 C 
ATOM     16  C   UNL     1      47.219   0.981   7.218  0.00  0.00    +0.000 C 
ATOM     17  N   UNL     1      46.009   0.763   8.015  0.00  0.00    +0.000 NA
ATOM     18  C   UNL     1      45.732   1.907   8.900  0.00  0.00    +0.000 C 
ATOM     19  H   UNL     1      46.130  -0.075   8.582  0.00  0.00    +0.000 HD
ENDBRANCH  10  13
ENDBRANCH   8   9
ENDBRANCH   1   8
BRANCH   4  20
ATOM     20  C   UNL     1      47.680   8.146  14.003  0.00  0.00    +0.000 C 
BRANCH  20  21
ATOM     21  N   UNL     1      48.531   7.231  14.722  0.00  0.00    +0.000 N 
ATOM     22  C   UNL     1      48.990   7.531  15.979  0.00  0.00    +0.000 C 
ATOM     23  O   UNL     1      48.661   8.563  16.558  0.00  0.00    +0.000 OA
ATOM     24  H   UNL     1      48.980   6.493  14.186  0.00  0.00    +0.000 HD
BRANCH  22  25
ATOM     25  C   UNL     1      49.848   6.530  16.628  0.00  0.00    +0.000 A 
ATOM     26  C   UNL     1      51.119   6.896  17.054  0.00  0.00    +0.000 A 
ATOM     27  S   UNL     1      51.975   5.635  17.818  0.00  0.00    +0.000 S 
ATOM     28  C   UNL     1      50.698   4.540  17.564  0.00  0.00    +0.000 A 
ATOM     29  N   UNL     1      50.801   3.244  17.965  0.00  0.00    +0.000 NA
ATOM     30  C   UNL     1      49.770   2.517  17.684  0.00  0.00    +0.000 A 
ATOM     31  N   UNL     1      48.641   2.974  17.049  0.00  0.00    +0.000 N 
ATOM     32  C   UNL     1      48.484   4.283  16.654  0.00  0.00    +0.000 A 
ATOM     33  O   UNL     1      47.446   4.668  16.126  0.00  0.00    +0.000 OA
ATOM     34  C   UNL     1      49.622   5.136  16.928  0.00  0.00    +0.000 A 
ATOM     35  H   UNL     1      47.866   2.355  16.872  0.00  0.00    +0.000 HD
ENDBRANCH  22  25
ENDBRANCH  20  21
ENDBRANCH   4  20
TORSDOF 6
ENDMDL
MODEL 4
REMARK VINA RESULT:    -7.812      4.980      9.704
REMARK INTER + INTRA:         -11.165
REMARK INTER:                 -10.078
REMARK INTRA:                  -1.087
REMARK UNBOUND:                -0.613
REMARK  Name = 
REMARK  7 active torsions:
REMARK  status: ('A' for Active; 'I' for Inactive)
REMARK    1  A    between atoms: C_1  and  C_2
REMARK    2  A    between atoms: C_2  and  N_3
REMARK    3  A    between atoms: C_2  and  C_12
REMARK    4  A    between atoms: C_4  and  C_6
REMARK    5  A    between atoms: C_15  and  C_16
REMARK    6  A    between atoms: C_16  and  N_17
REMARK    7  A    between atoms: C_18  and  C_20
REMARK                            x       y       z     vdW  Elec       q    Type
REMARK                         _______ _______ _______ _____ _____    ______ ____
ROOT
ATOM      1  C   UNL     1      51.430   3.292  17.856  0.00  0.00    +0.000 A 
ATOM      2  C   UNL     1      50.694   4.442  18.186  0.00  0.00    +0.000 A 
ATOM      3  C   UNL     1      49.321   4.519  17.923  0.00  0.00    +0.000 A 
ATOM      4  C   UNL     1      48.646   3.439  17.340  0.00  0.00    +0.000 A 
ATOM      5  C   UNL     1      49.368   2.279  17.040  0.00  0.00    +0.000 A 
ATOM      6  C   UNL     1      50.737   2.202  17.308  0.00  0.00    +0.000 A 
ENDROOT
BRANCH   1   8
ATOM      7  C   UNL     1      53.688   4.416  17.457  0.00  0.00    +0.000 C 
ATOM      8  C   UNL     1      52.926   3.261  18.125  0.00  0.00    +0.000 C 
BRANCH   8   9
ATOM      9  N   UNL     1      53.465   1.986  17.687  0.00  0.00    +0.000 N 
ATOM     10  C   UNL     1      54.211   1.166  18.510  0.00  0.00    +0.000 C 
ATOM     11  O   UNL     1      54.306   1.323  19.719  0.00  0.00    +0.000 OA
ATOM     12  H   UNL     1      53.407   1.773  16.700  0.00  0.00    +0.000 HD
BRANCH  10  13
ATOM     13  C   UNL     1      54.972   0.102  17.731  0.00  0.00    +0.000 C 
ATOM     14  C   UNL     1      54.547  -1.278  18.255  0.00  0.00    +0.000 C 
ATOM     15  C   UNL     1      55.220  -2.389  17.464  0.00  0.00    +0.000 C 
ATOM     16  C   UNL     1      55.000  -2.212  15.965  0.00  0.00    +0.000 C 
ATOM     17  N   UNL     1      55.433  -0.889  15.511  0.00  0.00    +0.000 NA
ATOM     18  C   UNL     1      54.721   0.186  16.221  0.00  0.00    +0.000 C 
ATOM     19  H   UNL     1      55.252  -0.804  14.511  0.00  0.00    +0.000 HD
ENDBRANCH  10  13
ENDBRANCH   8   9
ENDBRANCH   1   8
BRANCH   4  20
ATOM     20  C   UNL     1      47.190   3.532  16.973  0.00  0.00    +0.000 C 
BRANCH  20  21
ATOM     21  N   UNL     1      46.978   4.537  15.960  0.00  0.00    +0.000 N 
ATOM     22  C   UNL     1      47.095   4.235  14.628  0.00  0.00    +0.000 C 
ATOM     23  O   UNL     1      47.340   3.094  14.243  0.00  0.00    +0.000 OA
ATOM     24  H   UNL     1      46.992   5.509  16.258  0.00  0.00    +0.000 HD
BRANCH  22  25
ATOM     25  C   UNL     1      46.856   5.328  13.676  0.00  0.00    +0.000 A 
ATOM     26  C   UNL     1      47.898   6.186  13.348  0.00  0.00    +0.000 A 
ATOM     27  S   UNL     1      47.472   7.378  12.207  0.00  0.00    +0.000 S 
ATOM     28  C   UNL     1      45.865   6.822  12.145  0.00  0.00    +0.000 A 
ATOM     29  N   UNL     1      44.943   7.441  11.359  0.00  0.00    +0.000 NA
ATOM     30  C   UNL     1      43.756   6.933  11.430  0.00  0.00    +0.000 A 
ATOM     31  N   UNL     1      43.414   5.854  12.208  0.00  0.00    +0.000 N 
ATOM     32  C   UNL     1      44.321   5.181  12.994  0.00  0.00    +0.000 A 
ATOM     33  O   UNL     1      43.992   4.195  13.645  0.00  0.00    +0.000 OA
ATOM     34  C   UNL     1      45.664   5.725  12.965  0.00  0.00    +0.000 A 
ATOM     35  H   UNL     1      42.470   5.499  12.207  0.00  0.00    +0.000 HD
ENDBRANCH  22  25
ENDBRANCH  20  21
ENDBRANCH   4  20
TORSDOF 6
ENDMDL
MODEL 5
REMARK VINA RESULT:    -7.736      2.669      3.280
REMARK INTER + INTRA:         -11.062
REMARK INTER:                  -9.816
REMARK INTRA:                  -1.247
REMARK UNBOUND:                -0.613
REMARK  Name = 
REMARK  7 active torsions:
REMARK  status: ('A' for Active; 'I' for Inactive)
REMARK    1  A    between atoms: C_1  and  C_2
REMARK    2  A    between atoms: C_2  and  N_3
REMARK    3  A    between atoms: C_2  and  C_12
REMARK    4  A    between atoms: C_4  and  C_6
REMARK    5  A    between atoms: C_15  and  C_16
REMARK    6  A    between atoms: C_16  and  N_17
REMARK    7  A    between atoms: C_18  and  C_20
REMARK                            x       y       z     vdW  Elec       q    Type
REMARK                         _______ _______ _______ _____ _____    ______ ____
ROOT
ATOM      1  C   UNL     1      46.327   5.977  12.254  0.00  0.00    +0.000 A 
ATOM      2  C   UNL     1      46.825   5.801  13.556  0.00  0.00    +0.000 A 
ATOM      3  C   UNL     1      47.928   6.533  14.011  0.00  0.00    +0.000 A 
ATOM      4  C   UNL     1      48.549   7.474  13.182  0.00  0.00    +0.000 A 
ATOM      5  C   UNL     1      48.037   7.678  11.896  0.00  0.00    +0.000 A 
ATOM      6  C   UNL     1      46.932   6.951  11.445  0.00  0.00    +0.000 A 
ENDROOT
BRANCH   1   8
ATOM      7  C   UNL     1      44.713   4.078  12.808  0.00  0.00    +0.000 C 
ATOM      8  C   UNL     1      45.150   5.138  11.785  0.00  0.00    +0.000 C 
BRANCH   8   9
ATOM      9  N   UNL     1      45.485   4.505  10.522  0.00  0.00    +0.000 N 
ATOM     10  C   UNL     1      44.552   4.270   9.532  0.00  0.00    +0.000 C 
ATOM     11  O   UNL     1      43.429   4.752   9.529  0.00  0.00    +0.000 OA
ATOM     12  H   UNL     1      46.407   4.098  10.438  0.00  0.00    +0.000 HD
BRANCH  10  13
ATOM     13  C   UNL     1      45.050   3.274   8.493  0.00  0.00    +0.000 C 
ATOM     14  C   UNL     1      46.162   3.945   7.673  0.00  0.00    +0.000 C 
ATOM     15  C   UNL     1      46.752   2.972   6.662  0.00  0.00    +0.000 C 
ATOM     16  C   UNL     1      47.188   1.675   7.335  0.00  0.00    +0.000 C 
ATOM     17  N   UNL     1      46.093   1.066   8.092  0.00  0.00    +0.000 NA
ATOM     18  C   UNL     1      45.576   1.980   9.124  0.00  0.00    +0.000 C 
ATOM     19  H   UNL     1      46.430   0.214   8.540  0.00  0.00    +0.000 HD
ENDBRANCH  10  13
ENDBRANCH   8   9
ENDBRANCH   1   8
BRANCH   4  20
ATOM     20  C   UNL     1      49.785   8.211  13.622  0.00  0.00    +0.000 C 
BRANCH  20  21
ATOM     21  N   UNL     1      50.649   7.350  14.392  0.00  0.00    +0.000 N 
ATOM     22  C   UNL     1      51.583   7.870  15.250  0.00  0.00    +0.000 C 
ATOM     23  O   UNL     1      51.692   9.081  15.431  0.00  0.00    +0.000 OA
ATOM     24  H   UNL     1      50.723   6.380  14.098  0.00  0.00    +0.000 HD
BRANCH  22  25
ATOM     25  C   UNL     1      52.412   6.909  15.991  0.00  0.00    +0.000 A 
ATOM     26  C   UNL     1      53.795   6.979  15.886  0.00  0.00    +0.000 A 
ATOM     27  S   UNL     1      54.614   5.820  16.831  0.00  0.00    +0.000 S 
ATOM     28  C   UNL     1      53.149   5.151  17.378  0.00  0.00    +0.000 A 
ATOM     29  N   UNL     1      53.141   4.080  18.217  0.00  0.00    +0.000 NA
ATOM     30  C   UNL     1      51.961   3.656  18.530  0.00  0.00    +0.000 A 
ATOM     31  N   UNL     1      50.787   4.217  18.088  0.00  0.00    +0.000 N 
ATOM     32  C   UNL     1      50.749   5.319  17.264  0.00  0.00    +0.000 A 
ATOM     33  O   UNL     1      49.684   5.821  16.921  0.00  0.00    +0.000 OA
ATOM     34  C   UNL     1      52.049   5.820  16.867  0.00  0.00    +0.000 A 
ATOM     35  H   UNL     1      49.898   3.845  18.382  0.00  0.00    +0.000 HD
ENDBRANCH  22  25
ENDBRANCH  20  21
ENDBRANCH   4  20
TORSDOF 6
ENDMDL
MODEL 6
REMARK VINA RESULT:    -7.527      4.965      8.597
REMARK INTER + INTRA:         -10.780
REMARK INTER:                  -9.618
REMARK INTRA:                  -1.162
REMARK UNBOUND:                -0.613
REMARK  Name = 
REMARK  7 active torsions:
REMARK  status: ('A' for Active; 'I' for Inactive)
REMARK    1  A    between atoms: C_1  and  C_2
REMARK    2  A    between atoms: C_2  and  N_3
REMARK    3  A    between atoms: C_2  and  C_12
REMARK    4  A    between atoms: C_4  and  C_6
REMARK    5  A    between atoms: C_15  and  C_16
REMARK    6  A    between atoms: C_16  and  N_17
REMARK    7  A    between atoms: C_18  and  C_20
REMARK                            x       y       z     vdW  Elec       q    Type
REMARK                         _______ _______ _______ _____ _____    ______ ____
ROOT
ATOM      1  C   UNL     1      50.370   9.092  11.280  0.00  0.00    +0.000 A 
ATOM      2  C   UNL     1      50.060   7.758  11.597  0.00  0.00    +0.000 A 
ATOM      3  C   UNL     1      48.815   7.418  12.139  0.00  0.00    +0.000 A 
ATOM      4  C   UNL     1      47.842   8.399  12.361  0.00  0.00    +0.000 A 
ATOM      5  C   UNL     1      48.133   9.724  12.017  0.00  0.00    +0.000 A 
ATOM      6  C   UNL     1      49.374  10.062  11.470  0.00  0.00    +0.000 A 
ENDROOT
BRANCH   1   8
ATOM      7  C   UNL     1      51.784  10.755   9.956  0.00  0.00    +0.000 C 
ATOM      8  C   UNL     1      51.745   9.426  10.726  0.00  0.00    +0.000 C 
BRANCH   8   9
ATOM      9  N   UNL     1      52.195   8.341   9.872  0.00  0.00    +0.000 N 
ATOM     10  C   UNL     1      53.497   7.883   9.866  0.00  0.00    +0.000 C 
ATOM     11  O   UNL     1      54.328   8.189  10.709  0.00  0.00    +0.000 OA
ATOM     12  H   UNL     1      51.554   8.017   9.159  0.00  0.00    +0.000 HD
BRANCH  10  13
ATOM     13  C   UNL     1      53.804   7.029   8.643  0.00  0.00    +0.000 C 
ATOM     14  C   UNL     1      54.237   5.636   9.123  0.00  0.00    +0.000 C 
ATOM     15  C   UNL     1      54.489   4.710   7.942  0.00  0.00    +0.000 C 
ATOM     16  C   UNL     1      53.294   4.685   6.995  0.00  0.00    +0.000 C 
ATOM     17  N   UNL     1      52.928   6.032   6.555  0.00  0.00    +0.000 NA
ATOM     18  C   UNL     1      52.606   6.905   7.695  0.00  0.00    +0.000 C 
ATOM     19  H   UNL     1      52.116   5.974   5.941  0.00  0.00    +0.000 HD
ENDBRANCH  10  13
ENDBRANCH   8   9
ENDBRANCH   1   8
BRANCH   4  20
ATOM     20  C   UNL     1      46.530   8.067  13.020  0.00  0.00    +0.000 C 
BRANCH  20  21
ATOM     21  N   UNL     1      46.074   6.758  12.625  0.00  0.00    +0.000 N 
ATOM     22  C   UNL     1      45.000   6.606  11.786  0.00  0.00    +0.000 C 
ATOM     23  O   UNL     1      44.414   7.572  11.304  0.00  0.00    +0.000 OA
ATOM     24  H   UNL     1      46.398   5.966  13.174  0.00  0.00    +0.000 HD
BRANCH  22  25
ATOM     25  C   UNL     1      44.616   5.230  11.441  0.00  0.00    +0.000 A 
ATOM     26  C   UNL     1      43.858   4.489  12.339  0.00  0.00    +0.000 A 
ATOM     27  S   UNL     1      43.466   2.927  11.779  0.00  0.00    +0.000 S 
ATOM     28  C   UNL     1      44.337   3.166  10.337  0.00  0.00    +0.000 A 
ATOM     29  N   UNL     1      44.429   2.178   9.406  0.00  0.00    +0.000 NA
ATOM     30  C   UNL     1      45.144   2.483   8.374  0.00  0.00    +0.000 A 
ATOM     31  N   UNL     1      45.764   3.694   8.184  0.00  0.00    +0.000 N 
ATOM     32  C   UNL     1      45.672   4.730   9.086  0.00  0.00    +0.000 A 
ATOM     33  O   UNL     1      46.204   5.813   8.867  0.00  0.00    +0.000 OA
ATOM     34  C   UNL     1      44.897   4.430  10.273  0.00  0.00    +0.000 A 
ATOM     35  H   UNL     1      46.298   3.872   7.348  0.00  0.00    +0.000 HD
ENDBRANCH  22  25
ENDBRANCH  20  21
ENDBRANCH   4  20
TORSDOF 6
ENDMDL
MODEL 7
REMARK VINA RESULT:    -7.484      3.963      5.459
REMARK INTER + INTRA:         -10.722
REMARK INTER:                 -10.161
REMARK INTRA:                  -0.561
REMARK UNBOUND:                -0.613
REMARK  Name = 
REMARK  7 active torsions:
REMARK  status: ('A' for Active; 'I' for Inactive)
REMARK    1  A    between atoms: C_1  and  C_2
REMARK    2  A    between atoms: C_2  and  N_3
REMARK    3  A    between atoms: C_2  and  C_12
REMARK    4  A    between atoms: C_4  and  C_6
REMARK    5  A    between atoms: C_15  and  C_16
REMARK    6  A    between atoms: C_16  and  N_17
REMARK    7  A    between atoms: C_18  and  C_20
REMARK                            x       y       z     vdW  Elec       q    Type
REMARK                         _______ _______ _______ _____ _____    ______ ____
ROOT
ATOM      1  C   UNL     1      45.118   5.612  11.579  0.00  0.00    +0.000 A 
ATOM      2  C   UNL     1      46.054   6.521  11.058  0.00  0.00    +0.000 A 
ATOM      3  C   UNL     1      47.207   6.857  11.777  0.00  0.00    +0.000 A 
ATOM      4  C   UNL     1      47.462   6.278  13.026  0.00  0.00    +0.000 A 
ATOM      5  C   UNL     1      46.549   5.348  13.535  0.00  0.00    +0.000 A 
ATOM      6  C   UNL     1      45.401   5.009  12.814  0.00  0.00    +0.000 A 
ENDROOT
BRANCH   1   8
ATOM      7  C   UNL     1      42.826   4.486  11.575  0.00  0.00    +0.000 C 
ATOM      8  C   UNL     1      43.860   5.300  10.783  0.00  0.00    +0.000 C 
BRANCH   8   9
ATOM      9  N   UNL     1      44.225   4.596   9.567  0.00  0.00    +0.000 N 
ATOM     10  C   UNL     1      44.518   3.247   9.541  0.00  0.00    +0.000 C 
ATOM     11  O   UNL     1      44.295   2.487  10.472  0.00  0.00    +0.000 OA
ATOM     12  H   UNL     1      44.408   5.156   8.744  0.00  0.00    +0.000 HD
BRANCH  10  13
ATOM     13  C   UNL     1      45.231   2.834   8.260  0.00  0.00    +0.000 C 
ATOM     14  C   UNL     1      46.110   4.005   7.797  0.00  0.00    +0.000 C 
ATOM     15  C   UNL     1      46.907   3.627   6.557  0.00  0.00    +0.000 C 
ATOM     16  C   UNL     1      47.681   2.330   6.772  0.00  0.00    +0.000 C 
ATOM     17  N   UNL     1      46.799   1.242   7.198  0.00  0.00    +0.000 NA
ATOM     18  C   UNL     1      46.089   1.578   8.443  0.00  0.00    +0.000 C 
ATOM     19  H   UNL     1      47.356   0.401   7.349  0.00  0.00    +0.000 HD
ENDBRANCH  10  13
ENDBRANCH   8   9
ENDBRANCH   1   8
BRANCH   4  20
ATOM     20  C   UNL     1      48.652   6.688  13.852  0.00  0.00    +0.000 C 
BRANCH  20  21
ATOM     21  N   UNL     1      49.751   7.087  13.007  0.00  0.00    +0.000 N 
ATOM     22  C   UNL     1      50.518   8.181  13.314  0.00  0.00    +0.000 C 
ATOM     23  O   UNL     1      50.332   8.836  14.337  0.00  0.00    +0.000 OA
ATOM     24  H   UNL     1      49.780   6.701  12.067  0.00  0.00    +0.000 HD
BRANCH  22  25
ATOM     25  C   UNL     1      51.615   8.502  12.391  0.00  0.00    +0.000 A 
ATOM     26  C   UNL     1      51.319   8.959  11.113  0.00  0.00    +0.000 A 
ATOM     27  S   UNL     1      52.698   9.320  10.177  0.00  0.00    +0.000 S 
ATOM     28  C   UNL     1      53.742   8.833  11.428  0.00  0.00    +0.000 A 
ATOM     29  N   UNL     1      55.092   8.865  11.263  0.00  0.00    +0.000 NA
ATOM     30  C   UNL     1      55.765   8.441  12.281  0.00  0.00    +0.000 A 
ATOM     31  N   UNL     1      55.206   7.998  13.456  0.00  0.00    +0.000 N 
ATOM     32  C   UNL     1      53.848   7.977  13.676  0.00  0.00    +0.000 A 
ATOM     33  O   UNL     1      53.383   7.615  14.752  0.00  0.00    +0.000 OA
ATOM     34  C   UNL     1      53.048   8.424  12.555  0.00  0.00    +0.000 A 
ATOM     35  H   UNL     1      55.790   7.692  14.218  0.00  0.00    +0.000 HD
ENDBRANCH  22  25
ENDBRANCH  20  21
ENDBRANCH   4  20
TORSDOF 6
ENDMDL
MODEL 8
REMARK VINA RESULT:    -7.481      5.522      8.324
REMARK INTER + INTRA:         -10.718
REMARK INTER:                  -9.460
REMARK INTRA:                  -1.257
REMARK UNBOUND:                -0.613
REMARK  Name = 
REMARK  7 active torsions:
REMARK  status: ('A' for Active; 'I' for Inactive)
REMARK    1  A    between atoms: C_1  and  C_2
REMARK    2  A    between atoms: C_2  and  N_3
REMARK    3  A    between atoms: C_2  and  C_12
REMARK    4  A    between atoms: C_4  and  C_6
REMARK    5  A    between atoms: C_15  and  C_16
REMARK    6  A    between atoms: C_16  and  N_17
REMARK    7  A    between atoms: C_18  and  C_20
REMARK                            x       y       z     vdW  Elec       q    Type
REMARK                         _______ _______ _______ _____ _____    ______ ____
ROOT
ATOM      1  C   UNL     1      47.949   6.700  13.120  0.00  0.00    +0.000 A 
ATOM      2  C   UNL     1      48.971   7.014  14.031  0.00  0.00    +0.000 A 
ATOM      3  C   UNL     1      50.133   7.672  13.611  0.00  0.00    +0.000 A 
ATOM      4  C   UNL     1      50.293   8.049  12.272  0.00  0.00    +0.000 A 
ATOM      5  C   UNL     1      49.264   7.768  11.367  0.00  0.00    +0.000 A 
ATOM      6  C   UNL     1      48.102   7.116  11.789  0.00  0.00    +0.000 A 
ENDROOT
BRANCH   1   8
ATOM      7  C   UNL     1      47.048   4.809  14.580  0.00  0.00    +0.000 C 
ATOM      8  C   UNL     1      46.718   5.953  13.609  0.00  0.00    +0.000 C 
BRANCH   8   9
ATOM      9  N   UNL     1      45.982   5.443  12.467  0.00  0.00    +0.000 N 
ATOM     10  C   UNL     1      44.605   5.352  12.443  0.00  0.00    +0.000 C 
ATOM     11  O   UNL     1      43.876   5.879  13.271  0.00  0.00    +0.000 OA
ATOM     12  H   UNL     1      46.517   5.008  11.727  0.00  0.00    +0.000 HD
BRANCH  10  13
ATOM     13  C   UNL     1      44.103   4.450  11.324  0.00  0.00    +0.000 C 
ATOM     14  C   UNL     1      44.928   4.742  10.061  0.00  0.00    +0.000 C 
ATOM     15  C   UNL     1      44.522   3.817   8.923  0.00  0.00    +0.000 C 
ATOM     16  C   UNL     1      44.566   2.355   9.356  0.00  0.00    +0.000 C 
ATOM     17  N   UNL     1      43.755   2.124  10.553  0.00  0.00    +0.000 NA
ATOM     18  C   UNL     1      44.201   2.962  11.678  0.00  0.00    +0.000 C 
ATOM     19  H   UNL     1      43.826   1.143  10.820  0.00  0.00    +0.000 HD
ENDBRANCH  10  13
ENDBRANCH   8   9
ENDBRANCH   1   8
BRANCH   4  20
ATOM     20  C   UNL     1      51.568   8.682  11.783  0.00  0.00    +0.000 C 
BRANCH  20  21
ATOM     21  N   UNL     1      51.875   8.251  10.442  0.00  0.00    +0.000 N 
ATOM     22  C   UNL     1      52.974   8.732   9.778  0.00  0.00    +0.000 C 
ATOM     23  O   UNL     1      53.761   9.512  10.310  0.00  0.00    +0.000 OA
ATOM     24  H   UNL     1      51.135   7.790   9.920  0.00  0.00    +0.000 HD
BRANCH  22  25
ATOM     25  C   UNL     1      53.200   8.228   8.417  0.00  0.00    +0.000 A 
ATOM     26  C   UNL     1      53.165   9.113   7.347  0.00  0.00    +0.000 A 
ATOM     27  S   UNL     1      53.481   8.380   5.840  0.00  0.00    +0.000 S 
ATOM     28  C   UNL     1      53.628   6.844   6.556  0.00  0.00    +0.000 A 
ATOM     29  N   UNL     1      53.874   5.742   5.798  0.00  0.00    +0.000 NA
ATOM     30  C   UNL     1      53.933   4.637   6.466  0.00  0.00    +0.000 A 
ATOM     31  N   UNL     1      53.780   4.540   7.828  0.00  0.00    +0.000 N 
ATOM     32  C   UNL     1      53.559   5.632   8.635  0.00  0.00    +0.000 A 
ATOM     33  O   UNL     1      53.468   5.516   9.853  0.00  0.00    +0.000 OA
ATOM     34  C   UNL     1      53.464   6.894   7.930  0.00  0.00    +0.000 A 
ATOM     35  H   UNL     1      53.850   3.646   8.289  0.00  0.00    +0.000 HD
ENDBRANCH  22  25
ENDBRANCH  20  21
ENDBRANCH   4  20
TORSDOF 6
ENDMDL
MODEL 9
REMARK VINA RESULT:    -7.361      3.249      9.545
REMARK INTER + INTRA:         -10.555
REMARK INTER:                  -9.344
REMARK INTRA:                  -1.212
REMARK UNBOUND:                -0.613
REMARK  Name = 
REMARK  7 active torsions:
REMARK  status: ('A' for Active; 'I' for Inactive)
REMARK    1  A    between atoms: C_1  and  C_2
REMARK    2  A    between atoms: C_2  and  N_3
REMARK    3  A    between atoms: C_2  and  C_12
REMARK    4  A    between atoms: C_4  and  C_6
REMARK    5  A    between atoms: C_15  and  C_16
REMARK    6  A    between atoms: C_16  and  N_17
REMARK    7  A    between atoms: C_18  and  C_20
REMARK                            x       y       z     vdW  Elec       q    Type
REMARK                         _______ _______ _______ _____ _____    ______ ____
ROOT
ATOM      1  C   UNL     1      50.125   7.251  15.292  0.00  0.00    +0.000 A 
ATOM      2  C   UNL     1      48.921   6.530  15.223  0.00  0.00    +0.000 A 
ATOM      3  C   UNL     1      48.070   6.653  14.119  0.00  0.00    +0.000 A 
ATOM      4  C   UNL     1      48.411   7.487  13.047  0.00  0.00    +0.000 A 
ATOM      5  C   UNL     1      49.623   8.182  13.095  0.00  0.00    +0.000 A 
ATOM      6  C   UNL     1      50.475   8.054  14.195  0.00  0.00    +0.000 A 
ENDROOT
BRANCH   1   8
ATOM      7  C   UNL     1      52.432   7.646  16.313  0.00  0.00    +0.000 C 
ATOM      8  C   UNL     1      51.005   7.117  16.524  0.00  0.00    +0.000 C 
BRANCH   8   9
ATOM      9  N   UNL     1      51.044   5.725  16.936  0.00  0.00    +0.000 N 
ATOM     10  C   UNL     1      50.621   5.300  18.180  0.00  0.00    +0.000 C 
ATOM     11  O   UNL     1      49.987   6.000  18.956  0.00  0.00    +0.000 OA
ATOM     12  H   UNL     1      51.536   5.077  16.334  0.00  0.00    +0.000 HD
BRANCH  10  13
ATOM     13  C   UNL     1      51.110   3.896  18.508  0.00  0.00    +0.000 C 
ATOM     14  C   UNL     1      50.718   2.964  17.352  0.00  0.00    +0.000 C 
ATOM     15  C   UNL     1      51.244   1.556  17.589  0.00  0.00    +0.000 C 
ATOM     16  C   UNL     1      52.741   1.568  17.882  0.00  0.00    +0.000 C 
ATOM     17  N   UNL     1      53.063   2.458  18.999  0.00  0.00    +0.000 NA
ATOM     18  C   UNL     1      52.625   3.838  18.734  0.00  0.00    +0.000 C 
ATOM     19  H   UNL     1      54.071   2.452  19.151  0.00  0.00    +0.000 HD
ENDBRANCH  10  13
ENDBRANCH   8   9
ENDBRANCH   1   8
BRANCH   4  20
ATOM     20  C   UNL     1      47.472   7.698  11.889  0.00  0.00    +0.000 C 
BRANCH  20  21
ATOM     21  N   UNL     1      46.792   6.472  11.549  0.00  0.00    +0.000 N 
ATOM     22  C   UNL     1      45.447   6.323  11.773  0.00  0.00    +0.000 C 
ATOM     23  O   UNL     1      44.763   7.236  12.229  0.00  0.00    +0.000 OA
ATOM     24  H   UNL     1      47.367   5.651  11.382  0.00  0.00    +0.000 HD
BRANCH  22  25
ATOM     25  C   UNL     1      44.849   5.037  11.389  0.00  0.00    +0.000 A 
ATOM     26  C   UNL     1      44.061   4.352  12.304  0.00  0.00    +0.000 A 
ATOM     27  S   UNL     1      43.413   2.897  11.696  0.00  0.00    +0.000 S 
ATOM     28  C   UNL     1      44.201   3.105  10.203  0.00  0.00    +0.000 A 
ATOM     29  N   UNL     1      44.085   2.175   9.217  0.00  0.00    +0.000 NA
ATOM     30  C   UNL     1      44.759   2.445   8.148  0.00  0.00    +0.000 A 
ATOM     31  N   UNL     1      45.529   3.569   7.973  0.00  0.00    +0.000 N 
ATOM     32  C   UNL     1      45.650   4.548   8.932  0.00  0.00    +0.000 A 
ATOM     33  O   UNL     1      46.313   5.560   8.729  0.00  0.00    +0.000 OA
ATOM     34  C   UNL     1      44.929   4.283  10.160  0.00  0.00    +0.000 A 
ATOM     35  H   UNL     1      46.020   3.726   7.107  0.00  0.00    +0.000 HD
ENDBRANCH  22  25
ENDBRANCH  20  21
ENDBRANCH   4  20
TORSDOF 6
ENDMDL
