MODEL 1
REMARK VINA RESULT:    -6.258      0.000      0.000
REMARK INTER + INTRA:         -12.322
REMARK INTER:                  -9.917
REMARK INTRA:                  -2.405
REMARK UNBOUND:                -2.405
REMARK  Name = 
REMARK  11 active torsions:
REMARK  status: ('A' for Active; 'I' for Inactive)
REMARK    1  A    between atoms: N_1  and  C_2
REMARK    2  A    between atoms: C_2  and  C_3
REMARK    3  A    between atoms: C_3  and  N_4
REMARK    4  A    between atoms: N_4  and  C_5
REMARK    5  A    between atoms: C_5  and  C_6
REMARK    6  A    between atoms: C_8  and  C_9
REMARK    7  A    between atoms: C_9  and  N_10
REMARK    8  A    between atoms: C_13  and  N_14
REMARK    9  A    between atoms: C_19  and  C_20
REMARK   10  A    between atoms: C_20  and  N_21
REMARK   11  A    between atoms: C_22  and  C_24
REMARK                            x       y       z     vdW  Elec       q    Type
REMARK                         _______ _______ _______ _____ _____    ______ ____
ROOT
ATOM      1  C   UNL     1      47.039   6.935  12.985  0.00  0.00    +0.000 A 
ATOM      2  C   UNL     1      46.200   6.388  11.983  0.00  0.00    +0.000 A 
ATOM      3  C   UNL     1      45.099   7.065  11.451  0.00  0.00    +0.000 A 
ATOM      4  C   UNL     1      44.833   8.341  11.951  0.00  0.00    +0.000 A 
ATOM      5  C   UNL     1      45.710   8.945  12.870  0.00  0.00    +0.000 A 
ATOM      6  C   UNL     1      46.855   8.279  13.363  0.00  0.00    +0.000 A 
ENDROOT
BRANCH   1   7
ATOM      7  C   UNL     1      48.099   5.994  13.515  0.00  0.00    +0.000 C 
BRANCH   7   8
ATOM      8  N   UNL     1      47.919   5.456  14.862  0.00  0.00    +0.000 NA
ATOM      9  H   UNL     1      48.842   5.244  15.237  0.00  0.00    +0.000 HD
BRANCH   8  10
ATOM     10  C   UNL     1      47.096   4.241  14.921  0.00  0.00    +0.000 C 
BRANCH  10  11
ATOM     11  C   UNL     1      47.507   3.425  16.164  0.00  0.00    +0.000 C 
BRANCH  11  12
ATOM     12  N   UNL     1      46.734   3.775  17.353  0.00  0.00    +0.000 NA
ATOM     13  H   UNL     1      47.230   4.502  17.867  0.00  0.00    +0.000 HD
ATOM     14  H   UNL     1      46.665   2.973  17.976  0.00  0.00    +0.000 HD
ENDBRANCH  11  12
ENDBRANCH  10  11
ENDBRANCH   8  10
ENDBRANCH   7   8
ENDBRANCH   1   7
BRANCH   3  15
ATOM     15  C   UNL     1      44.342   6.472  10.278  0.00  0.00    +0.000 C 
BRANCH  15  16
ATOM     16  N   UNL     1      43.502   5.289  10.450  0.00  0.00    +0.000 NA
ATOM     17  C   UNL     1      42.732   5.174  11.674  0.00  0.00    +0.000 C 
ATOM     18  C   UNL     1      43.469   4.468  12.808  0.00  0.00    +0.000 C 
ATOM     19  C   UNL     1      44.208   3.183  12.400  0.00  0.00    +0.000 C 
ATOM     20  C   UNL     1      44.826   3.238  10.999  0.00  0.00    +0.000 C 
ATOM     21  C   UNL     1      43.995   4.004   9.976  0.00  0.00    +0.000 C 
BRANCH  19  22
ATOM     22  N   UNL     1      43.347   1.999  12.522  0.00  0.00    +0.000 NA
ATOM     23  H   UNL     1      43.175   1.589  11.607  0.00  0.00    +0.000 HD
ATOM     24  H   UNL     1      42.438   2.285  12.886  0.00  0.00    +0.000 HD
ENDBRANCH  19  22
ENDBRANCH  15  16
ENDBRANCH   3  15
BRANCH   6  25
ATOM     25  C   UNL     1      47.816   9.057  14.247  0.00  0.00    +0.000 C 
BRANCH  25  26
ATOM     26  N   UNL     1      47.714   8.727  15.663  0.00  0.00    +0.000 N 
ATOM     27  C   UNL     1      48.238   9.549  16.630  0.00  0.00    +0.000 C 
ATOM     28  O   UNL     1      48.962  10.503  16.327  0.00  0.00    +0.000 OA
ATOM     29  H   UNL     1      47.090   7.968  15.922  0.00  0.00    +0.000 HD
BRANCH  27  30
ATOM     30  C   UNL     1      47.909   9.298  18.046  0.00  0.00    +0.000 A 
ATOM     31  C   UNL     1      47.514  10.378  18.832  0.00  0.00    +0.000 A 
ATOM     32  S   UNL     1      47.112   9.974  20.434  0.00  0.00    +0.000 S 
ATOM     33  C   UNL     1      47.426   8.330  20.149  0.00  0.00    +0.000 A 
ATOM     34  N   UNL     1      47.228   7.416  21.139  0.00  0.00    +0.000 NA
ATOM     35  C   UNL     1      47.472   6.196  20.789  0.00  0.00    +0.000 A 
ATOM     36  N   UNL     1      47.911   5.818  19.543  0.00  0.00    +0.000 N 
ATOM     37  C   UNL     1      48.155   6.713  18.525  0.00  0.00    +0.000 A 
ATOM     38  O   UNL     1      48.597   6.344  17.442  0.00  0.00    +0.000 OA
ATOM     39  C   UNL     1      47.862   8.097  18.854  0.00  0.00    +0.000 A 
ATOM     40  H   UNL     1      48.100   4.850  19.345  0.00  0.00    +0.000 HD
ENDBRANCH  27  30
ENDBRANCH  25  26
ENDBRANCH   6  25
TORSDOF 11
ENDMDL
MODEL 2
REMARK VINA RESULT:    -6.143      1.874      3.640
REMARK INTER + INTRA:         -12.140
REMARK INTER:                 -10.347
REMARK INTRA:                  -1.793
REMARK UNBOUND:                -2.405
REMARK  Name = 
REMARK  11 active torsions:
REMARK  status: ('A' for Active; 'I' for Inactive)
REMARK    1  A    between atoms: N_1  and  C_2
REMARK    2  A    between atoms: C_2  and  C_3
REMARK    3  A    between atoms: C_3  and  N_4
REMARK    4  A    between atoms: N_4  and  C_5
REMARK    5  A    between atoms: C_5  and  C_6
REMARK    6  A    between atoms: C_8  and  C_9
REMARK    7  A    between atoms: C_9  and  N_10
REMARK    8  A    between atoms: C_13  and  N_14
REMARK    9  A    between atoms: C_19  and  C_20
REMARK   10  A    between atoms: C_20  and  N_21
REMARK   11  A    between atoms: C_22  and  C_24
REMARK                            x       y       z     vdW  Elec       q    Type
REMARK                         _______ _______ _______ _____ _____    ______ ____
ROOT
ATOM      1  C   UNL     1      46.350   7.535  13.013  0.00  0.00    +0.000 A 
ATOM      2  C   UNL     1      45.163   6.773  12.890  0.00  0.00    +0.000 A 
ATOM      3  C   UNL     1      45.124   5.384  13.038  0.00  0.00    +0.000 A 
ATOM      4  C   UNL     1      46.331   4.739  13.317  0.00  0.00    +0.000 A 
ATOM      5  C   UNL     1      47.503   5.484  13.545  0.00  0.00    +0.000 A 
ATOM      6  C   UNL     1      47.525   6.894  13.451  0.00  0.00    +0.000 A 
ENDROOT
BRANCH   1   7
ATOM      7  C   UNL     1      46.202   9.007  12.694  0.00  0.00    +0.000 C 
BRANCH   7   8
ATOM      8  N   UNL     1      44.886   9.616  12.885  0.00  0.00    +0.000 NA
ATOM      9  H   UNL     1      44.208   8.861  12.986  0.00  0.00    +0.000 HD
BRANCH   8  10
ATOM     10  C   UNL     1      44.460  10.490  11.785  0.00  0.00    +0.000 C 
BRANCH  10  11
ATOM     11  C   UNL     1      44.057   9.609  10.583  0.00  0.00    +0.000 C 
BRANCH  11  12
ATOM     12  N   UNL     1      42.872   8.797  10.849  0.00  0.00    +0.000 NA
ATOM     13  H   UNL     1      42.494   9.053  11.760  0.00  0.00    +0.000 HD
ATOM     14  H   UNL     1      43.126   7.813  10.904  0.00  0.00    +0.000 HD
ENDBRANCH  11  12
ENDBRANCH  10  11
ENDBRANCH   8  10
ENDBRANCH   7   8
ENDBRANCH   1   7
BRANCH   3  15
ATOM     15  C   UNL     1      43.791   4.660  13.039  0.00  0.00    +0.000 C 
BRANCH  15  16
ATOM     16  N   UNL     1      43.201   4.175  11.793  0.00  0.00    +0.000 NA
ATOM     17  C   UNL     1      43.413   2.784  11.438  0.00  0.00    +0.000 C 
ATOM     18  C   UNL     1      44.670   2.538  10.610  0.00  0.00    +0.000 C 
ATOM     19  C   UNL     1      44.889   3.528   9.454  0.00  0.00    +0.000 C 
ATOM     20  C   UNL     1      44.444   4.960   9.769  0.00  0.00    +0.000 C 
ATOM     21  C   UNL     1      43.192   5.053  10.633  0.00  0.00    +0.000 C 
BRANCH  19  22
ATOM     22  N   UNL     1      44.252   3.066   8.214  0.00  0.00    +0.000 NA
ATOM     23  H   UNL     1      44.821   3.315   7.408  0.00  0.00    +0.000 HD
ATOM     24  H   UNL     1      43.361   3.549   8.099  0.00  0.00    +0.000 HD
ENDBRANCH  19  22
ENDBRANCH  15  16
ENDBRANCH   3  15
BRANCH   6  25
ATOM     25  C   UNL     1      48.800   7.621  13.845  0.00  0.00    +0.000 C 
BRANCH  25  26
ATOM     26  N   UNL     1      49.212   7.385  15.223  0.00  0.00    +0.000 N 
ATOM     27  C   UNL     1      48.728   8.149  16.256  0.00  0.00    +0.000 C 
ATOM     28  O   UNL     1      48.065   9.168  16.036  0.00  0.00    +0.000 OA
ATOM     29  H   UNL     1      49.725   6.530  15.417  0.00  0.00    +0.000 HD
BRANCH  27  30
ATOM     30  C   UNL     1      48.986   7.728  17.647  0.00  0.00    +0.000 A 
ATOM     31  C   UNL     1      49.461   8.680  18.546  0.00  0.00    +0.000 A 
ATOM     32  S   UNL     1      49.680   8.105  20.131  0.00  0.00    +0.000 S 
ATOM     33  C   UNL     1      49.130   6.558  19.696  0.00  0.00    +0.000 A 
ATOM     34  N   UNL     1      49.033   5.579  20.638  0.00  0.00    +0.000 NA
ATOM     35  C   UNL     1      48.573   4.457  20.191  0.00  0.00    +0.000 A 
ATOM     36  N   UNL     1      48.218   4.230  18.882  0.00  0.00    +0.000 N 
ATOM     37  C   UNL     1      48.332   5.182  17.893  0.00  0.00    +0.000 A 
ATOM     38  O   UNL     1      48.057   4.926  16.726  0.00  0.00    +0.000 OA
ATOM     39  C   UNL     1      48.812   6.474  18.350  0.00  0.00    +0.000 A 
ATOM     40  H   UNL     1      47.885   3.325  18.599  0.00  0.00    +0.000 HD
ENDBRANCH  27  30
ENDBRANCH  25  26
ENDBRANCH   6  25
TORSDOF 11
ENDMDL
MODEL 3
REMARK VINA RESULT:    -6.034      4.859      8.353
REMARK INTER + INTRA:         -11.966
REMARK INTER:                 -10.524
REMARK INTRA:                  -1.443
REMARK UNBOUND:                -2.405
REMARK  Name = 
REMARK  11 active torsions:
REMARK  status: ('A' for Active; 'I' for Inactive)
REMARK    1  A    between atoms: N_1  and  C_2
REMARK    2  A    between atoms: C_2  and  C_3
REMARK    3  A    between atoms: C_3  and  N_4
REMARK    4  A    between atoms: N_4  and  C_5
REMARK    5  A    between atoms: C_5  and  C_6
REMARK    6  A    between atoms: C_8  and  C_9
REMARK    7  A    between atoms: C_9  and  N_10
REMARK    8  A    between atoms: C_13  and  N_14
REMARK    9  A    between atoms: C_19  and  C_20
REMARK   10  A    between atoms: C_20  and  N_21
REMARK   11  A    between atoms: C_22  and  C_24
REMARK                            x       y       z     vdW  Elec       q    Type
REMARK                         _______ _______ _______ _____ _____    ______ ____
ROOT
ATOM      1  C   UNL     1      49.198   7.780  13.872  0.00  0.00    +0.000 A 
ATOM      2  C   UNL     1      50.537   8.038  13.489  0.00  0.00    +0.000 A 
ATOM      3  C   UNL     1      50.889   8.589  12.254  0.00  0.00    +0.000 A 
ATOM      4  C   UNL     1      49.850   8.890  11.371  0.00  0.00    +0.000 A 
ATOM      5  C   UNL     1      48.508   8.739  11.768  0.00  0.00    +0.000 A 
ATOM      6  C   UNL     1      48.155   8.234  13.040  0.00  0.00    +0.000 A 
ENDROOT
BRANCH   1   7
ATOM      7  C   UNL     1      49.037   7.066  15.197  0.00  0.00    +0.000 C 
BRANCH   7   8
ATOM      8  N   UNL     1      48.271   5.821  15.209  0.00  0.00    +0.000 NA
ATOM      9  H   UNL     1      47.333   6.031  14.869  0.00  0.00    +0.000 HD
BRANCH   8  10
ATOM     10  C   UNL     1      48.164   5.191  16.531  0.00  0.00    +0.000 C 
BRANCH  10  11
ATOM     11  C   UNL     1      47.572   3.777  16.358  0.00  0.00    +0.000 C 
BRANCH  11  12
ATOM     12  N   UNL     1      46.646   3.416  17.429  0.00  0.00    +0.000 NA
ATOM     13  H   UNL     1      45.691   3.542  17.095  0.00  0.00    +0.000 HD
ATOM     14  H   UNL     1      46.762   4.044  18.221  0.00  0.00    +0.000 HD
ENDBRANCH  11  12
ENDBRANCH  10  11
ENDBRANCH   8  10
ENDBRANCH   7   8
ENDBRANCH   1   7
BRANCH   3  15
ATOM     15  C   UNL     1      52.331   8.972  11.981  0.00  0.00    +0.000 C 
BRANCH  15  16
ATOM     16  N   UNL     1      53.255   8.020  11.367  0.00  0.00    +0.000 NA
ATOM     17  C   UNL     1      54.567   8.501  10.977  0.00  0.00    +0.000 C 
ATOM     18  C   UNL     1      54.631   9.049   9.555  0.00  0.00    +0.000 C 
ATOM     19  C   UNL     1      53.933   8.183   8.494  0.00  0.00    +0.000 C 
ATOM     20  C   UNL     1      52.659   7.493   8.995  0.00  0.00    +0.000 C 
ATOM     21  C   UNL     1      52.726   7.026  10.444  0.00  0.00    +0.000 C 
BRANCH  19  22
ATOM     22  N   UNL     1      54.846   7.191   7.914  0.00  0.00    +0.000 NA
ATOM     23  H   UNL     1      55.489   6.843   8.622  0.00  0.00    +0.000 HD
ATOM     24  H   UNL     1      55.419   7.643   7.201  0.00  0.00    +0.000 HD
ENDBRANCH  19  22
ENDBRANCH  15  16
ENDBRANCH   3  15
BRANCH   6  25
ATOM     25  C   UNL     1      46.687   8.233  13.432  0.00  0.00    +0.000 C 
BRANCH  25  26
ATOM     26  N   UNL     1      46.017   6.959  13.202  0.00  0.00    +0.000 N 
ATOM     27  C   UNL     1      45.187   6.771  12.124  0.00  0.00    +0.000 C 
ATOM     28  O   UNL     1      44.845   7.720  11.413  0.00  0.00    +0.000 OA
ATOM     29  H   UNL     1      46.321   6.165  13.758  0.00  0.00    +0.000 HD
BRANCH  27  30
ATOM     30  C   UNL     1      44.721   5.408  11.803  0.00  0.00    +0.000 A 
ATOM     31  C   UNL     1      43.967   4.728  12.756  0.00  0.00    +0.000 A 
ATOM     32  S   UNL     1      43.440   3.186  12.269  0.00  0.00    +0.000 S 
ATOM     33  C   UNL     1      44.177   3.362  10.750  0.00  0.00    +0.000 A 
ATOM     34  N   UNL     1      44.060   2.377   9.816  0.00  0.00    +0.000 NA
ATOM     35  C   UNL     1      44.638   2.642   8.691  0.00  0.00    +0.000 A 
ATOM     36  N   UNL     1      45.334   3.797   8.429  0.00  0.00    +0.000 N 
ATOM     37  C   UNL     1      45.505   4.802   9.355  0.00  0.00    +0.000 A 
ATOM     38  O   UNL     1      46.179   5.796   9.103  0.00  0.00    +0.000 OA
ATOM     39  C   UNL     1      44.844   4.571  10.627  0.00  0.00    +0.000 A 
ATOM     40  H   UNL     1      45.776   3.930   7.536  0.00  0.00    +0.000 HD
ENDBRANCH  27  30
ENDBRANCH  25  26
ENDBRANCH   6  25
TORSDOF 11
ENDMDL
MODEL 4
REMARK VINA RESULT:    -6.006      2.547      3.628
REMARK INTER + INTRA:         -11.922
REMARK INTER:                  -9.321
REMARK INTRA:                  -2.601
REMARK UNBOUND:                -2.405
REMARK  Name = 
REMARK  11 active torsions:
REMARK  status: ('A' for Active; 'I' for Inactive)
REMARK    1  A    between atoms: N_1  and  C_2
REMARK    2  A    between atoms: C_2  and  C_3
REMARK    3  A    between atoms: C_3  and  N_4
REMARK    4  A    between atoms: N_4  and  C_5
REMARK    5  A    between atoms: C_5  and  C_6
REMARK    6  A    between atoms: C_8  and  C_9
REMARK    7  A    between atoms: C_9  and  N_10
REMARK    8  A    between atoms: C_13  and  N_14
REMARK    9  A    between atoms: C_19  and  C_20
REMARK   10  A    between atoms: C_20  and  N_21
REMARK   11  A    between atoms: C_22  and  C_24
REMARK                            x       y       z     vdW  Elec       q    Type
REMARK                         _______ _______ _______ _____ _____    ______ ____
ROOT
ATOM      1  C   UNL     1      47.954   8.607  13.716  0.00  0.00    +0.000 A 
ATOM      2  C   UNL     1      46.619   8.236  13.424  0.00  0.00    +0.000 A 
ATOM      3  C   UNL     1      46.260   7.489  12.299  0.00  0.00    +0.000 A 
ATOM      4  C   UNL     1      47.287   7.103  11.435  0.00  0.00    +0.000 A 
ATOM      5  C   UNL     1      48.630   7.370  11.758  0.00  0.00    +0.000 A 
ATOM      6  C   UNL     1      48.994   8.077  12.927  0.00  0.00    +0.000 A 
ENDROOT
BRANCH   1   7
ATOM      7  C   UNL     1      48.118   9.521  14.912  0.00  0.00    +0.000 C 
BRANCH   7   8
ATOM      8  N   UNL     1      47.696   9.016  16.217  0.00  0.00    +0.000 NA
ATOM      9  H   UNL     1      46.709   9.244  16.332  0.00  0.00    +0.000 HD
BRANCH   8  10
ATOM     10  C   UNL     1      48.445   9.573  17.350  0.00  0.00    +0.000 C 
BRANCH  10  11
ATOM     11  C   UNL     1      47.806   9.068  18.661  0.00  0.00    +0.000 C 
BRANCH  11  12
ATOM     12  N   UNL     1      47.104   7.797  18.496  0.00  0.00    +0.000 NA
ATOM     13  H   UNL     1      47.633   7.065  18.969  0.00  0.00    +0.000 HD
ATOM     14  H   UNL     1      47.069   7.540  17.511  0.00  0.00    +0.000 HD
ENDBRANCH  11  12
ENDBRANCH  10  11
ENDBRANCH   8  10
ENDBRANCH   7   8
ENDBRANCH   1   7
BRANCH   3  15
ATOM     15  C   UNL     1      44.831   7.007  12.136  0.00  0.00    +0.000 C 
BRANCH  15  16
ATOM     16  N   UNL     1      44.331   5.872  12.909  0.00  0.00    +0.000 NA
ATOM     17  C   UNL     1      45.268   4.819  13.253  0.00  0.00    +0.000 C 
ATOM     18  C   UNL     1      45.365   3.708  12.213  0.00  0.00    +0.000 C 
ATOM     19  C   UNL     1      44.016   3.204  11.674  0.00  0.00    +0.000 C 
ATOM     20  C   UNL     1      42.955   4.301  11.531  0.00  0.00    +0.000 C 
ATOM     21  C   UNL     1      42.998   5.362  12.624  0.00  0.00    +0.000 C 
BRANCH  19  22
ATOM     22  N   UNL     1      43.487   2.097  12.481  0.00  0.00    +0.000 NA
ATOM     23  H   UNL     1      42.606   1.764  12.094  0.00  0.00    +0.000 HD
ATOM     24  H   UNL     1      43.279   2.439  13.419  0.00  0.00    +0.000 HD
ENDBRANCH  19  22
ENDBRANCH  15  16
ENDBRANCH   3  15
BRANCH   6  25
ATOM     25  C   UNL     1      50.471   8.201  13.262  0.00  0.00    +0.000 C 
BRANCH  25  26
ATOM     26  N   UNL     1      50.891   7.378  14.389  0.00  0.00    +0.000 N 
ATOM     27  C   UNL     1      51.403   7.939  15.534  0.00  0.00    +0.000 C 
ATOM     28  O   UNL     1      51.684   9.141  15.580  0.00  0.00    +0.000 OA
ATOM     29  H   UNL     1      50.629   6.397  14.374  0.00  0.00    +0.000 HD
BRANCH  27  30
ATOM     30  C   UNL     1      51.593   7.094  16.728  0.00  0.00    +0.000 A 
ATOM     31  C   UNL     1      52.825   7.136  17.376  0.00  0.00    +0.000 A 
ATOM     32  S   UNL     1      52.924   6.162  18.766  0.00  0.00    +0.000 S 
ATOM     33  C   UNL     1      51.315   5.652  18.582  0.00  0.00    +0.000 A 
ATOM     34  N   UNL     1      50.755   4.814  19.498  0.00  0.00    +0.000 NA
ATOM     35  C   UNL     1      49.518   4.524  19.265  0.00  0.00    +0.000 A 
ATOM     36  N   UNL     1      48.801   4.988  18.187  0.00  0.00    +0.000 N 
ATOM     37  C   UNL     1      49.338   5.810  17.221  0.00  0.00    +0.000 A 
ATOM     38  O   UNL     1      48.684   6.161  16.245  0.00  0.00    +0.000 OA
ATOM     39  C   UNL     1      50.719   6.196  17.454  0.00  0.00    +0.000 A 
ATOM     40  H   UNL     1      47.845   4.707  18.056  0.00  0.00    +0.000 HD
ENDBRANCH  27  30
ENDBRANCH  25  26
ENDBRANCH   6  25
TORSDOF 11
ENDMDL
MODEL 5
REMARK VINA RESULT:    -6.002      2.102      2.901
REMARK INTER + INTRA:         -11.916
REMARK INTER:                 -11.110
REMARK INTRA:                  -0.806
REMARK UNBOUND:                -2.405
REMARK  Name = 
REMARK  11 active torsions:
REMARK  status: ('A' for Active; 'I' for Inactive)
REMARK    1  A    between atoms: N_1  and  C_2
REMARK    2  A    between atoms: C_2  and  C_3
REMARK    3  A    between atoms: C_3  and  N_4
REMARK    4  A    between atoms: N_4  and  C_5
REMARK    5  A    between atoms: C_5  and  C_6
REMARK    6  A    between atoms: C_8  and  C_9
REMARK    7  A    between atoms: C_9  and  N_10
REMARK    8  A    between atoms: C_13  and  N_14
REMARK    9  A    between atoms: C_19  and  C_20
REMARK   10  A    between atoms: C_20  and  N_21
REMARK   11  A    between atoms: C_22  and  C_24
REMARK                            x       y       z     vdW  Elec       q    Type
REMARK                         _______ _______ _______ _____ _____    ______ ____
ROOT
ATOM      1  C   UNL     1      46.454   5.225  13.225  0.00  0.00    +0.000 A 
ATOM      2  C   UNL     1      45.769   4.137  12.633  0.00  0.00    +0.000 A 
ATOM      3  C   UNL     1      44.745   4.294  11.695  0.00  0.00    +0.000 A 
ATOM      4  C   UNL     1      44.398   5.601  11.344  0.00  0.00    +0.000 A 
ATOM      5  C   UNL     1      45.133   6.693  11.840  0.00  0.00    +0.000 A 
ATOM      6  C   UNL     1      46.206   6.526  12.745  0.00  0.00    +0.000 A 
ENDROOT
BRANCH   1   7
ATOM      7  C   UNL     1      47.442   4.847  14.309  0.00  0.00    +0.000 C 
BRANCH   7   8
ATOM      8  N   UNL     1      47.227   3.584  15.013  0.00  0.00    +0.000 NA
ATOM      9  H   UNL     1      46.254   3.315  14.876  0.00  0.00    +0.000 HD
BRANCH   8  10
ATOM     10  C   UNL     1      47.501   3.644  16.455  0.00  0.00    +0.000 C 
BRANCH  10  11
ATOM     11  C   UNL     1      48.575   2.590  16.797  0.00  0.00    +0.000 C 
BRANCH  11  12
ATOM     12  N   UNL     1      49.917   3.159  16.893  0.00  0.00    +0.000 NA
ATOM     13  H   UNL     1      49.843   4.175  16.923  0.00  0.00    +0.000 HD
ATOM     14  H   UNL     1      50.456   2.931  16.060  0.00  0.00    +0.000 HD
ENDBRANCH  11  12
ENDBRANCH  10  11
ENDBRANCH   8  10
ENDBRANCH   7   8
ENDBRANCH   1   7
BRANCH   3  15
ATOM     15  C   UNL     1      44.164   3.079  10.999  0.00  0.00    +0.000 C 
BRANCH  15  16
ATOM     16  N   UNL     1      44.068   3.026   9.541  0.00  0.00    +0.000 NA
ATOM     17  C   UNL     1      44.458   1.795   8.879  0.00  0.00    +0.000 C 
ATOM     18  C   UNL     1      45.935   1.734   8.501  0.00  0.00    +0.000 C 
ATOM     19  C   UNL     1      46.491   3.010   7.848  0.00  0.00    +0.000 C 
ATOM     20  C   UNL     1      45.894   4.305   8.408  0.00  0.00    +0.000 C 
ATOM     21  C   UNL     1      44.417   4.211   8.772  0.00  0.00    +0.000 C 
BRANCH  19  22
ATOM     22  N   UNL     1      46.347   2.981   6.387  0.00  0.00    +0.000 NA
ATOM     23  H   UNL     1      47.257   2.881   5.942  0.00  0.00    +0.000 HD
ATOM     24  H   UNL     1      45.969   3.874   6.073  0.00  0.00    +0.000 HD
ENDBRANCH  19  22
ENDBRANCH  15  16
ENDBRANCH   3  15
BRANCH   6  25
ATOM     25  C   UNL     1      47.026   7.748  13.122  0.00  0.00    +0.000 C 
BRANCH  25  26
ATOM     26  N   UNL     1      47.528   7.723  14.490  0.00  0.00    +0.000 N 
ATOM     27  C   UNL     1      48.139   8.818  15.049  0.00  0.00    +0.000 C 
ATOM     28  O   UNL     1      48.438   9.798  14.360  0.00  0.00    +0.000 OA
ATOM     29  H   UNL     1      47.254   6.937  15.073  0.00  0.00    +0.000 HD
BRANCH  27  30
ATOM     30  C   UNL     1      48.417   8.827  16.498  0.00  0.00    +0.000 A 
ATOM     31  C   UNL     1      47.923   9.885  17.257  0.00  0.00    +0.000 A 
ATOM     32  S   UNL     1      48.258   9.776  18.921  0.00  0.00    +0.000 S 
ATOM     33  C   UNL     1      49.062   8.295  18.710  0.00  0.00    +0.000 A 
ATOM     34  N   UNL     1      49.566   7.633  19.789  0.00  0.00    +0.000 NA
ATOM     35  C   UNL     1      50.126   6.504  19.503  0.00  0.00    +0.000 A 
ATOM     36  N   UNL     1      50.239   5.993  18.232  0.00  0.00    +0.000 N 
ATOM     37  C   UNL     1      49.773   6.645  17.111  0.00  0.00    +0.000 A 
ATOM     38  O   UNL     1      49.939   6.184  15.988  0.00  0.00    +0.000 OA
ATOM     39  C   UNL     1      49.101   7.904  17.381  0.00  0.00    +0.000 A 
ATOM     40  H   UNL     1      50.705   5.116  18.079  0.00  0.00    +0.000 HD
ENDBRANCH  27  30
ENDBRANCH  25  26
ENDBRANCH   6  25
TORSDOF 11
ENDMDL
MODEL 6
REMARK VINA RESULT:    -5.963      2.994      7.226
REMARK INTER + INTRA:         -11.854
REMARK INTER:                  -9.208
REMARK INTRA:                  -2.646
REMARK UNBOUND:                -2.405
REMARK  Name = 
REMARK  11 active torsions:
REMARK  status: ('A' for Active; 'I' for Inactive)
REMARK    1  A    between atoms: N_1  and  C_2
REMARK    2  A    between atoms: C_2  and  C_3
REMARK    3  A    between atoms: C_3  and  N_4
REMARK    4  A    between atoms: N_4  and  C_5
REMARK    5  A    between atoms: C_5  and  C_6
REMARK    6  A    between atoms: C_8  and  C_9
REMARK    7  A    between atoms: C_9  and  N_10
REMARK    8  A    between atoms: C_13  and  N_14
REMARK    9  A    between atoms: C_19  and  C_20
REMARK   10  A    between atoms: C_20  and  N_21
REMARK   11  A    between atoms: C_22  and  C_24
REMARK                            x       y       z     vdW  Elec       q    Type
REMARK                         _______ _______ _______ _____ _____    ______ ____
ROOT
ATOM      1  C   UNL     1      49.769   7.872  15.537  0.00  0.00    +0.000 A 
ATOM      2  C   UNL     1      50.252   7.124  16.638  0.00  0.00    +0.000 A 
ATOM      3  C   UNL     1      49.804   7.311  17.949  0.00  0.00    +0.000 A 
ATOM      4  C   UNL     1      48.832   8.293  18.156  0.00  0.00    +0.000 A 
ATOM      5  C   UNL     1      48.264   8.977  17.065  0.00  0.00    +0.000 A 
ATOM      6  C   UNL     1      48.680   8.744  15.735  0.00  0.00    +0.000 A 
ENDROOT
BRANCH   1   7
ATOM      7  C   UNL     1      50.473   7.605  14.224  0.00  0.00    +0.000 C 
BRANCH   7   8
ATOM      8  N   UNL     1      49.679   7.049  13.129  0.00  0.00    +0.000 NA
ATOM      9  H   UNL     1      49.723   6.034  13.199  0.00  0.00    +0.000 HD
BRANCH   8  10
ATOM     10  C   UNL     1      50.134   7.450  11.791  0.00  0.00    +0.000 C 
BRANCH  10  11
ATOM     11  C   UNL     1      50.830   8.823  11.897  0.00  0.00    +0.000 C 
BRANCH  11  12
ATOM     12  N   UNL     1      49.992   9.921  11.422  0.00  0.00    +0.000 NA
ATOM     13  H   UNL     1      49.161   9.533  10.977  0.00  0.00    +0.000 HD
ATOM     14  H   UNL     1      50.483  10.454  10.706  0.00  0.00    +0.000 HD
ENDBRANCH  11  12
ENDBRANCH  10  11
ENDBRANCH   8  10
ENDBRANCH   7   8
ENDBRANCH   1   7
BRANCH   3  15
ATOM     15  C   UNL     1      50.261   6.369  19.046  0.00  0.00    +0.000 C 
BRANCH  15  16
ATOM     16  N   UNL     1      49.554   5.115  19.299  0.00  0.00    +0.000 NA
ATOM     17  C   UNL     1      49.832   3.990  18.427  0.00  0.00    +0.000 C 
ATOM     18  C   UNL     1      48.934   3.920  17.196  0.00  0.00    +0.000 C 
ATOM     19  C   UNL     1      47.439   4.156  17.468  0.00  0.00    +0.000 C 
ATOM     20  C   UNL     1      47.164   5.192  18.564  0.00  0.00    +0.000 C 
ATOM     21  C   UNL     1      48.161   5.168  19.716  0.00  0.00    +0.000 C 
BRANCH  19  22
ATOM     22  N   UNL     1      46.738   2.903  17.775  0.00  0.00    +0.000 NA
ATOM     23  H   UNL     1      47.312   2.102  17.520  0.00  0.00    +0.000 HD
ATOM     24  H   UNL     1      45.894   2.846  17.205  0.00  0.00    +0.000 HD
ENDBRANCH  19  22
ENDBRANCH  15  16
ENDBRANCH   3  15
BRANCH   6  25
ATOM     25  C   UNL     1      47.919   9.428  14.612  0.00  0.00    +0.000 C 
BRANCH  25  26
ATOM     26  N   UNL     1      46.786   8.658  14.113  0.00  0.00    +0.000 N 
ATOM     27  C   UNL     1      46.601   8.445  12.769  0.00  0.00    +0.000 C 
ATOM     28  O   UNL     1      47.287   9.041  11.932  0.00  0.00    +0.000 OA
ATOM     29  H   UNL     1      46.241   8.136  14.792  0.00  0.00    +0.000 HD
BRANCH  27  30
ATOM     30  C   UNL     1      45.585   7.472  12.326  0.00  0.00    +0.000 A 
ATOM     31  C   UNL     1      44.543   7.927  11.521  0.00  0.00    +0.000 A 
ATOM     32  S   UNL     1      43.453   6.719  11.028  0.00  0.00    +0.000 S 
ATOM     33  C   UNL     1      44.334   5.523  11.850  0.00  0.00    +0.000 A 
ATOM     34  N   UNL     1      43.938   4.221  11.789  0.00  0.00    +0.000 NA
ATOM     35  C   UNL     1      44.707   3.403  12.429  0.00  0.00    +0.000 A 
ATOM     36  N   UNL     1      45.824   3.779  13.136  0.00  0.00    +0.000 N 
ATOM     37  C   UNL     1      46.240   5.087  13.250  0.00  0.00    +0.000 A 
ATOM     38  O   UNL     1      47.211   5.391  13.934  0.00  0.00    +0.000 OA
ATOM     39  C   UNL     1      45.430   6.045  12.519  0.00  0.00    +0.000 A 
ATOM     40  H   UNL     1      46.367   3.090  13.628  0.00  0.00    +0.000 HD
ENDBRANCH  27  30
ENDBRANCH  25  26
ENDBRANCH   6  25
TORSDOF 11
ENDMDL
MODEL 7
REMARK VINA RESULT:    -5.950      3.584      5.330
REMARK INTER + INTRA:         -11.834
REMARK INTER:                 -10.668
REMARK INTRA:                  -1.166
REMARK UNBOUND:                -2.405
REMARK  Name = 
REMARK  11 active torsions:
REMARK  status: ('A' for Active; 'I' for Inactive)
REMARK    1  A    between atoms: N_1  and  C_2
REMARK    2  A    between atoms: C_2  and  C_3
REMARK    3  A    between atoms: C_3  and  N_4
REMARK    4  A    between atoms: N_4  and  C_5
REMARK    5  A    between atoms: C_5  and  C_6
REMARK    6  A    between atoms: C_8  and  C_9
REMARK    7  A    between atoms: C_9  and  N_10
REMARK    8  A    between atoms: C_13  and  N_14
REMARK    9  A    between atoms: C_19  and  C_20
REMARK   10  A    between atoms: C_20  and  N_21
REMARK   11  A    between atoms: C_22  and  C_24
REMARK                            x       y       z     vdW  Elec       q    Type
REMARK                         _______ _______ _______ _____ _____    ______ ____
ROOT
ATOM      1  C   UNL     1      46.297   5.478  12.881  0.00  0.00    +0.000 A 
ATOM      2  C   UNL     1      45.788   4.278  12.326  0.00  0.00    +0.000 A 
ATOM      3  C   UNL     1      44.614   4.221  11.570  0.00  0.00    +0.000 A 
ATOM      4  C   UNL     1      43.926   5.420  11.369  0.00  0.00    +0.000 A 
ATOM      5  C   UNL     1      44.465   6.638  11.822  0.00  0.00    +0.000 A 
ATOM      6  C   UNL     1      45.683   6.698  12.537  0.00  0.00    +0.000 A 
ENDROOT
BRANCH   1   7
ATOM      7  C   UNL     1      47.509   5.307  13.771  0.00  0.00    +0.000 C 
BRANCH   7   8
ATOM      8  N   UNL     1      47.442   5.856  15.125  0.00  0.00    +0.000 NA
ATOM      9  H   UNL     1      47.883   6.774  15.109  0.00  0.00    +0.000 HD
BRANCH   8  10
ATOM     10  C   UNL     1      48.106   5.031  16.142  0.00  0.00    +0.000 C 
BRANCH  10  11
ATOM     11  C   UNL     1      47.441   3.639  16.161  0.00  0.00    +0.000 C 
BRANCH  11  12
ATOM     12  N   UNL     1      46.698   3.382  17.392  0.00  0.00    +0.000 NA
ATOM     13  H   UNL     1      45.730   3.169  17.155  0.00  0.00    +0.000 HD
ATOM     14  H   UNL     1      46.679   4.219  17.972  0.00  0.00    +0.000 HD
ENDBRANCH  11  12
ENDBRANCH  10  11
ENDBRANCH   8  10
ENDBRANCH   7   8
ENDBRANCH   1   7
BRANCH   3  15
ATOM     15  C   UNL     1      44.217   2.926  10.887  0.00  0.00    +0.000 C 
BRANCH  15  16
ATOM     16  N   UNL     1      44.110   2.850   9.432  0.00  0.00    +0.000 NA
ATOM     17  C   UNL     1      44.567   1.636   8.780  0.00  0.00    +0.000 C 
ATOM     18  C   UNL     1      46.041   1.657   8.388  0.00  0.00    +0.000 C 
ATOM     19  C   UNL     1      46.515   2.956   7.715  0.00  0.00    +0.000 C 
ATOM     20  C   UNL     1      45.847   4.221   8.265  0.00  0.00    +0.000 C 
ATOM     21  C   UNL     1      44.382   4.043   8.645  0.00  0.00    +0.000 C 
BRANCH  19  22
ATOM     22  N   UNL     1      46.359   2.900   6.256  0.00  0.00    +0.000 NA
ATOM     23  H   UNL     1      45.613   3.524   5.954  0.00  0.00    +0.000 HD
ATOM     24  H   UNL     1      46.073   1.959   5.988  0.00  0.00    +0.000 HD
ENDBRANCH  19  22
ENDBRANCH  15  16
ENDBRANCH   3  15
BRANCH   6  25
ATOM     25  C   UNL     1      46.255   8.066  12.869  0.00  0.00    +0.000 C 
BRANCH  25  26
ATOM     26  N   UNL     1      47.595   8.290  12.339  0.00  0.00    +0.000 N 
ATOM     27  C   UNL     1      48.159   9.542  12.323  0.00  0.00    +0.000 C 
ATOM     28  O   UNL     1      47.489  10.543  12.596  0.00  0.00    +0.000 OA
ATOM     29  H   UNL     1      48.164   7.470  12.148  0.00  0.00    +0.000 HD
BRANCH  27  30
ATOM     30  C   UNL     1      49.591   9.683  11.999  0.00  0.00    +0.000 A 
ATOM     31  C   UNL     1      49.952  10.549  10.970  0.00  0.00    +0.000 A 
ATOM     32  S   UNL     1      51.628  10.675  10.708  0.00  0.00    +0.000 S 
ATOM     33  C   UNL     1      51.954   9.591  11.974  0.00  0.00    +0.000 A 
ATOM     34  N   UNL     1      53.242   9.295  12.303  0.00  0.00    +0.000 NA
ATOM     35  C   UNL     1      53.360   8.483  13.302  0.00  0.00    +0.000 A 
ATOM     36  N   UNL     1      52.302   7.933  13.985  0.00  0.00    +0.000 N 
ATOM     37  C   UNL     1      50.986   8.180  13.664  0.00  0.00    +0.000 A 
ATOM     38  O   UNL     1      50.068   7.629  14.261  0.00  0.00    +0.000 OA
ATOM     39  C   UNL     1      50.796   9.116  12.569  0.00  0.00    +0.000 A 
ATOM     40  H   UNL     1      52.467   7.292  14.742  0.00  0.00    +0.000 HD
ENDBRANCH  27  30
ENDBRANCH  25  26
ENDBRANCH   6  25
TORSDOF 11
ENDMDL
MODEL 8
REMARK VINA RESULT:    -5.920      3.724      6.009
REMARK INTER + INTRA:         -11.787
REMARK INTER:                 -10.828
REMARK INTRA:                  -0.959
REMARK UNBOUND:                -2.405
REMARK  Name = 
REMARK  11 active torsions:
REMARK  status: ('A' for Active; 'I' for Inactive)
REMARK    1  A    between atoms: N_1  and  C_2
REMARK    2  A    between atoms: C_2  and  C_3
REMARK    3  A    between atoms: C_3  and  N_4
REMARK    4  A    between atoms: N_4  and  C_5
REMARK    5  A    between atoms: C_5  and  C_6
REMARK    6  A    between atoms: C_8  and  C_9
REMARK    7  A    between atoms: C_9  and  N_10
REMARK    8  A    between atoms: C_13  and  N_14
REMARK    9  A    between atoms: C_19  and  C_20
REMARK   10  A    between atoms: C_20  and  N_21
REMARK   11  A    between atoms: C_22  and  C_24
REMARK                            x       y       z     vdW  Elec       q    Type
REMARK                         _______ _______ _______ _____ _____    ______ ____
ROOT
ATOM      1  C   UNL     1      45.979   5.577  13.018  0.00  0.00    +0.000 A 
ATOM      2  C   UNL     1      45.720   4.332  12.395  0.00  0.00    +0.000 A 
ATOM      3  C   UNL     1      44.750   4.157  11.404  0.00  0.00    +0.000 A 
ATOM      4  C   UNL     1      44.013   5.282  11.028  0.00  0.00    +0.000 A 
ATOM      5  C   UNL     1      44.323   6.548  11.557  0.00  0.00    +0.000 A 
ATOM      6  C   UNL     1      45.343   6.731  12.518  0.00  0.00    +0.000 A 
ENDROOT
BRANCH   1   7
ATOM      7  C   UNL     1      46.979   5.529  14.153  0.00  0.00    +0.000 C 
BRANCH   7   8
ATOM      8  N   UNL     1      47.308   4.220  14.715  0.00  0.00    +0.000 NA
ATOM      9  H   UNL     1      46.454   3.664  14.724  0.00  0.00    +0.000 HD
BRANCH   8  10
ATOM     10  C   UNL     1      47.853   4.269  16.078  0.00  0.00    +0.000 C 
BRANCH  10  11
ATOM     11  C   UNL     1      47.973   2.827  16.614  0.00  0.00    +0.000 C 
BRANCH  11  12
ATOM     12  N   UNL     1      49.155   2.132  16.111  0.00  0.00    +0.000 NA
ATOM     13  H   UNL     1      49.987   2.565  16.510  0.00  0.00    +0.000 HD
ATOM     14  H   UNL     1      49.225   2.242  15.101  0.00  0.00    +0.000 HD
ENDBRANCH  11  12
ENDBRANCH  10  11
ENDBRANCH   8  10
ENDBRANCH   7   8
ENDBRANCH   1   7
BRANCH   3  15
ATOM     15  C   UNL     1      44.637   2.827  10.684  0.00  0.00    +0.000 C 
BRANCH  15  16
ATOM     16  N   UNL     1      44.470   2.773   9.233  0.00  0.00    +0.000 NA
ATOM     17  C   UNL     1      44.875   1.561   8.546  0.00  0.00    +0.000 C 
ATOM     18  C   UNL     1      46.332   1.560   8.095  0.00  0.00    +0.000 C 
ATOM     19  C   UNL     1      46.804   2.859   7.420  0.00  0.00    +0.000 C 
ATOM     20  C   UNL     1      46.184   4.128   8.014  0.00  0.00    +0.000 C 
ATOM     21  C   UNL     1      44.732   3.973   8.452  0.00  0.00    +0.000 C 
BRANCH  19  22
ATOM     22  N   UNL     1      46.587   2.827   5.968  0.00  0.00    +0.000 NA
ATOM     23  H   UNL     1      46.913   3.692   5.542  0.00  0.00    +0.000 HD
ATOM     24  H   UNL     1      45.586   2.773   5.783  0.00  0.00    +0.000 HD
ENDBRANCH  19  22
ENDBRANCH  15  16
ENDBRANCH   3  15
BRANCH   6  25
ATOM     25  C   UNL     1      45.697   8.149  12.932  0.00  0.00    +0.000 C 
BRANCH  25  26
ATOM     26  N   UNL     1      46.979   8.612  12.416  0.00  0.00    +0.000 N 
ATOM     27  C   UNL     1      48.039   8.863  13.252  0.00  0.00    +0.000 C 
ATOM     28  O   UNL     1      47.892   8.872  14.478  0.00  0.00    +0.000 OA
ATOM     29  H   UNL     1      47.120   8.570  11.410  0.00  0.00    +0.000 HD
BRANCH  27  30
ATOM     30  C   UNL     1      49.375   9.100  12.671  0.00  0.00    +0.000 A 
ATOM     31  C   UNL     1      50.445   8.349  13.151  0.00  0.00    +0.000 A 
ATOM     32  S   UNL     1      51.929   8.665  12.384  0.00  0.00    +0.000 S 
ATOM     33  C   UNL     1      51.208   9.807  11.355  0.00  0.00    +0.000 A 
ATOM     34  N   UNL     1      51.953  10.434  10.402  0.00  0.00    +0.000 NA
ATOM     35  C   UNL     1      51.284  11.257   9.663  0.00  0.00    +0.000 A 
ATOM     36  N   UNL     1      49.942  11.516   9.808  0.00  0.00    +0.000 N 
ATOM     37  C   UNL     1      49.160  10.930  10.779  0.00  0.00    +0.000 A 
ATOM     38  O   UNL     1      47.978  11.226  10.912  0.00  0.00    +0.000 OA
ATOM     39  C   UNL     1      49.856   9.968  11.616  0.00  0.00    +0.000 A 
ATOM     40  H   UNL     1      49.488  12.184   9.209  0.00  0.00    +0.000 HD
ENDBRANCH  27  30
ENDBRANCH  25  26
ENDBRANCH   6  25
TORSDOF 11
ENDMDL
MODEL 9
REMARK VINA RESULT:    -5.870      3.849      5.068
REMARK INTER + INTRA:         -11.707
REMARK INTER:                  -9.584
REMARK INTRA:                  -2.123
REMARK UNBOUND:                -2.405
REMARK  Name = 
REMARK  11 active torsions:
REMARK  status: ('A' for Active; 'I' for Inactive)
REMARK    1  A    between atoms: N_1  and  C_2
REMARK    2  A    between atoms: C_2  and  C_3
REMARK    3  A    between atoms: C_3  and  N_4
REMARK    4  A    between atoms: N_4  and  C_5
REMARK    5  A    between atoms: C_5  and  C_6
REMARK    6  A    between atoms: C_8  and  C_9
REMARK    7  A    between atoms: C_9  and  N_10
REMARK    8  A    between atoms: C_13  and  N_14
REMARK    9  A    between atoms: C_19  and  C_20
REMARK   10  A    between atoms: C_20  and  N_21
REMARK   11  A    between atoms: C_22  and  C_24
REMARK                            x       y       z     vdW  Elec       q    Type
REMARK                         _______ _______ _______ _____ _____    ______ ____
ROOT
ATOM      1  C   UNL     1      48.926   7.116  15.643  0.00  0.00    +0.000 A 
ATOM      2  C   UNL     1      48.002   6.664  14.669  0.00  0.00    +0.000 A 
ATOM      3  C   UNL     1      48.231   6.756  13.294  0.00  0.00    +0.000 A 
ATOM      4  C   UNL     1      49.438   7.328  12.885  0.00  0.00    +0.000 A 
ATOM      5  C   UNL     1      50.414   7.689  13.832  0.00  0.00    +0.000 A 
ATOM      6  C   UNL     1      50.201   7.542  15.221  0.00  0.00    +0.000 A 
ENDROOT
BRANCH   1   7
ATOM      7  C   UNL     1      48.437   7.042  17.073  0.00  0.00    +0.000 C 
BRANCH   7   8
ATOM      8  N   UNL     1      48.519   5.750  17.754  0.00  0.00    +0.000 NA
ATOM      9  H   UNL     1      48.986   5.098  17.125  0.00  0.00    +0.000 HD
BRANCH   8  10
ATOM     10  C   UNL     1      47.218   5.187  18.137  0.00  0.00    +0.000 C 
BRANCH  10  11
ATOM     11  C   UNL     1      46.826   4.106  17.107  0.00  0.00    +0.000 C 
BRANCH  11  12
ATOM     12  N   UNL     1      46.914   2.752  17.647  0.00  0.00    +0.000 NA
ATOM     13  H   UNL     1      47.055   2.807  18.655  0.00  0.00    +0.000 HD
ATOM     14  H   UNL     1      47.727   2.273  17.264  0.00  0.00    +0.000 HD
ENDBRANCH  11  12
ENDBRANCH  10  11
ENDBRANCH   8  10
ENDBRANCH   7   8
ENDBRANCH   1   7
BRANCH   3  15
ATOM     15  C   UNL     1      47.260   6.114  12.321  0.00  0.00    +0.000 C 
BRANCH  15  16
ATOM     16  N   UNL     1      45.891   5.801  12.728  0.00  0.00    +0.000 NA
ATOM     17  C   UNL     1      45.637   4.495  13.308  0.00  0.00    +0.000 C 
ATOM     18  C   UNL     1      45.280   3.419  12.288  0.00  0.00    +0.000 C 
ATOM     19  C   UNL     1      44.259   3.849  11.222  0.00  0.00    +0.000 C 
ATOM     20  C   UNL     1      44.397   5.310  10.782  0.00  0.00    +0.000 C 
ATOM     21  C   UNL     1      44.790   6.269  11.900  0.00  0.00    +0.000 C 
BRANCH  19  22
ATOM     22  N   UNL     1      42.880   3.583  11.651  0.00  0.00    +0.000 NA
ATOM     23  H   UNL     1      42.291   4.394  11.475  0.00  0.00    +0.000 HD
ATOM     24  H   UNL     1      42.870   3.432  12.659  0.00  0.00    +0.000 HD
ENDBRANCH  19  22
ENDBRANCH  15  16
ENDBRANCH   3  15
BRANCH   6  25
ATOM     25  C   UNL     1      51.360   7.831  16.161  0.00  0.00    +0.000 C 
BRANCH  25  26
ATOM     26  N   UNL     1      52.175   6.663  16.470  0.00  0.00    +0.000 N 
ATOM     27  C   UNL     1      52.081   6.025  17.683  0.00  0.00    +0.000 C 
ATOM     28  O   UNL     1      51.434   6.519  18.611  0.00  0.00    +0.000 OA
ATOM     29  H   UNL     1      52.680   6.230  15.703  0.00  0.00    +0.000 HD
BRANCH  27  30
ATOM     30  C   UNL     1      52.745   4.720  17.864  0.00  0.00    +0.000 A 
ATOM     31  C   UNL     1      54.084   4.709  18.247  0.00  0.00    +0.000 A 
ATOM     32  S   UNL     1      54.741   3.157  18.474  0.00  0.00    +0.000 S 
ATOM     33  C   UNL     1      53.258   2.423  18.091  0.00  0.00    +0.000 A 
ATOM     34  N   UNL     1      53.135   1.067  18.140  0.00  0.00    +0.000 NA
ATOM     35  C   UNL     1      51.952   0.632  17.858  0.00  0.00    +0.000 A 
ATOM     36  N   UNL     1      50.890   1.435  17.515  0.00  0.00    +0.000 N 
ATOM     37  C   UNL     1      50.980   2.806  17.421  0.00  0.00    +0.000 A 
ATOM     38  O   UNL     1      50.026   3.486  17.060  0.00  0.00    +0.000 OA
ATOM     39  C   UNL     1      52.282   3.351  17.763  0.00  0.00    +0.000 A 
ATOM     40  H   UNL     1      50.000   1.027  17.289  0.00  0.00    +0.000 HD
ENDBRANCH  27  30
ENDBRANCH  25  26
ENDBRANCH   6  25
TORSDOF 11
ENDMDL
