MODEL 1
REMARK VINA RESULT:    -8.556      0.000      0.000
REMARK INTER + INTRA:         -12.638
REMARK INTER:                 -11.557
REMARK INTRA:                  -1.081
REMARK UNBOUND:                -1.081
REMARK  Name = 
REMARK  6 active torsions:
REMARK  status: ('A' for Active; 'I' for Inactive)
REMARK    1  A    between atoms: C_2  and  C_19
REMARK    2  A    between atoms: N_3  and  C_4
REMARK    3  A    between atoms: C_4  and  C_5
REMARK    4  A    between atoms: C_8  and  C_9
REMARK    5  A    between atoms: C_9  and  N_10
REMARK    6  A    between atoms: N_10  and  C_11
REMARK                            x       y       z     vdW  Elec       q    Type
REMARK                         _______ _______ _______ _____ _____    ______ ____
ROOT
ATOM      1  C   UNL     1      46.465   6.622  12.675  0.00  0.00    +0.000 C 
ENDROOT
BRANCH   1   2
ATOM      2  C   UNL     1      45.247   5.784  12.392  0.00  0.00    +0.000 C 
ATOM      3  C   UNL     1      44.899   4.739  13.169  0.00  0.00    +0.000 C 
ATOM      4  C   UNL     1      43.756   3.811  12.858  0.00  0.00    +0.000 C 
ATOM      5  C   UNL     1      43.298   3.889  11.391  0.00  0.00    +0.000 C 
ATOM      6  C   UNL     1      43.155   5.370  10.998  0.00  0.00    +0.000 C 
ATOM      7  C   UNL     1      44.471   6.142  11.145  0.00  0.00    +0.000 C 
BRANCH   5   8
ATOM      8  C   UNL     1      44.255   3.150  10.428  0.00  0.00    +0.000 C 
BRANCH   8   9
ATOM      9  N   UNL     1      44.125   3.641   9.053  0.00  0.00    +0.000 NA
ATOM     10  H   UNL     1      44.336   4.638   9.021  0.00  0.00    +0.000 HD
BRANCH   9  11
ATOM     11  C   UNL     1      44.972   2.915   8.095  0.00  0.00    +0.000 C 
ATOM     12  C   UNL     1      45.604   1.651   8.691  0.00  0.00    +0.000 C 
ATOM     13  C   UNL     1      46.613   1.044   7.727  0.00  0.00    +0.000 C 
ATOM     14  O   UNL     1      47.608   1.997   7.365  0.00  0.00    +0.000 OA
ATOM     15  C   UNL     1      47.049   3.123   6.691  0.00  0.00    +0.000 C 
ATOM     16  C   UNL     1      46.073   3.862   7.596  0.00  0.00    +0.000 C 
ENDBRANCH   9  11
ENDBRANCH   8   9
ENDBRANCH   5   8
ENDBRANCH   1   2
BRANCH   1  19
ATOM     17  O   UNL     1      49.114   6.565  13.508  0.00  0.00    +0.000 OA
ATOM     18  C   UNL     1      48.233   6.394  14.347  0.00  0.00    +0.000 C 
ATOM     19  N   UNL     1      46.901   6.365  14.018  0.00  0.00    +0.000 N 
ATOM     20  H   UNL     1      46.204   6.418  14.752  0.00  0.00    +0.000 HD
BRANCH  18  21
ATOM     21  C   UNL     1      48.553   6.162  15.759  0.00  0.00    +0.000 A 
ATOM     22  C   UNL     1      49.106   7.181  16.524  0.00  0.00    +0.000 A 
ATOM     23  S   UNL     1      49.410   6.729  18.141  0.00  0.00    +0.000 S 
ATOM     24  C   UNL     1      48.776   5.168  17.881  0.00  0.00    +0.000 A 
ATOM     25  N   UNL     1      48.703   4.264  18.894  0.00  0.00    +0.000 NA
ATOM     26  C   UNL     1      48.162   3.138  18.567  0.00  0.00    +0.000 A 
ATOM     27  N   UNL     1      47.700   2.829  17.311  0.00  0.00    +0.000 N 
ATOM     28  C   UNL     1      47.803   3.692  16.248  0.00  0.00    +0.000 A 
ATOM     29  O   UNL     1      47.459   3.347  15.120  0.00  0.00    +0.000 OA
ATOM     30  C   UNL     1      48.368   4.986  16.573  0.00  0.00    +0.000 A 
ATOM     31  H   UNL     1      47.310   1.919  17.114  0.00  0.00    +0.000 HD
ENDBRANCH  18  21
ENDBRANCH   1  19
TORSDOF 6
ENDMDL
MODEL 2
REMARK VINA RESULT:    -8.197      1.997      2.828
REMARK INTER + INTRA:         -12.153
REMARK INTER:                 -11.102
REMARK INTRA:                  -1.051
REMARK UNBOUND:                -1.081
REMARK  Name = 
REMARK  6 active torsions:
REMARK  status: ('A' for Active; 'I' for Inactive)
REMARK    1  A    between atoms: C_2  and  C_19
REMARK    2  A    between atoms: N_3  and  C_4
REMARK    3  A    between atoms: C_4  and  C_5
REMARK    4  A    between atoms: C_8  and  C_9
REMARK    5  A    between atoms: C_9  and  N_10
REMARK    6  A    between atoms: N_10  and  C_11
REMARK                            x       y       z     vdW  Elec       q    Type
REMARK                         _______ _______ _______ _____ _____    ______ ____
ROOT
ATOM      1  C   UNL     1      46.505   3.700  14.377  0.00  0.00    +0.000 C 
ENDROOT
BRANCH   1   2
ATOM      2  C   UNL     1      46.110   4.881  13.529  0.00  0.00    +0.000 C 
ATOM      3  C   UNL     1      44.822   5.177  13.266  0.00  0.00    +0.000 C 
ATOM      4  C   UNL     1      44.392   6.278  12.335  0.00  0.00    +0.000 C 
ATOM      5  C   UNL     1      45.517   6.746  11.394  0.00  0.00    +0.000 C 
ATOM      6  C   UNL     1      46.796   6.958  12.224  0.00  0.00    +0.000 C 
ATOM      7  C   UNL     1      47.249   5.678  12.934  0.00  0.00    +0.000 C 
BRANCH   5   8
ATOM      8  C   UNL     1      45.768   5.762  10.229  0.00  0.00    +0.000 C 
BRANCH   8   9
ATOM      9  N   UNL     1      44.517   5.184   9.729  0.00  0.00    +0.000 NA
ATOM     10  H   UNL     1      43.983   5.895   9.231  0.00  0.00    +0.000 HD
BRANCH   9  11
ATOM     11  C   UNL     1      44.724   4.010   8.868  0.00  0.00    +0.000 C 
ATOM     12  C   UNL     1      44.869   2.704   9.659  0.00  0.00    +0.000 C 
ATOM     13  C   UNL     1      45.267   1.556   8.742  0.00  0.00    +0.000 C 
ATOM     14  O   UNL     1      46.462   1.865   8.031  0.00  0.00    +0.000 OA
ATOM     15  C   UNL     1      46.302   3.004   7.188  0.00  0.00    +0.000 C 
ATOM     16  C   UNL     1      45.977   4.242   8.012  0.00  0.00    +0.000 C 
ENDBRANCH   9  11
ENDBRANCH   8   9
ENDBRANCH   5   8
ENDBRANCH   1   2
BRANCH   1  19
ATOM     17  O   UNL     1      46.449   3.311  17.126  0.00  0.00    +0.000 OA
ATOM     18  C   UNL     1      47.439   3.841  16.630  0.00  0.00    +0.000 C 
ATOM     19  N   UNL     1      47.535   4.111  15.288  0.00  0.00    +0.000 N 
ATOM     20  H   UNL     1      48.433   4.366  14.892  0.00  0.00    +0.000 HD
BRANCH  18  21
ATOM     21  C   UNL     1      48.574   4.268  17.455  0.00  0.00    +0.000 A 
ATOM     22  C   UNL     1      48.476   5.409  18.239  0.00  0.00    +0.000 A 
ATOM     23  S   UNL     1      49.891   5.749  19.129  0.00  0.00    +0.000 S 
ATOM     24  C   UNL     1      50.670   4.359  18.524  0.00  0.00    +0.000 A 
ATOM     25  N   UNL     1      51.927   4.029  18.925  0.00  0.00    +0.000 NA
ATOM     26  C   UNL     1      52.378   2.929  18.421  0.00  0.00    +0.000 A 
ATOM     27  N   UNL     1      51.688   2.135  17.538  0.00  0.00    +0.000 N 
ATOM     28  C   UNL     1      50.439   2.457  17.066  0.00  0.00    +0.000 A 
ATOM     29  O   UNL     1      49.890   1.767  16.211  0.00  0.00    +0.000 OA
ATOM     30  C   UNL     1      49.873   3.665  17.634  0.00  0.00    +0.000 A 
ATOM     31  H   UNL     1      52.107   1.298  17.160  0.00  0.00    +0.000 HD
ENDBRANCH  18  21
ENDBRANCH   1  19
TORSDOF 6
ENDMDL
MODEL 3
REMARK VINA RESULT:    -7.957      1.685      2.767
REMARK INTER + INTRA:         -11.830
REMARK INTER:                 -10.727
REMARK INTRA:                  -1.102
REMARK UNBOUND:                -1.081
REMARK  Name = 
REMARK  6 active torsions:
REMARK  status: ('A' for Active; 'I' for Inactive)
REMARK    1  A    between atoms: C_2  and  C_19
REMARK    2  A    between atoms: N_3  and  C_4
REMARK    3  A    between atoms: C_4  and  C_5
REMARK    4  A    between atoms: C_8  and  C_9
REMARK    5  A    between atoms: C_9  and  N_10
REMARK    6  A    between atoms: N_10  and  C_11
REMARK                            x       y       z     vdW  Elec       q    Type
REMARK                         _______ _______ _______ _____ _____    ______ ____
ROOT
ATOM      1  C   UNL     1      46.851   3.619  13.866  0.00  0.00    +0.000 C 
ENDROOT
BRANCH   1   2
ATOM      2  C   UNL     1      45.843   4.205  12.913  0.00  0.00    +0.000 C 
ATOM      3  C   UNL     1      44.787   3.500  12.462  0.00  0.00    +0.000 C 
ATOM      4  C   UNL     1      43.823   4.011  11.426  0.00  0.00    +0.000 C 
ATOM      5  C   UNL     1      44.374   5.204  10.625  0.00  0.00    +0.000 C 
ATOM      6  C   UNL     1      44.983   6.218  11.609  0.00  0.00    +0.000 C 
ATOM      7  C   UNL     1      46.122   5.614  12.440  0.00  0.00    +0.000 C 
BRANCH   5   8
ATOM      8  C   UNL     1      45.407   4.779   9.557  0.00  0.00    +0.000 C 
BRANCH   8   9
ATOM      9  N   UNL     1      44.763   4.442   8.284  0.00  0.00    +0.000 NA
ATOM     10  H   UNL     1      44.803   5.243   7.654  0.00  0.00    +0.000 HD
BRANCH   9  11
ATOM     11  C   UNL     1      45.345   3.258   7.634  0.00  0.00    +0.000 C 
ATOM     12  C   UNL     1      45.699   2.143   8.625  0.00  0.00    +0.000 C 
ATOM     13  C   UNL     1      46.465   1.026   7.933  0.00  0.00    +0.000 C 
ATOM     14  O   UNL     1      47.630   1.532   7.287  0.00  0.00    +0.000 OA
ATOM     15  C   UNL     1      47.307   2.477   6.269  0.00  0.00    +0.000 C 
ATOM     16  C   UNL     1      46.601   3.688   6.863  0.00  0.00    +0.000 C 
ENDBRANCH   9  11
ENDBRANCH   8   9
ENDBRANCH   5   8
ENDBRANCH   1   2
BRANCH   1  19
ATOM     17  O   UNL     1      47.548   2.948  16.469  0.00  0.00    +0.000 OA
ATOM     18  C   UNL     1      47.465   4.137  16.173  0.00  0.00    +0.000 C 
ATOM     19  N   UNL     1      47.087   4.559  14.924  0.00  0.00    +0.000 N 
ATOM     20  H   UNL     1      47.218   5.530  14.664  0.00  0.00    +0.000 HD
BRANCH  18  21
ATOM     21  C   UNL     1      47.723   5.191  17.159  0.00  0.00    +0.000 A 
ATOM     22  C   UNL     1      47.167   5.109  18.429  0.00  0.00    +0.000 A 
ATOM     23  S   UNL     1      47.576   6.423  19.438  0.00  0.00    +0.000 S 
ATOM     24  C   UNL     1      48.541   7.126  18.223  0.00  0.00    +0.000 A 
ATOM     25  N   UNL     1      49.227   8.278  18.451  0.00  0.00    +0.000 NA
ATOM     26  C   UNL     1      49.952   8.674  17.458  0.00  0.00    +0.000 A 
ATOM     27  N   UNL     1      50.041   8.028  16.250  0.00  0.00    +0.000 N 
ATOM     28  C   UNL     1      49.326   6.893  15.958  0.00  0.00    +0.000 A 
ATOM     29  O   UNL     1      49.364   6.393  14.837  0.00  0.00    +0.000 OA
ATOM     30  C   UNL     1      48.526   6.385  17.056  0.00  0.00    +0.000 A 
ATOM     31  H   UNL     1      50.607   8.405  15.504  0.00  0.00    +0.000 HD
ENDBRANCH  18  21
ENDBRANCH   1  19
TORSDOF 6
ENDMDL
MODEL 4
REMARK VINA RESULT:    -7.700      2.753      4.446
REMARK INTER + INTRA:         -11.482
REMARK INTER:                 -10.359
REMARK INTRA:                  -1.122
REMARK UNBOUND:                -1.081
REMARK  Name = 
REMARK  6 active torsions:
REMARK  status: ('A' for Active; 'I' for Inactive)
REMARK    1  A    between atoms: C_2  and  C_19
REMARK    2  A    between atoms: N_3  and  C_4
REMARK    3  A    between atoms: C_4  and  C_5
REMARK    4  A    between atoms: C_8  and  C_9
REMARK    5  A    between atoms: C_9  and  N_10
REMARK    6  A    between atoms: N_10  and  C_11
REMARK                            x       y       z     vdW  Elec       q    Type
REMARK                         _______ _______ _______ _____ _____    ______ ____
ROOT
ATOM      1  C   UNL     1      46.474   4.928  13.686  0.00  0.00    +0.000 C 
ENDROOT
BRANCH   1   2
ATOM      2  C   UNL     1      45.412   4.570  12.681  0.00  0.00    +0.000 C 
ATOM      3  C   UNL     1      45.037   3.295  12.457  0.00  0.00    +0.000 C 
ATOM      4  C   UNL     1      44.062   2.887  11.385  0.00  0.00    +0.000 C 
ATOM      5  C   UNL     1      43.864   3.968  10.307  0.00  0.00    +0.000 C 
ATOM      6  C   UNL     1      43.648   5.324  11.004  0.00  0.00    +0.000 C 
ATOM      7  C   UNL     1      44.836   5.721  11.888  0.00  0.00    +0.000 C 
BRANCH   5   8
ATOM      8  C   UNL     1      45.042   4.038   9.310  0.00  0.00    +0.000 C 
BRANCH   8   9
ATOM      9  N   UNL     1      44.616   3.714   7.945  0.00  0.00    +0.000 NA
ATOM     10  H   UNL     1      44.586   4.563   7.381  0.00  0.00    +0.000 HD
BRANCH   9  11
ATOM     11  C   UNL     1      45.467   2.706   7.296  0.00  0.00    +0.000 C 
ATOM     12  C   UNL     1      45.977   1.634   8.268  0.00  0.00    +0.000 C 
ATOM     13  C   UNL     1      46.998   0.731   7.593  0.00  0.00    +0.000 C 
ATOM     14  O   UNL     1      48.074   1.493   7.054  0.00  0.00    +0.000 OA
ATOM     15  C   UNL     1      47.632   2.406   6.051  0.00  0.00    +0.000 C 
ATOM     16  C   UNL     1      46.657   3.418   6.636  0.00  0.00    +0.000 C 
ENDBRANCH   9  11
ENDBRANCH   8   9
ENDBRANCH   5   8
ENDBRANCH   1   2
BRANCH   1  19
ATOM     17  O   UNL     1      48.587   6.153  15.008  0.00  0.00    +0.000 OA
ATOM     18  C   UNL     1      48.190   6.647  13.956  0.00  0.00    +0.000 C 
ATOM     19  N   UNL     1      47.126   6.133  13.259  0.00  0.00    +0.000 N 
ATOM     20  H   UNL     1      46.954   6.445  12.309  0.00  0.00    +0.000 HD
BRANCH  18  21
ATOM     21  C   UNL     1      48.803   7.856  13.398  0.00  0.00    +0.000 A 
ATOM     22  C   UNL     1      50.182   7.936  13.256  0.00  0.00    +0.000 A 
ATOM     23  S   UNL     1      50.714   9.414  12.589  0.00  0.00    +0.000 S 
ATOM     24  C   UNL     1      49.115   9.981  12.432  0.00  0.00    +0.000 A 
ATOM     25  N   UNL     1      48.852  11.196  11.881  0.00  0.00    +0.000 NA
ATOM     26  C   UNL     1      47.596  11.479  11.784  0.00  0.00    +0.000 A 
ATOM     27  N   UNL     1      46.577  10.661  12.204  0.00  0.00    +0.000 N 
ATOM     28  C   UNL     1      46.797   9.450  12.814  0.00  0.00    +0.000 A 
ATOM     29  O   UNL     1      45.863   8.786  13.255  0.00  0.00    +0.000 OA
ATOM     30  C   UNL     1      48.192   9.069  12.910  0.00  0.00    +0.000 A 
ATOM     31  H   UNL     1      45.614  10.953  12.123  0.00  0.00    +0.000 HD
ENDBRANCH  18  21
ENDBRANCH   1  19
TORSDOF 6
ENDMDL
MODEL 5
REMARK VINA RESULT:    -7.340      2.610      7.884
REMARK INTER + INTRA:         -10.996
REMARK INTER:                  -9.748
REMARK INTRA:                  -1.248
REMARK UNBOUND:                -1.081
REMARK  Name = 
REMARK  6 active torsions:
REMARK  status: ('A' for Active; 'I' for Inactive)
REMARK    1  A    between atoms: C_2  and  C_19
REMARK    2  A    between atoms: N_3  and  C_4
REMARK    3  A    between atoms: C_4  and  C_5
REMARK    4  A    between atoms: C_8  and  C_9
REMARK    5  A    between atoms: C_9  and  N_10
REMARK    6  A    between atoms: N_10  and  C_11
REMARK                            x       y       z     vdW  Elec       q    Type
REMARK                         _______ _______ _______ _____ _____    ______ ____
ROOT
ATOM      1  C   UNL     1      47.892   7.972  11.866  0.00  0.00    +0.000 C 
ENDROOT
BRANCH   1   2
ATOM      2  C   UNL     1      48.558   8.053  13.214  0.00  0.00    +0.000 C 
ATOM      3  C   UNL     1      49.813   7.611  13.422  0.00  0.00    +0.000 C 
ATOM      4  C   UNL     1      50.472   7.571  14.774  0.00  0.00    +0.000 C 
ATOM      5  C   UNL     1      49.468   7.669  15.937  0.00  0.00    +0.000 C 
ATOM      6  C   UNL     1      48.486   8.817  15.643  0.00  0.00    +0.000 C 
ATOM      7  C   UNL     1      47.709   8.601  14.339  0.00  0.00    +0.000 C 
BRANCH   5   8
ATOM      8  C   UNL     1      48.714   6.343  16.186  0.00  0.00    +0.000 C 
BRANCH   8   9
ATOM      9  N   UNL     1      48.949   5.832  17.540  0.00  0.00    +0.000 NA
ATOM     10  H   UNL     1      48.200   6.139  18.159  0.00  0.00    +0.000 HD
BRANCH   9  11
ATOM     11  C   UNL     1      49.083   4.369  17.593  0.00  0.00    +0.000 C 
ATOM     12  C   UNL     1      50.526   3.891  17.387  0.00  0.00    +0.000 C 
ATOM     13  C   UNL     1      50.582   2.375  17.263  0.00  0.00    +0.000 C 
ATOM     14  O   UNL     1      49.733   1.920  16.214  0.00  0.00    +0.000 OA
ATOM     15  C   UNL     1      48.365   2.244  16.456  0.00  0.00    +0.000 C 
ATOM     16  C   UNL     1      48.173   3.753  16.521  0.00  0.00    +0.000 C 
ENDBRANCH   9  11
ENDBRANCH   8   9
ENDBRANCH   5   8
ENDBRANCH   1   2
BRANCH   1  19
ATOM     17  O   UNL     1      45.118   7.832  11.850  0.00  0.00    +0.000 OA
ATOM     18  C   UNL     1      45.757   6.788  11.759  0.00  0.00    +0.000 C 
ATOM     19  N   UNL     1      47.128   6.759  11.800  0.00  0.00    +0.000 N 
ATOM     20  H   UNL     1      47.618   5.914  11.529  0.00  0.00    +0.000 HD
BRANCH  18  21
ATOM     21  C   UNL     1      45.089   5.487  11.646  0.00  0.00    +0.000 A 
ATOM     22  C   UNL     1      44.369   4.978  12.719  0.00  0.00    +0.000 A 
ATOM     23  S   UNL     1      43.661   3.458  12.404  0.00  0.00    +0.000 S 
ATOM     24  C   UNL     1      44.261   3.448  10.809  0.00  0.00    +0.000 A 
ATOM     25  N   UNL     1      43.981   2.423   9.961  0.00  0.00    +0.000 NA
ATOM     26  C   UNL     1      44.463   2.566   8.771  0.00  0.00    +0.000 A 
ATOM     27  N   UNL     1      45.215   3.637   8.358  0.00  0.00    +0.000 N 
ATOM     28  C   UNL     1      45.567   4.667   9.195  0.00  0.00    +0.000 A 
ATOM     29  O   UNL     1      46.314   5.565   8.813  0.00  0.00    +0.000 OA
ATOM     30  C   UNL     1      45.016   4.573  10.532  0.00  0.00    +0.000 A 
ATOM     31  H   UNL     1      45.585   3.677   7.420  0.00  0.00    +0.000 HD
ENDBRANCH  18  21
ENDBRANCH   1  19
TORSDOF 6
ENDMDL
MODEL 6
REMARK VINA RESULT:    -7.165      3.482      8.226
REMARK INTER + INTRA:         -10.759
REMARK INTER:                  -9.110
REMARK INTRA:                  -1.649
REMARK UNBOUND:                -1.081
REMARK  Name = 
REMARK  6 active torsions:
REMARK  status: ('A' for Active; 'I' for Inactive)
REMARK    1  A    between atoms: C_2  and  C_19
REMARK    2  A    between atoms: N_3  and  C_4
REMARK    3  A    between atoms: C_4  and  C_5
REMARK    4  A    between atoms: C_8  and  C_9
REMARK    5  A    between atoms: C_9  and  N_10
REMARK    6  A    between atoms: N_10  and  C_11
REMARK                            x       y       z     vdW  Elec       q    Type
REMARK                         _______ _______ _______ _____ _____    ______ ____
ROOT
ATOM      1  C   UNL     1      47.592   3.712  16.555  0.00  0.00    +0.000 C 
ENDROOT
BRANCH   1   2
ATOM      2  C   UNL     1      47.712   4.366  17.906  0.00  0.00    +0.000 C 
ATOM      3  C   UNL     1      46.977   5.441  18.251  0.00  0.00    +0.000 C 
ATOM      4  C   UNL     1      47.147   6.188  19.546  0.00  0.00    +0.000 C 
ATOM      5  C   UNL     1      48.489   5.896  20.239  0.00  0.00    +0.000 C 
ATOM      6  C   UNL     1      48.718   4.374  20.247  0.00  0.00    +0.000 C 
ATOM      7  C   UNL     1      48.755   3.783  18.833  0.00  0.00    +0.000 C 
BRANCH   5   8
ATOM      8  C   UNL     1      49.675   6.633  19.576  0.00  0.00    +0.000 C 
BRANCH   8   9
ATOM      9  N   UNL     1      49.265   7.923  19.013  0.00  0.00    +0.000 NA
ATOM     10  H   UNL     1      49.573   8.679  19.623  0.00  0.00    +0.000 HD
BRANCH   9  11
ATOM     11  C   UNL     1      49.758   8.143  17.646  0.00  0.00    +0.000 C 
ATOM     12  C   UNL     1      48.642   8.491  16.653  0.00  0.00    +0.000 C 
ATOM     13  C   UNL     1      49.174   8.522  15.228  0.00  0.00    +0.000 C 
ATOM     14  O   UNL     1      49.797   7.287  14.891  0.00  0.00    +0.000 OA
ATOM     15  C   UNL     1      50.922   7.011  15.724  0.00  0.00    +0.000 C 
ATOM     16  C   UNL     1      50.493   6.878  17.179  0.00  0.00    +0.000 C 
ENDBRANCH   9  11
ENDBRANCH   8   9
ENDBRANCH   5   8
ENDBRANCH   1   2
BRANCH   1  19
ATOM     17  O   UNL     1      47.149   3.238  13.854  0.00  0.00    +0.000 OA
ATOM     18  C   UNL     1      46.810   4.322  14.321  0.00  0.00    +0.000 C 
ATOM     19  N   UNL     1      47.029   4.658  15.633  0.00  0.00    +0.000 N 
ATOM     20  H   UNL     1      46.567   5.471  16.024  0.00  0.00    +0.000 HD
BRANCH  18  21
ATOM     21  C   UNL     1      46.187   5.355  13.487  0.00  0.00    +0.000 A 
ATOM     22  C   UNL     1      46.884   6.516  13.180  0.00  0.00    +0.000 A 
ATOM     23  S   UNL     1      46.002   7.600  12.201  0.00  0.00    +0.000 S 
ATOM     24  C   UNL     1      44.674   6.535  12.123  0.00  0.00    +0.000 A 
ATOM     25  N   UNL     1      43.569   6.844  11.393  0.00  0.00    +0.000 NA
ATOM     26  C   UNL     1      42.659   5.928  11.387  0.00  0.00    +0.000 A 
ATOM     27  N   UNL     1      42.749   4.734  12.060  0.00  0.00    +0.000 N 
ATOM     28  C   UNL     1      43.821   4.404  12.851  0.00  0.00    +0.000 A 
ATOM     29  O   UNL     1      43.827   3.366  13.507  0.00  0.00    +0.000 OA
ATOM     30  C   UNL     1      44.889   5.384  12.858  0.00  0.00    +0.000 A 
ATOM     31  H   UNL     1      41.989   4.070  12.035  0.00  0.00    +0.000 HD
ENDBRANCH  18  21
ENDBRANCH   1  19
TORSDOF 6
ENDMDL
MODEL 7
REMARK VINA RESULT:    -6.905      3.344      4.209
REMARK INTER + INTRA:         -10.408
REMARK INTER:                  -9.424
REMARK INTRA:                  -0.984
REMARK UNBOUND:                -1.081
REMARK  Name = 
REMARK  6 active torsions:
REMARK  status: ('A' for Active; 'I' for Inactive)
REMARK    1  A    between atoms: C_2  and  C_19
REMARK    2  A    between atoms: N_3  and  C_4
REMARK    3  A    between atoms: C_4  and  C_5
REMARK    4  A    between atoms: C_8  and  C_9
REMARK    5  A    between atoms: C_9  and  N_10
REMARK    6  A    between atoms: N_10  and  C_11
REMARK                            x       y       z     vdW  Elec       q    Type
REMARK                         _______ _______ _______ _____ _____    ______ ____
ROOT
ATOM      1  C   UNL     1      44.993   7.722  12.462  0.00  0.00    +0.000 C 
ENDROOT
BRANCH   1   2
ATOM      2  C   UNL     1      44.753   6.285  12.080  0.00  0.00    +0.000 C 
ATOM      3  C   UNL     1      45.556   5.288  12.499  0.00  0.00    +0.000 C 
ATOM      4  C   UNL     1      45.414   3.858  12.051  0.00  0.00    +0.000 C 
ATOM      5  C   UNL     1      44.572   3.707  10.772  0.00  0.00    +0.000 C 
ATOM      6  C   UNL     1      43.291   4.548  10.925  0.00  0.00    +0.000 C 
ATOM      7  C   UNL     1      43.592   6.035  11.144  0.00  0.00    +0.000 C 
BRANCH   5   8
ATOM      8  C   UNL     1      45.348   4.106   9.497  0.00  0.00    +0.000 C 
BRANCH   8   9
ATOM      9  N   UNL     1      44.649   3.677   8.281  0.00  0.00    +0.000 NA
ATOM     10  H   UNL     1      44.429   4.488   7.704  0.00  0.00    +0.000 HD
BRANCH   9  11
ATOM     11  C   UNL     1      45.403   2.688   7.497  0.00  0.00    +0.000 C 
ATOM     12  C   UNL     1      46.034   1.590   8.362  0.00  0.00    +0.000 C 
ATOM     13  C   UNL     1      46.954   0.706   7.532  0.00  0.00    +0.000 C 
ATOM     14  O   UNL     1      47.951   1.484   6.877  0.00  0.00    +0.000 OA
ATOM     15  C   UNL     1      47.383   2.425   5.967  0.00  0.00    +0.000 C 
ATOM     16  C   UNL     1      46.497   3.419   6.705  0.00  0.00    +0.000 C 
ENDBRANCH   9  11
ENDBRANCH   8   9
ENDBRANCH   5   8
ENDBRANCH   1   2
BRANCH   1  19
ATOM     17  O   UNL     1      46.052  10.284  12.290  0.00  0.00    +0.000 OA
ATOM     18  C   UNL     1      46.819   9.328  12.220  0.00  0.00    +0.000 C 
ATOM     19  N   UNL     1      46.380   8.028  12.253  0.00  0.00    +0.000 N 
ATOM     20  H   UNL     1      47.048   7.278  12.388  0.00  0.00    +0.000 HD
BRANCH  18  21
ATOM     21  C   UNL     1      48.263   9.515  12.047  0.00  0.00    +0.000 A 
ATOM     22  C   UNL     1      48.741  10.416  11.104  0.00  0.00    +0.000 A 
ATOM     23  S   UNL     1      50.444  10.501  11.045  0.00  0.00    +0.000 S 
ATOM     24  C   UNL     1      50.599   9.364  12.305  0.00  0.00    +0.000 A 
ATOM     25  N   UNL     1      51.821   9.007  12.781  0.00  0.00    +0.000 NA
ATOM     26  C   UNL     1      51.789   8.170  13.764  0.00  0.00    +0.000 A 
ATOM     27  N   UNL     1      50.641   7.646  14.305  0.00  0.00    +0.000 N 
ATOM     28  C   UNL     1      49.390   7.938  13.821  0.00  0.00    +0.000 A 
ATOM     29  O   UNL     1      48.392   7.382  14.274  0.00  0.00    +0.000 OA
ATOM     30  C   UNL     1      49.370   8.905  12.742  0.00  0.00    +0.000 A 
ATOM     31  H   UNL     1      50.685   6.975  15.058  0.00  0.00    +0.000 HD
ENDBRANCH  18  21
ENDBRANCH   1  19
TORSDOF 6
ENDMDL
MODEL 8
REMARK VINA RESULT:    -6.787      1.999      2.411
REMARK INTER + INTRA:         -10.249
REMARK INTER:                  -9.245
REMARK INTRA:                  -1.004
REMARK UNBOUND:                -1.081
REMARK  Name = 
REMARK  6 active torsions:
REMARK  status: ('A' for Active; 'I' for Inactive)
REMARK    1  A    between atoms: C_2  and  C_19
REMARK    2  A    between atoms: N_3  and  C_4
REMARK    3  A    between atoms: C_4  and  C_5
REMARK    4  A    between atoms: C_8  and  C_9
REMARK    5  A    between atoms: C_9  and  N_10
REMARK    6  A    between atoms: N_10  and  C_11
REMARK                            x       y       z     vdW  Elec       q    Type
REMARK                         _______ _______ _______ _____ _____    ______ ____
ROOT
ATOM      1  C   UNL     1      47.910   8.012  13.351  0.00  0.00    +0.000 C 
ENDROOT
BRANCH   1   2
ATOM      2  C   UNL     1      46.880   6.932  13.150  0.00  0.00    +0.000 C 
ATOM      3  C   UNL     1      47.190   5.622  13.221  0.00  0.00    +0.000 C 
ATOM      4  C   UNL     1      46.216   4.516  12.918  0.00  0.00    +0.000 C 
ATOM      5  C   UNL     1      44.991   4.993  12.118  0.00  0.00    +0.000 C 
ATOM      6  C   UNL     1      44.447   6.277  12.771  0.00  0.00    +0.000 C 
ATOM      7  C   UNL     1      45.487   7.403  12.798  0.00  0.00    +0.000 C 
BRANCH   5   8
ATOM      8  C   UNL     1      45.307   5.223  10.623  0.00  0.00    +0.000 C 
BRANCH   8   9
ATOM      9  N   UNL     1      44.225   4.739   9.761  0.00  0.00    +0.000 NA
ATOM     10  H   UNL     1      43.795   5.524   9.273  0.00  0.00    +0.000 HD
BRANCH   9  11
ATOM     11  C   UNL     1      44.664   3.722   8.794  0.00  0.00    +0.000 C 
ATOM     12  C   UNL     1      45.011   2.380   9.450  0.00  0.00    +0.000 C 
ATOM     13  C   UNL     1      45.636   1.428   8.441  0.00  0.00    +0.000 C 
ATOM     14  O   UNL     1      46.780   2.015   7.830  0.00  0.00    +0.000 OA
ATOM     15  C   UNL     1      46.450   3.197   7.102  0.00  0.00    +0.000 C 
ATOM     16  C   UNL     1      45.884   4.260   8.034  0.00  0.00    +0.000 C 
ENDBRANCH   9  11
ENDBRANCH   8   9
ENDBRANCH   5   8
ENDBRANCH   1   2
BRANCH   1  19
ATOM     17  O   UNL     1      48.665   8.496  15.979  0.00  0.00    +0.000 OA
ATOM     18  C   UNL     1      49.332   7.707  15.314  0.00  0.00    +0.000 C 
ATOM     19  N   UNL     1      49.057   7.440  13.997  0.00  0.00    +0.000 N 
ATOM     20  H   UNL     1      49.502   6.650  13.544  0.00  0.00    +0.000 HD
BRANCH  18  21
ATOM     21  C   UNL     1      50.504   7.030  15.878  0.00  0.00    +0.000 A 
ATOM     22  C   UNL     1      51.782   7.483  15.578  0.00  0.00    +0.000 A 
ATOM     23  S   UNL     1      53.019   6.574  16.322  0.00  0.00    +0.000 S 
ATOM     24  C   UNL     1      51.886   5.569  17.102  0.00  0.00    +0.000 A 
ATOM     25  N   UNL     1      52.289   4.579  17.944  0.00  0.00    +0.000 NA
ATOM     26  C   UNL     1      51.324   3.924  18.499  0.00  0.00    +0.000 A 
ATOM     27  N   UNL     1      49.990   4.159  18.274  0.00  0.00    +0.000 N 
ATOM     28  C   UNL     1      49.540   5.111  17.393  0.00  0.00    +0.000 A 
ATOM     29  O   UNL     1      48.342   5.234  17.153  0.00  0.00    +0.000 OA
ATOM     30  C   UNL     1      50.585   5.902  16.774  0.00  0.00    +0.000 A 
ATOM     31  H   UNL     1      49.284   3.593  18.721  0.00  0.00    +0.000 HD
ENDBRANCH  18  21
ENDBRANCH   1  19
TORSDOF 6
ENDMDL
MODEL 9
REMARK VINA RESULT:    -6.567      2.901      4.308
REMARK INTER + INTRA:          -9.951
REMARK INTER:                  -8.617
REMARK INTRA:                  -1.334
REMARK UNBOUND:                -1.081
REMARK  Name = 
REMARK  6 active torsions:
REMARK  status: ('A' for Active; 'I' for Inactive)
REMARK    1  A    between atoms: C_2  and  C_19
REMARK    2  A    between atoms: N_3  and  C_4
REMARK    3  A    between atoms: C_4  and  C_5
REMARK    4  A    between atoms: C_8  and  C_9
REMARK    5  A    between atoms: C_9  and  N_10
REMARK    6  A    between atoms: N_10  and  C_11
REMARK                            x       y       z     vdW  Elec       q    Type
REMARK                         _______ _______ _______ _____ _____    ______ ____
ROOT
ATOM      1  C   UNL     1      50.480   8.306  14.237  0.00  0.00    +0.000 C 
ENDROOT
BRANCH   1   2
ATOM      2  C   UNL     1      49.310   8.338  13.290  0.00  0.00    +0.000 C 
ATOM      3  C   UNL     1      48.518   9.421  13.163  0.00  0.00    +0.000 C 
ATOM      4  C   UNL     1      47.277   9.454  12.313  0.00  0.00    +0.000 C 
ATOM      5  C   UNL     1      46.757   8.051  11.950  0.00  0.00    +0.000 C 
ATOM      6  C   UNL     1      47.943   7.197  11.467  0.00  0.00    +0.000 C 
ATOM      7  C   UNL     1      49.035   7.057  12.535  0.00  0.00    +0.000 C 
BRANCH   5   8
ATOM      8  C   UNL     1      46.022   7.366  13.124  0.00  0.00    +0.000 C 
BRANCH   8   9
ATOM      9  N   UNL     1      44.642   7.020  12.771  0.00  0.00    +0.000 NA
ATOM     10  H   UNL     1      44.259   7.726  12.142  0.00  0.00    +0.000 HD
BRANCH   9  11
ATOM     11  C   UNL     1      44.514   5.684  12.170  0.00  0.00    +0.000 C 
ATOM     12  C   UNL     1      43.079   5.143  12.209  0.00  0.00    +0.000 C 
ATOM     13  C   UNL     1      43.034   3.693  11.751  0.00  0.00    +0.000 C 
ATOM     14  O   UNL     1      43.912   2.886  12.531  0.00  0.00    +0.000 OA
ATOM     15  C   UNL     1      45.272   3.297  12.400  0.00  0.00    +0.000 C 
ATOM     16  C   UNL     1      45.454   4.721  12.908  0.00  0.00    +0.000 C 
ENDBRANCH   9  11
ENDBRANCH   8   9
ENDBRANCH   5   8
ENDBRANCH   1   2
BRANCH   1  19
ATOM     17  O   UNL     1      49.471   8.763  16.784  0.00  0.00    +0.000 OA
ATOM     18  C   UNL     1      49.707   7.606  16.447  0.00  0.00    +0.000 C 
ATOM     19  N   UNL     1      50.246   7.291  15.225  0.00  0.00    +0.000 N 
ATOM     20  H   UNL     1      50.244   6.327  14.912  0.00  0.00    +0.000 HD
BRANCH  18  21
ATOM     21  C   UNL     1      49.471   6.480  17.356  0.00  0.00    +0.000 A 
ATOM     22  C   UNL     1      50.002   6.496  18.639  0.00  0.00    +0.000 A 
ATOM     23  S   UNL     1      49.624   5.104  19.550  0.00  0.00    +0.000 S 
ATOM     24  C   UNL     1      48.704   4.452  18.273  0.00  0.00    +0.000 A 
ATOM     25  N   UNL     1      48.055   3.264  18.411  0.00  0.00    +0.000 NA
ATOM     26  C   UNL     1      47.361   2.910  17.382  0.00  0.00    +0.000 A 
ATOM     27  N   UNL     1      47.269   3.633  16.217  0.00  0.00    +0.000 N 
ATOM     28  C   UNL     1      47.949   4.808  16.015  0.00  0.00    +0.000 A 
ATOM     29  O   UNL     1      47.911   5.381  14.929  0.00  0.00    +0.000 OA
ATOM     30  C   UNL     1      48.712   5.269  17.159  0.00  0.00    +0.000 A 
ATOM     31  H   UNL     1      46.729   3.287  15.438  0.00  0.00    +0.000 HD
ENDBRANCH  18  21
ENDBRANCH   1  19
TORSDOF 6
ENDMDL
