MODEL 1
REMARK VINA RESULT:    -7.697      0.000      0.000
REMARK INTER + INTRA:         -11.252
REMARK INTER:                 -10.622
REMARK INTRA:                  -0.630
REMARK UNBOUND:                -0.630
REMARK  Name = 
REMARK  7 active torsions:
REMARK  status: ('A' for Active; 'I' for Inactive)
REMARK    1  A    between atoms: N_1  and  C_2
REMARK    2  A    between atoms: C_2  and  C_3
REMARK    3  A    between atoms: C_3  and  C_4
REMARK    4  A    between atoms: C_7  and  O_8
REMARK    5  A    between atoms: O_8  and  C_9
REMARK    6  A    between atoms: C_9  and  C_10
REMARK    7  A    between atoms: C_12  and  C_13
REMARK                            x       y       z     vdW  Elec       q    Type
REMARK                         _______ _______ _______ _____ _____    ______ ____
ROOT
ATOM      1  O   UNL     1      43.343   4.569  10.502  0.00  0.00    +0.000 OA
ENDROOT
BRANCH   1   5
ATOM      2  C   UNL     1      45.896   2.379   8.114  0.00  0.00    +0.000 A 
ATOM      3  C   UNL     1      45.935   3.775   8.073  0.00  0.00    +0.000 A 
ATOM      4  C   UNL     1      45.077   4.515   8.883  0.00  0.00    +0.000 A 
ATOM      5  C   UNL     1      44.185   3.829   9.697  0.00  0.00    +0.000 A 
ATOM      6  N   UNL     1      44.137   2.485   9.775  0.00  0.00    +0.000 NA
ATOM      7  C   UNL     1      44.988   1.793   8.988  0.00  0.00    +0.000 A 
BRANCH   2   8
ATOM      8  C   UNL     1      46.812   1.530   7.273  0.00  0.00    +0.000 C 
BRANCH   8   9
ATOM      9  C   UNL     1      48.053   2.306   6.817  0.00  0.00    +0.000 C 
BRANCH   9  10
ATOM     10  N   UNL     1      48.465   1.892   5.478  0.00  0.00    +0.000 NA
ATOM     11  H   UNL     1      47.714   2.094   4.817  0.00  0.00    +0.000 HD
ATOM     12  H   UNL     1      48.597   0.882   5.453  0.00  0.00    +0.000 HD
ENDBRANCH   9  10
ENDBRANCH   8   9
ENDBRANCH   2   8
ENDBRANCH   1   5
BRANCH   1  13
ATOM     13  C   UNL     1      43.407   4.129  11.867  0.00  0.00    +0.000 C 
BRANCH  13  14
ATOM     14  C   UNL     1      44.684   4.625  12.513  0.00  0.00    +0.000 A 
ATOM     15  C   UNL     1      45.002   5.980  12.478  0.00  0.00    +0.000 A 
ATOM     16  C   UNL     1      46.190   6.424  13.072  0.00  0.00    +0.000 A 
ATOM     17  C   UNL     1      47.028   5.481  13.675  0.00  0.00    +0.000 A 
ATOM     18  C   UNL     1      46.646   4.151  13.657  0.00  0.00    +0.000 A 
ATOM     19  N   UNL     1      45.503   3.707  13.090  0.00  0.00    +0.000 NA
BRANCH  16  20
ATOM     20  C   UNL     1      46.560   7.883  13.076  0.00  0.00    +0.000 C 
ATOM     21  F   UNL     1      45.502   8.713  13.282  0.00  0.00    +0.000 F 
ATOM     22  F   UNL     1      47.466   8.184  14.048  0.00  0.00    +0.000 F 
ATOM     23  F   UNL     1      47.125   8.282  11.903  0.00  0.00    +0.000 F 
ENDBRANCH  16  20
ENDBRANCH  13  14
ENDBRANCH   1  13
TORSDOF 7
ENDMDL
MODEL 2
REMARK VINA RESULT:    -7.523      1.986      2.598
REMARK INTER + INTRA:         -11.012
REMARK INTER:                 -10.423
REMARK INTRA:                  -0.588
REMARK UNBOUND:                -0.630
REMARK  Name = 
REMARK  7 active torsions:
REMARK  status: ('A' for Active; 'I' for Inactive)
REMARK    1  A    between atoms: N_1  and  C_2
REMARK    2  A    between atoms: C_2  and  C_3
REMARK    3  A    between atoms: C_3  and  C_4
REMARK    4  A    between atoms: C_7  and  O_8
REMARK    5  A    between atoms: O_8  and  C_9
REMARK    6  A    between atoms: C_9  and  C_10
REMARK    7  A    between atoms: C_12  and  C_13
REMARK                            x       y       z     vdW  Elec       q    Type
REMARK                         _______ _______ _______ _____ _____    ______ ____
ROOT
ATOM      1  O   UNL     1      43.540   4.805   9.898  0.00  0.00    +0.000 OA
ENDROOT
BRANCH   1   5
ATOM      2  C   UNL     1      46.118   2.236   7.956  0.00  0.00    +0.000 A 
ATOM      3  C   UNL     1      45.239   1.737   8.921  0.00  0.00    +0.000 A 
ATOM      4  C   UNL     1      44.364   2.604   9.572  0.00  0.00    +0.000 A 
ATOM      5  C   UNL     1      44.414   3.954   9.253  0.00  0.00    +0.000 A 
ATOM      6  N   UNL     1      45.235   4.462   8.313  0.00  0.00    +0.000 NA
ATOM      7  C   UNL     1      46.063   3.598   7.688  0.00  0.00    +0.000 A 
BRANCH   2   8
ATOM      8  C   UNL     1      47.072   1.342   7.208  0.00  0.00    +0.000 C 
BRANCH   8   9
ATOM      9  C   UNL     1      48.291   2.113   6.690  0.00  0.00    +0.000 C 
BRANCH   9  10
ATOM     10  N   UNL     1      48.405   1.997   5.238  0.00  0.00    +0.000 NA
ATOM     11  H   UNL     1      49.269   1.506   5.006  0.00  0.00    +0.000 HD
ATOM     12  H   UNL     1      48.486   2.923   4.822  0.00  0.00    +0.000 HD
ENDBRANCH   9  10
ENDBRANCH   8   9
ENDBRANCH   2   8
ENDBRANCH   1   5
BRANCH   1  13
ATOM     13  C   UNL     1      43.480   4.520  11.304  0.00  0.00    +0.000 C 
BRANCH  13  14
ATOM     14  C   UNL     1      44.649   5.168  12.015  0.00  0.00    +0.000 A 
ATOM     15  C   UNL     1      45.273   4.509  13.072  0.00  0.00    +0.000 A 
ATOM     16  C   UNL     1      46.348   5.123  13.727  0.00  0.00    +0.000 A 
ATOM     17  C   UNL     1      46.754   6.391  13.301  0.00  0.00    +0.000 A 
ATOM     18  C   UNL     1      46.074   6.983  12.251  0.00  0.00    +0.000 A 
ATOM     19  N   UNL     1      45.037   6.404  11.608  0.00  0.00    +0.000 NA
BRANCH  16  20
ATOM     20  C   UNL     1      47.065   4.436  14.858  0.00  0.00    +0.000 C 
ATOM     21  F   UNL     1      46.303   4.288  15.976  0.00  0.00    +0.000 F 
ATOM     22  F   UNL     1      47.482   3.183  14.523  0.00  0.00    +0.000 F 
ATOM     23  F   UNL     1      48.181   5.107  15.254  0.00  0.00    +0.000 F 
ENDBRANCH  16  20
ENDBRANCH  13  14
ENDBRANCH   1  13
TORSDOF 7
ENDMDL
MODEL 3
REMARK VINA RESULT:    -7.392      1.834      2.357
REMARK INTER + INTRA:         -10.831
REMARK INTER:                 -10.163
REMARK INTRA:                  -0.668
REMARK UNBOUND:                -0.630
REMARK  Name = 
REMARK  7 active torsions:
REMARK  status: ('A' for Active; 'I' for Inactive)
REMARK    1  A    between atoms: N_1  and  C_2
REMARK    2  A    between atoms: C_2  and  C_3
REMARK    3  A    between atoms: C_3  and  C_4
REMARK    4  A    between atoms: C_7  and  O_8
REMARK    5  A    between atoms: O_8  and  C_9
REMARK    6  A    between atoms: C_9  and  C_10
REMARK    7  A    between atoms: C_12  and  C_13
REMARK                            x       y       z     vdW  Elec       q    Type
REMARK                         _______ _______ _______ _____ _____    ______ ____
ROOT
ATOM      1  O   UNL     1      43.370   4.705   9.851  0.00  0.00    +0.000 OA
ENDROOT
BRANCH   1   5
ATOM      2  C   UNL     1      46.075   2.209   7.990  0.00  0.00    +0.000 A 
ATOM      3  C   UNL     1      46.123   3.584   7.751  0.00  0.00    +0.000 A 
ATOM      4  C   UNL     1      45.213   4.428   8.383  0.00  0.00    +0.000 A 
ATOM      5  C   UNL     1      44.263   3.862   9.224  0.00  0.00    +0.000 A 
ATOM      6  N   UNL     1      44.204   2.542   9.491  0.00  0.00    +0.000 NA
ATOM      7  C   UNL     1      45.106   1.749   8.873  0.00  0.00    +0.000 A 
BRANCH   2   8
ATOM      8  C   UNL     1      47.045   1.253   7.347  0.00  0.00    +0.000 C 
BRANCH   8   9
ATOM      9  C   UNL     1      48.286   1.973   6.808  0.00  0.00    +0.000 C 
BRANCH   9  10
ATOM     10  N   UNL     1      48.351   1.884   5.351  0.00  0.00    +0.000 NA
ATOM     11  H   UNL     1      47.880   1.032   5.045  0.00  0.00    +0.000 HD
ATOM     12  H   UNL     1      49.320   1.794   5.053  0.00  0.00    +0.000 HD
ENDBRANCH   9  10
ENDBRANCH   8   9
ENDBRANCH   2   8
ENDBRANCH   1   5
BRANCH   1  13
ATOM     13  C   UNL     1      43.307   4.440  11.261  0.00  0.00    +0.000 C 
BRANCH  13  14
ATOM     14  C   UNL     1      44.426   5.169  11.976  0.00  0.00    +0.000 A 
ATOM     15  C   UNL     1      45.160   4.519  12.966  0.00  0.00    +0.000 A 
ATOM     16  C   UNL     1      46.185   5.207  13.626  0.00  0.00    +0.000 A 
ATOM     17  C   UNL     1      46.432   6.537  13.272  0.00  0.00    +0.000 A 
ATOM     18  C   UNL     1      45.651   7.114  12.287  0.00  0.00    +0.000 A 
ATOM     19  N   UNL     1      44.659   6.464  11.640  0.00  0.00    +0.000 NA
BRANCH  16  20
ATOM     20  C   UNL     1      47.017   4.535  14.685  0.00  0.00    +0.000 C 
ATOM     21  F   UNL     1      48.143   5.226  15.013  0.00  0.00    +0.000 F 
ATOM     22  F   UNL     1      46.333   4.362  15.849  0.00  0.00    +0.000 F 
ATOM     23  F   UNL     1      47.436   3.295  14.311  0.00  0.00    +0.000 F 
ENDBRANCH  16  20
ENDBRANCH  13  14
ENDBRANCH   1  13
TORSDOF 7
ENDMDL
MODEL 4
REMARK VINA RESULT:    -6.731      1.910      2.445
REMARK INTER + INTRA:          -9.919
REMARK INTER:                  -9.366
REMARK INTRA:                  -0.553
REMARK UNBOUND:                -0.630
REMARK  Name = 
REMARK  7 active torsions:
REMARK  status: ('A' for Active; 'I' for Inactive)
REMARK    1  A    between atoms: N_1  and  C_2
REMARK    2  A    between atoms: C_2  and  C_3
REMARK    3  A    between atoms: C_3  and  C_4
REMARK    4  A    between atoms: C_7  and  O_8
REMARK    5  A    between atoms: O_8  and  C_9
REMARK    6  A    between atoms: C_9  and  C_10
REMARK    7  A    between atoms: C_12  and  C_13
REMARK                            x       y       z     vdW  Elec       q    Type
REMARK                         _______ _______ _______ _____ _____    ______ ____
ROOT
ATOM      1  O   UNL     1      43.805   4.929  10.778  0.00  0.00    +0.000 OA
ENDROOT
BRANCH   1   5
ATOM      2  C   UNL     1      45.892   2.574   8.110  0.00  0.00    +0.000 A 
ATOM      3  C   UNL     1      46.006   3.965   8.043  0.00  0.00    +0.000 A 
ATOM      4  C   UNL     1      45.306   4.760   8.947  0.00  0.00    +0.000 A 
ATOM      5  C   UNL     1      44.490   4.135   9.882  0.00  0.00    +0.000 A 
ATOM      6  N   UNL     1      44.376   2.796   9.985  0.00  0.00    +0.000 NA
ATOM      7  C   UNL     1      45.075   2.049   9.105  0.00  0.00    +0.000 A 
BRANCH   2   8
ATOM      8  C   UNL     1      46.640   1.666   7.171  0.00  0.00    +0.000 C 
BRANCH   8   9
ATOM      9  C   UNL     1      48.037   2.206   6.844  0.00  0.00    +0.000 C 
BRANCH   9  10
ATOM     10  N   UNL     1      48.434   1.841   5.486  0.00  0.00    +0.000 NA
ATOM     11  H   UNL     1      48.365   2.661   4.883  0.00  0.00    +0.000 HD
ATOM     12  H   UNL     1      47.782   1.156   5.107  0.00  0.00    +0.000 HD
ENDBRANCH   9  10
ENDBRANCH   8   9
ENDBRANCH   2   8
ENDBRANCH   1   5
BRANCH   1  13
ATOM     13  C   UNL     1      44.509   5.035  12.024  0.00  0.00    +0.000 C 
BRANCH  13  14
ATOM     14  C   UNL     1      45.024   6.446  12.213  0.00  0.00    +0.000 A 
ATOM     15  C   UNL     1      44.405   7.508  11.557  0.00  0.00    +0.000 A 
ATOM     16  C   UNL     1      44.896   8.807  11.733  0.00  0.00    +0.000 A 
ATOM     17  C   UNL     1      46.008   8.994  12.560  0.00  0.00    +0.000 A 
ATOM     18  C   UNL     1      46.573   7.886  13.166  0.00  0.00    +0.000 A 
ATOM     19  N   UNL     1      46.110   6.627  13.008  0.00  0.00    +0.000 NA
BRANCH  16  20
ATOM     20  C   UNL     1      44.242   9.984  11.061  0.00  0.00    +0.000 C 
ATOM     21  F   UNL     1      43.353   9.633  10.092  0.00  0.00    +0.000 F 
ATOM     22  F   UNL     1      43.551  10.764  11.938  0.00  0.00    +0.000 F 
ATOM     23  F   UNL     1      45.143  10.808  10.459  0.00  0.00    +0.000 F 
ENDBRANCH  16  20
ENDBRANCH  13  14
ENDBRANCH   1  13
TORSDOF 7
ENDMDL
MODEL 5
REMARK VINA RESULT:    -6.651      3.156      6.304
REMARK INTER + INTRA:          -9.809
REMARK INTER:                  -9.150
REMARK INTRA:                  -0.659
REMARK UNBOUND:                -0.630
REMARK  Name = 
REMARK  7 active torsions:
REMARK  status: ('A' for Active; 'I' for Inactive)
REMARK    1  A    between atoms: N_1  and  C_2
REMARK    2  A    between atoms: C_2  and  C_3
REMARK    3  A    between atoms: C_3  and  C_4
REMARK    4  A    between atoms: C_7  and  O_8
REMARK    5  A    between atoms: O_8  and  C_9
REMARK    6  A    between atoms: C_9  and  C_10
REMARK    7  A    between atoms: C_12  and  C_13
REMARK                            x       y       z     vdW  Elec       q    Type
REMARK                         _______ _______ _______ _____ _____    ______ ____
ROOT
ATOM      1  O   UNL     1      43.598   5.012  12.064  0.00  0.00    +0.000 OA
ENDROOT
BRANCH   1   5
ATOM      2  C   UNL     1      47.308   6.352  13.272  0.00  0.00    +0.000 A 
ATOM      3  C   UNL     1      46.503   7.167  12.472  0.00  0.00    +0.000 A 
ATOM      4  C   UNL     1      45.248   6.717  12.068  0.00  0.00    +0.000 A 
ATOM      5  C   UNL     1      44.845   5.448  12.462  0.00  0.00    +0.000 A 
ATOM      6  N   UNL     1      45.588   4.647  13.251  0.00  0.00    +0.000 NA
ATOM      7  C   UNL     1      46.795   5.112  13.637  0.00  0.00    +0.000 A 
BRANCH   2   8
ATOM      8  C   UNL     1      48.664   6.794  13.752  0.00  0.00    +0.000 C 
BRANCH   8   9
ATOM      9  C   UNL     1      48.696   6.997  15.270  0.00  0.00    +0.000 C 
BRANCH   9  10
ATOM     10  N   UNL     1      49.423   5.914  15.928  0.00  0.00    +0.000 NA
ATOM     11  H   UNL     1      49.515   5.129  15.282  0.00  0.00    +0.000 HD
ATOM     12  H   UNL     1      48.885   5.566  16.720  0.00  0.00    +0.000 HD
ENDBRANCH   9  10
ENDBRANCH   8   9
ENDBRANCH   2   8
ENDBRANCH   1   5
BRANCH   1  13
ATOM     13  C   UNL     1      43.427   5.150  10.645  0.00  0.00    +0.000 C 
BRANCH  13  14
ATOM     14  C   UNL     1      44.133   4.020   9.925  0.00  0.00    +0.000 A 
ATOM     15  C   UNL     1      45.086   4.303   8.949  0.00  0.00    +0.000 A 
ATOM     16  C   UNL     1      45.725   3.249   8.285  0.00  0.00    +0.000 A 
ATOM     17  C   UNL     1      45.373   1.938   8.620  0.00  0.00    +0.000 A 
ATOM     18  C   UNL     1      44.409   1.741   9.592  0.00  0.00    +0.000 A 
ATOM     19  N   UNL     1      43.784   2.747  10.243  0.00  0.00    +0.000 NA
BRANCH  16  20
ATOM     20  C   UNL     1      46.776   3.511   7.240  0.00  0.00    +0.000 C 
ATOM     21  F   UNL     1      47.367   4.731   7.356  0.00  0.00    +0.000 F 
ATOM     22  F   UNL     1      47.789   2.600   7.284  0.00  0.00    +0.000 F 
ATOM     23  F   UNL     1      46.280   3.455   5.974  0.00  0.00    +0.000 F 
ENDBRANCH  16  20
ENDBRANCH  13  14
ENDBRANCH   1  13
TORSDOF 7
ENDMDL
MODEL 6
REMARK VINA RESULT:    -6.496      3.502      6.075
REMARK INTER + INTRA:          -9.594
REMARK INTER:                  -8.898
REMARK INTRA:                  -0.696
REMARK UNBOUND:                -0.630
REMARK  Name = 
REMARK  7 active torsions:
REMARK  status: ('A' for Active; 'I' for Inactive)
REMARK    1  A    between atoms: N_1  and  C_2
REMARK    2  A    between atoms: C_2  and  C_3
REMARK    3  A    between atoms: C_3  and  C_4
REMARK    4  A    between atoms: C_7  and  O_8
REMARK    5  A    between atoms: O_8  and  C_9
REMARK    6  A    between atoms: C_9  and  C_10
REMARK    7  A    between atoms: C_12  and  C_13
REMARK                            x       y       z     vdW  Elec       q    Type
REMARK                         _______ _______ _______ _____ _____    ______ ____
ROOT
ATOM      1  O   UNL     1      44.084   5.532  12.273  0.00  0.00    +0.000 OA
ENDROOT
BRANCH   1   5
ATOM      2  C   UNL     1      47.962   6.882  12.667  0.00  0.00    +0.000 A 
ATOM      3  C   UNL     1      47.576   5.691  13.286  0.00  0.00    +0.000 A 
ATOM      4  C   UNL     1      46.269   5.232  13.149  0.00  0.00    +0.000 A 
ATOM      5  C   UNL     1      45.376   5.997  12.410  0.00  0.00    +0.000 A 
ATOM      6  N   UNL     1      45.722   7.138  11.783  0.00  0.00    +0.000 NA
ATOM      7  C   UNL     1      46.999   7.554  11.922  0.00  0.00    +0.000 A 
BRANCH   2   8
ATOM      8  C   UNL     1      49.366   7.415  12.767  0.00  0.00    +0.000 C 
BRANCH   8   9
ATOM      9  C   UNL     1      49.967   7.709  11.387  0.00  0.00    +0.000 C 
BRANCH   9  10
ATOM     10  N   UNL     1      51.419   7.547  11.404  0.00  0.00    +0.000 NA
ATOM     11  H   UNL     1      51.841   8.341  11.885  0.00  0.00    +0.000 HD
ATOM     12  H   UNL     1      51.781   7.568  10.452  0.00  0.00    +0.000 HD
ENDBRANCH   9  10
ENDBRANCH   8   9
ENDBRANCH   2   8
ENDBRANCH   1   5
BRANCH   1  13
ATOM     13  C   UNL     1      43.664   5.559  10.900  0.00  0.00    +0.000 C 
BRANCH  13  14
ATOM     14  C   UNL     1      44.151   4.317  10.184  0.00  0.00    +0.000 A 
ATOM     15  C   UNL     1      45.078   4.427   9.149  0.00  0.00    +0.000 A 
ATOM     16  C   UNL     1      45.513   3.271   8.490  0.00  0.00    +0.000 A 
ATOM     17  C   UNL     1      44.990   2.037   8.888  0.00  0.00    +0.000 A 
ATOM     18  C   UNL     1      44.065   2.014   9.916  0.00  0.00    +0.000 A 
ATOM     19  N   UNL     1      43.635   3.119  10.564  0.00  0.00    +0.000 NA
BRANCH  16  20
ATOM     20  C   UNL     1      46.531   3.344   7.383  0.00  0.00    +0.000 C 
ATOM     21  F   UNL     1      47.539   2.439   7.509  0.00  0.00    +0.000 F 
ATOM     22  F   UNL     1      45.980   3.120   6.157  0.00  0.00    +0.000 F 
ATOM     23  F   UNL     1      47.131   4.563   7.304  0.00  0.00    +0.000 F 
ENDBRANCH  16  20
ENDBRANCH  13  14
ENDBRANCH   1  13
TORSDOF 7
ENDMDL
MODEL 7
REMARK VINA RESULT:    -6.356      3.605      4.616
REMARK INTER + INTRA:          -9.401
REMARK INTER:                  -8.986
REMARK INTRA:                  -0.415
REMARK UNBOUND:                -0.630
REMARK  Name = 
REMARK  7 active torsions:
REMARK  status: ('A' for Active; 'I' for Inactive)
REMARK    1  A    between atoms: N_1  and  C_2
REMARK    2  A    between atoms: C_2  and  C_3
REMARK    3  A    between atoms: C_3  and  C_4
REMARK    4  A    between atoms: C_7  and  O_8
REMARK    5  A    between atoms: O_8  and  C_9
REMARK    6  A    between atoms: C_9  and  C_10
REMARK    7  A    between atoms: C_12  and  C_13
REMARK                            x       y       z     vdW  Elec       q    Type
REMARK                         _______ _______ _______ _____ _____    ______ ____
ROOT
ATOM      1  O   UNL     1      45.548   4.374  13.948  0.00  0.00    +0.000 OA
ENDROOT
BRANCH   1   5
ATOM      2  C   UNL     1      44.944   4.209   9.870  0.00  0.00    +0.000 A 
ATOM      3  C   UNL     1      45.566   5.326  10.435  0.00  0.00    +0.000 A 
ATOM      4  C   UNL     1      45.774   5.380  11.811  0.00  0.00    +0.000 A 
ATOM      5  C   UNL     1      45.331   4.317  12.587  0.00  0.00    +0.000 A 
ATOM      6  N   UNL     1      44.748   3.217  12.071  0.00  0.00    +0.000 NA
ATOM      7  C   UNL     1      44.569   3.186  10.733  0.00  0.00    +0.000 A 
BRANCH   2   8
ATOM      8  C   UNL     1      44.710   4.090   8.388  0.00  0.00    +0.000 C 
BRANCH   8   9
ATOM      9  C   UNL     1      45.857   3.358   7.684  0.00  0.00    +0.000 C 
BRANCH   9  10
ATOM     10  N   UNL     1      46.846   4.304   7.173  0.00  0.00    +0.000 NA
ATOM     11  H   UNL     1      47.741   4.138   7.633  0.00  0.00    +0.000 HD
ATOM     12  H   UNL     1      46.575   5.255   7.420  0.00  0.00    +0.000 HD
ENDBRANCH   9  10
ENDBRANCH   8   9
ENDBRANCH   2   8
ENDBRANCH   1   5
BRANCH   1  13
ATOM     13  C   UNL     1      46.835   4.935  14.247  0.00  0.00    +0.000 C 
BRANCH  13  14
ATOM     14  C   UNL     1      47.439   4.238  15.448  0.00  0.00    +0.000 A 
ATOM     15  C   UNL     1      47.566   4.917  16.658  0.00  0.00    +0.000 A 
ATOM     16  C   UNL     1      48.134   4.263  17.758  0.00  0.00    +0.000 A 
ATOM     17  C   UNL     1      48.568   2.943  17.600  0.00  0.00    +0.000 A 
ATOM     18  C   UNL     1      48.417   2.343  16.362  0.00  0.00    +0.000 A 
ATOM     19  N   UNL     1      47.870   2.959  15.292  0.00  0.00    +0.000 NA
BRANCH  16  20
ATOM     20  C   UNL     1      48.268   4.953  19.089  0.00  0.00    +0.000 C 
ATOM     21  F   UNL     1      47.153   5.637  19.463  0.00  0.00    +0.000 F 
ATOM     22  F   UNL     1      48.528   4.080  20.101  0.00  0.00    +0.000 F 
ATOM     23  F   UNL     1      49.285   5.859  19.107  0.00  0.00    +0.000 F 
ENDBRANCH  16  20
ENDBRANCH  13  14
ENDBRANCH   1  13
TORSDOF 7
ENDMDL
MODEL 8
REMARK VINA RESULT:    -5.926      4.323      7.873
REMARK INTER + INTRA:          -8.808
REMARK INTER:                  -8.416
REMARK INTRA:                  -0.392
REMARK UNBOUND:                -0.630
REMARK  Name = 
REMARK  7 active torsions:
REMARK  status: ('A' for Active; 'I' for Inactive)
REMARK    1  A    between atoms: N_1  and  C_2
REMARK    2  A    between atoms: C_2  and  C_3
REMARK    3  A    between atoms: C_3  and  C_4
REMARK    4  A    between atoms: C_7  and  O_8
REMARK    5  A    between atoms: O_8  and  C_9
REMARK    6  A    between atoms: C_9  and  C_10
REMARK    7  A    between atoms: C_12  and  C_13
REMARK                            x       y       z     vdW  Elec       q    Type
REMARK                         _______ _______ _______ _____ _____    ______ ____
ROOT
ATOM      1  O   UNL     1      47.130   3.735  14.464  0.00  0.00    +0.000 OA
ENDROOT
BRANCH   1   5
ATOM      2  C   UNL     1      48.663   4.535  18.209  0.00  0.00    +0.000 A 
ATOM      3  C   UNL     1      48.021   3.318  17.968  0.00  0.00    +0.000 A 
ATOM      4  C   UNL     1      47.508   3.045  16.702  0.00  0.00    +0.000 A 
ATOM      5  C   UNL     1      47.635   4.015  15.716  0.00  0.00    +0.000 A 
ATOM      6  N   UNL     1      48.266   5.189  15.911  0.00  0.00    +0.000 NA
ATOM      7  C   UNL     1      48.765   5.423  17.144  0.00  0.00    +0.000 A 
BRANCH   2   8
ATOM      8  C   UNL     1      49.252   4.875  19.552  0.00  0.00    +0.000 C 
BRANCH   8   9
ATOM      9  C   UNL     1      50.744   5.209  19.455  0.00  0.00    +0.000 C 
BRANCH   9  10
ATOM     10  N   UNL     1      51.545   3.992  19.330  0.00  0.00    +0.000 NA
ATOM     11  H   UNL     1      51.441   3.616  18.388  0.00  0.00    +0.000 HD
ATOM     12  H   UNL     1      51.187   3.276  19.961  0.00  0.00    +0.000 HD
ENDBRANCH   9  10
ENDBRANCH   8   9
ENDBRANCH   2   8
ENDBRANCH   1   5
BRANCH   1  13
ATOM     13  C   UNL     1      46.259   4.781  14.007  0.00  0.00    +0.000 C 
BRANCH  13  14
ATOM     14  C   UNL     1      45.368   4.267  12.895  0.00  0.00    +0.000 A 
ATOM     15  C   UNL     1      45.719   4.485  11.564  0.00  0.00    +0.000 A 
ATOM     16  C   UNL     1      44.882   4.012  10.547  0.00  0.00    +0.000 A 
ATOM     17  C   UNL     1      43.708   3.342  10.904  0.00  0.00    +0.000 A 
ATOM     18  C   UNL     1      43.426   3.177  12.248  0.00  0.00    +0.000 A 
ATOM     19  N   UNL     1      44.223   3.626  13.242  0.00  0.00    +0.000 NA
BRANCH  16  20
ATOM     20  C   UNL     1      45.235   4.206   9.096  0.00  0.00    +0.000 C 
ATOM     21  F   UNL     1      45.916   3.158   8.557  0.00  0.00    +0.000 F 
ATOM     22  F   UNL     1      44.134   4.378   8.313  0.00  0.00    +0.000 F 
ATOM     23  F   UNL     1      46.013   5.303   8.890  0.00  0.00    +0.000 F 
ENDBRANCH  16  20
ENDBRANCH  13  14
ENDBRANCH   1  13
TORSDOF 7
ENDMDL
MODEL 9
REMARK VINA RESULT:    -5.881      2.302      3.124
REMARK INTER + INTRA:          -8.746
REMARK INTER:                  -8.305
REMARK INTRA:                  -0.441
REMARK UNBOUND:                -0.630
REMARK  Name = 
REMARK  7 active torsions:
REMARK  status: ('A' for Active; 'I' for Inactive)
REMARK    1  A    between atoms: N_1  and  C_2
REMARK    2  A    between atoms: C_2  and  C_3
REMARK    3  A    between atoms: C_3  and  C_4
REMARK    4  A    between atoms: C_7  and  O_8
REMARK    5  A    between atoms: O_8  and  C_9
REMARK    6  A    between atoms: C_9  and  C_10
REMARK    7  A    between atoms: C_12  and  C_13
REMARK                            x       y       z     vdW  Elec       q    Type
REMARK                         _______ _______ _______ _____ _____    ______ ____
ROOT
ATOM      1  O   UNL     1      45.331   5.078  13.210  0.00  0.00    +0.000 OA
ENDROOT
BRANCH   1   5
ATOM      2  C   UNL     1      45.004   3.865   9.281  0.00  0.00    +0.000 A 
ATOM      3  C   UNL     1      45.343   5.189   9.572  0.00  0.00    +0.000 A 
ATOM      4  C   UNL     1      45.458   5.597  10.898  0.00  0.00    +0.000 A 
ATOM      5  C   UNL     1      45.208   4.667  11.899  0.00  0.00    +0.000 A 
ATOM      6  N   UNL     1      44.900   3.379  11.651  0.00  0.00    +0.000 NA
ATOM      7  C   UNL     1      44.806   3.007  10.357  0.00  0.00    +0.000 A 
BRANCH   2   8
ATOM      8  C   UNL     1      44.883   3.365   7.866  0.00  0.00    +0.000 C 
BRANCH   8   9
ATOM      9  C   UNL     1      46.242   2.961   7.284  0.00  0.00    +0.000 C 
BRANCH   9  10
ATOM     10  N   UNL     1      46.827   4.057   6.514  0.00  0.00    +0.000 NA
ATOM     11  H   UNL     1      46.171   4.838   6.488  0.00  0.00    +0.000 HD
ATOM     12  H   UNL     1      46.960   3.768   5.547  0.00  0.00    +0.000 HD
ENDBRANCH   9  10
ENDBRANCH   8   9
ENDBRANCH   2   8
ENDBRANCH   1   5
BRANCH   1  13
ATOM     13  C   UNL     1      46.450   4.448  13.850  0.00  0.00    +0.000 C 
BRANCH  13  14
ATOM     14  C   UNL     1      47.551   5.461  14.089  0.00  0.00    +0.000 A 
ATOM     15  C   UNL     1      48.040   6.221  13.029  0.00  0.00    +0.000 A 
ATOM     16  C   UNL     1      49.063   7.148  13.263  0.00  0.00    +0.000 A 
ATOM     17  C   UNL     1      49.570   7.271  14.560  0.00  0.00    +0.000 A 
ATOM     18  C   UNL     1      49.038   6.471  15.555  0.00  0.00    +0.000 A 
ATOM     19  N   UNL     1      48.050   5.573  15.347  0.00  0.00    +0.000 NA
BRANCH  16  20
ATOM     20  C   UNL     1      49.605   8.005  12.150  0.00  0.00    +0.000 C 
ATOM     21  F   UNL     1      50.714   7.489  11.555  0.00  0.00    +0.000 F 
ATOM     22  F   UNL     1      48.698   8.192  11.151  0.00  0.00    +0.000 F 
ATOM     23  F   UNL     1      49.954   9.251  12.574  0.00  0.00    +0.000 F 
ENDBRANCH  16  20
ENDBRANCH  13  14
ENDBRANCH   1  13
TORSDOF 7
ENDMDL
