MODEL 1
REMARK VINA RESULT:    -7.831      0.000      0.000
REMARK INTER + INTRA:         -12.813
REMARK INTER:                 -11.494
REMARK INTRA:                  -1.320
REMARK UNBOUND:                -1.320
REMARK  Name = 
REMARK  9 active torsions:
REMARK  status: ('A' for Active; 'I' for Inactive)
REMARK    1  A    between atoms: N_1  and  C_2
REMARK    2  A    between atoms: C_2  and  C_3
REMARK    3  A    between atoms: C_3  and  N_4
REMARK    4  A    between atoms: C_3  and  C_27
REMARK    5  A    between atoms: C_5  and  C_7
REMARK    6  A    between atoms: C_10  and  C_11
REMARK    7  A    between atoms: C_11  and  N_12
REMARK    8  A    between atoms: C_13  and  C_15
REMARK    9  A    between atoms: N_29  and  O_30
REMARK                            x       y       z     vdW  Elec       q    Type
REMARK                         _______ _______ _______ _____ _____    ______ ____
ROOT
ATOM      1  C   UNL     1      46.787   4.699  14.300  0.00  0.00    +0.000 A 
ATOM      2  C   UNL     1      47.563   5.838  14.114  0.00  0.00    +0.000 A 
ATOM      3  C   UNL     1      48.376   6.266  15.158  0.00  0.00    +0.000 A 
ATOM      4  C   UNL     1      48.395   5.553  16.359  0.00  0.00    +0.000 A 
ATOM      5  C   UNL     1      47.607   4.404  16.436  0.00  0.00    +0.000 A 
ATOM      6  N   UNL     1      46.792   3.962  15.446  0.00  0.00    +0.000 NA
ENDROOT
BRANCH   1   8
ATOM      7  N   UNL     1      45.200   5.183  12.501  0.00  0.00    +0.000 N 
ATOM      8  C   UNL     1      45.915   4.218  13.177  0.00  0.00    +0.000 C 
ATOM      9  O   UNL     1      45.817   3.025  12.901  0.00  0.00    +0.000 OA
ATOM     10  H   UNL     1      45.339   6.153  12.772  0.00  0.00    +0.000 HD
BRANCH   7  11
ATOM     11  C   UNL     1      44.243   4.849  11.444  0.00  0.00    +0.000 C 
BRANCH  11  12
ATOM     12  C   UNL     1      43.082   5.862  11.394  0.00  0.00    +0.000 C 
ATOM     13  O   UNL     1      41.941   5.629  11.795  0.00  0.00    +0.000 OA
ATOM     14  N   UNL     1      43.425   7.120  10.950  0.00  0.00    +0.000 N 
ATOM     15  H   UNL     1      44.397   7.435  10.930  0.00  0.00    +0.000 HD
BRANCH  14  16
ATOM     16  O   UNL     1      42.414   8.101  11.051  0.00  0.00    +0.000 OA
ATOM     17  H   UNL     1      42.550   8.447  11.962  0.00  0.00    +0.000 HD
ENDBRANCH  14  16
ENDBRANCH  11  12
BRANCH  11  18
ATOM     18  C   UNL     1      44.900   4.771  10.051  0.00  0.00    +0.000 C 
BRANCH  18  19
ATOM     19  N   UNL     1      43.945   4.537   8.959  0.00  0.00    +0.000 NA
ATOM     20  H   UNL     1      43.990   3.554   8.691  0.00  0.00    +0.000 HD
ATOM     21  H   UNL     1      44.224   5.068   8.134  0.00  0.00    +0.000 HD
ENDBRANCH  18  19
ENDBRANCH  11  18
ENDBRANCH   7  11
ENDBRANCH   1   8
BRANCH   4  22
ATOM     22  C   UNL     1      49.232   6.014  17.517  0.00  0.00    +0.000 C 
BRANCH  22  23
ATOM     23  N   UNL     1      50.262   5.068  17.861  0.00  0.00    +0.000 N 
ATOM     24  C   UNL     1      51.540   5.150  17.374  0.00  0.00    +0.000 C 
ATOM     25  O   UNL     1      51.881   6.014  16.570  0.00  0.00    +0.000 OA
ATOM     26  H   UNL     1      49.980   4.245  18.384  0.00  0.00    +0.000 HD
BRANCH  24  27
ATOM     27  C   UNL     1      52.512   4.197  17.927  0.00  0.00    +0.000 A 
ATOM     28  C   UNL     1      53.642   4.667  18.581  0.00  0.00    +0.000 A 
ATOM     29  S   UNL     1      54.640   3.431  19.202  0.00  0.00    +0.000 S 
ATOM     30  C   UNL     1      53.621   2.219  18.577  0.00  0.00    +0.000 A 
ATOM     31  N   UNL     1      53.922   0.904  18.735  0.00  0.00    +0.000 NA
ATOM     32  C   UNL     1      53.085   0.092  18.177  0.00  0.00    +0.000 A 
ATOM     33  N   UNL     1      51.966   0.483  17.488  0.00  0.00    +0.000 N 
ATOM     34  C   UNL     1      51.584   1.796  17.363  0.00  0.00    +0.000 A 
ATOM     35  O   UNL     1      50.514   2.105  16.850  0.00  0.00    +0.000 OA
ATOM     36  C   UNL     1      52.518   2.749  17.930  0.00  0.00    +0.000 A 
ATOM     37  H   UNL     1      51.336  -0.207  17.099  0.00  0.00    +0.000 HD
ENDBRANCH  24  27
ENDBRANCH  22  23
ENDBRANCH   4  22
TORSDOF 9
ENDMDL
MODEL 2
REMARK VINA RESULT:    -7.431      3.116     10.153
REMARK INTER + INTRA:         -12.226
REMARK INTER:                 -11.163
REMARK INTRA:                  -1.063
REMARK UNBOUND:                -1.320
REMARK  Name = 
REMARK  9 active torsions:
REMARK  status: ('A' for Active; 'I' for Inactive)
REMARK    1  A    between atoms: N_1  and  C_2
REMARK    2  A    between atoms: C_2  and  C_3
REMARK    3  A    between atoms: C_3  and  N_4
REMARK    4  A    between atoms: C_3  and  C_27
REMARK    5  A    between atoms: C_5  and  C_7
REMARK    6  A    between atoms: C_10  and  C_11
REMARK    7  A    between atoms: C_11  and  N_12
REMARK    8  A    between atoms: C_13  and  C_15
REMARK    9  A    between atoms: N_29  and  O_30
REMARK                            x       y       z     vdW  Elec       q    Type
REMARK                         _______ _______ _______ _____ _____    ______ ____
ROOT
ATOM      1  C   UNL     1      51.194   2.520  17.420  0.00  0.00    +0.000 A 
ATOM      2  C   UNL     1      50.817   3.748  17.953  0.00  0.00    +0.000 A 
ATOM      3  C   UNL     1      49.496   4.159  17.808  0.00  0.00    +0.000 A 
ATOM      4  C   UNL     1      48.586   3.341  17.134  0.00  0.00    +0.000 A 
ATOM      5  C   UNL     1      49.052   2.112  16.666  0.00  0.00    +0.000 A 
ATOM      6  N   UNL     1      50.334   1.682  16.777  0.00  0.00    +0.000 NA
ENDROOT
BRANCH   1   8
ATOM      7  N   UNL     1      52.846   0.716  17.380  0.00  0.00    +0.000 N 
ATOM      8  C   UNL     1      52.612   2.058  17.582  0.00  0.00    +0.000 C 
ATOM      9  O   UNL     1      53.509   2.831  17.914  0.00  0.00    +0.000 OA
ATOM     10  H   UNL     1      52.060   0.136  17.093  0.00  0.00    +0.000 HD
BRANCH   7  11
ATOM     11  C   UNL     1      54.162   0.111  17.591  0.00  0.00    +0.000 C 
BRANCH  11  12
ATOM     12  C   UNL     1      54.086  -1.077  18.570  0.00  0.00    +0.000 C 
ATOM     13  O   UNL     1      55.067  -1.605  19.097  0.00  0.00    +0.000 OA
ATOM     14  N   UNL     1      52.811  -1.470  18.912  0.00  0.00    +0.000 N 
ATOM     15  H   UNL     1      52.004  -0.861  18.764  0.00  0.00    +0.000 HD
BRANCH  14  16
ATOM     16  O   UNL     1      52.723  -2.447  19.928  0.00  0.00    +0.000 OA
ATOM     17  H   UNL     1      51.946  -2.978  19.641  0.00  0.00    +0.000 HD
ENDBRANCH  14  16
ENDBRANCH  11  12
BRANCH  11  18
ATOM     18  C   UNL     1      54.816  -0.364  16.277  0.00  0.00    +0.000 C 
BRANCH  18  19
ATOM     19  N   UNL     1      54.426  -1.724  15.881  0.00  0.00    +0.000 NA
ATOM     20  H   UNL     1      55.105  -2.383  16.264  0.00  0.00    +0.000 HD
ATOM     21  H   UNL     1      54.482  -1.819  14.866  0.00  0.00    +0.000 HD
ENDBRANCH  18  19
ENDBRANCH  11  18
ENDBRANCH   7  11
ENDBRANCH   1   8
BRANCH   4  22
ATOM     22  C   UNL     1      47.164   3.776  16.926  0.00  0.00    +0.000 C 
BRANCH  22  23
ATOM     23  N   UNL     1      47.035   4.733  15.857  0.00  0.00    +0.000 N 
ATOM     24  C   UNL     1      47.015   4.372  14.535  0.00  0.00    +0.000 C 
ATOM     25  O   UNL     1      47.156   3.207  14.172  0.00  0.00    +0.000 OA
ATOM     26  H   UNL     1      47.087   5.715  16.105  0.00  0.00    +0.000 HD
BRANCH  24  27
ATOM     27  C   UNL     1      46.733   5.444  13.571  0.00  0.00    +0.000 A 
ATOM     28  C   UNL     1      47.740   6.329  13.212  0.00  0.00    +0.000 A 
ATOM     29  S   UNL     1      47.259   7.481  12.049  0.00  0.00    +0.000 S 
ATOM     30  C   UNL     1      45.671   6.868  12.019  0.00  0.00    +0.000 A 
ATOM     31  N   UNL     1      44.720   7.436  11.233  0.00  0.00    +0.000 NA
ATOM     32  C   UNL     1      43.549   6.897  11.337  0.00  0.00    +0.000 A 
ATOM     33  N   UNL     1      43.254   5.831  12.147  0.00  0.00    +0.000 N 
ATOM     34  C   UNL     1      44.198   5.182  12.904  0.00  0.00    +0.000 A 
ATOM     35  O   UNL     1      43.928   4.156  13.520  0.00  0.00    +0.000 OA
ATOM     36  C   UNL     1      45.518   5.781  12.861  0.00  0.00    +0.000 A 
ATOM     37  H   UNL     1      42.321   5.440  12.159  0.00  0.00    +0.000 HD
ENDBRANCH  24  27
ENDBRANCH  22  23
ENDBRANCH   4  22
TORSDOF 9
ENDMDL
MODEL 3
REMARK VINA RESULT:    -7.025      1.721      2.175
REMARK INTER + INTRA:         -11.629
REMARK INTER:                 -10.397
REMARK INTRA:                  -1.233
REMARK UNBOUND:                -1.320
REMARK  Name = 
REMARK  9 active torsions:
REMARK  status: ('A' for Active; 'I' for Inactive)
REMARK    1  A    between atoms: N_1  and  C_2
REMARK    2  A    between atoms: C_2  and  C_3
REMARK    3  A    between atoms: C_3  and  N_4
REMARK    4  A    between atoms: C_3  and  C_27
REMARK    5  A    between atoms: C_5  and  C_7
REMARK    6  A    between atoms: C_10  and  C_11
REMARK    7  A    between atoms: C_11  and  N_12
REMARK    8  A    between atoms: C_13  and  C_15
REMARK    9  A    between atoms: N_29  and  O_30
REMARK                            x       y       z     vdW  Elec       q    Type
REMARK                         _______ _______ _______ _____ _____    ______ ____
ROOT
ATOM      1  C   UNL     1      47.215   5.082  14.759  0.00  0.00    +0.000 A 
ATOM      2  C   UNL     1      48.132   5.987  15.282  0.00  0.00    +0.000 A 
ATOM      3  C   UNL     1      48.644   5.755  16.553  0.00  0.00    +0.000 A 
ATOM      4  C   UNL     1      48.229   4.632  17.274  0.00  0.00    +0.000 A 
ATOM      5  C   UNL     1      47.332   3.766  16.649  0.00  0.00    +0.000 A 
ATOM      6  N   UNL     1      46.801   3.964  15.417  0.00  0.00    +0.000 NA
ENDROOT
BRANCH   1   8
ATOM      7  N   UNL     1      45.394   4.836  13.142  0.00  0.00    +0.000 N 
ATOM      8  C   UNL     1      46.664   5.313  13.382  0.00  0.00    +0.000 C 
ATOM      9  O   UNL     1      47.327   5.865  12.506  0.00  0.00    +0.000 OA
ATOM     10  H   UNL     1      44.898   4.401  13.916  0.00  0.00    +0.000 HD
BRANCH   7  11
ATOM     11  C   UNL     1      44.768   4.910  11.820  0.00  0.00    +0.000 C 
BRANCH  11  12
ATOM     12  C   UNL     1      44.001   3.616  11.486  0.00  0.00    +0.000 C 
ATOM     13  O   UNL     1      43.703   3.262  10.344  0.00  0.00    +0.000 OA
ATOM     14  N   UNL     1      43.742   2.798  12.563  0.00  0.00    +0.000 N 
ATOM     15  H   UNL     1      44.251   2.892  13.444  0.00  0.00    +0.000 HD
BRANCH  14  16
ATOM     16  O   UNL     1      43.185   1.537  12.253  0.00  0.00    +0.000 OA
ATOM     17  H   UNL     1      42.433   1.779  11.667  0.00  0.00    +0.000 HD
ENDBRANCH  14  16
ENDBRANCH  11  12
BRANCH  11  18
ATOM     18  C   UNL     1      43.808   6.110  11.685  0.00  0.00    +0.000 C 
BRANCH  18  19
ATOM     19  N   UNL     1      42.390   5.751  11.817  0.00  0.00    +0.000 NA
ATOM     20  H   UNL     1      41.957   5.784  10.894  0.00  0.00    +0.000 HD
ATOM     21  H   UNL     1      41.906   6.449  12.382  0.00  0.00    +0.000 HD
ENDBRANCH  18  19
ENDBRANCH  11  18
ENDBRANCH   7  11
ENDBRANCH   1   8
BRANCH   4  22
ATOM     22  C   UNL     1      48.734   4.377  18.665  0.00  0.00    +0.000 C 
BRANCH  22  23
ATOM     23  N   UNL     1      50.010   3.709  18.671  0.00  0.00    +0.000 N 
ATOM     24  C   UNL     1      51.202   4.384  18.659  0.00  0.00    +0.000 C 
ATOM     25  O   UNL     1      51.262   5.609  18.591  0.00  0.00    +0.000 OA
ATOM     26  H   UNL     1      50.006   2.701  18.555  0.00  0.00    +0.000 HD
BRANCH  24  27
ATOM     27  C   UNL     1      52.415   3.569  18.812  0.00  0.00    +0.000 A 
ATOM     28  C   UNL     1      53.472   4.043  19.577  0.00  0.00    +0.000 A 
ATOM     29  S   UNL     1      54.780   2.954  19.690  0.00  0.00    +0.000 S 
ATOM     30  C   UNL     1      54.000   1.827  18.680  0.00  0.00    +0.000 A 
ATOM     31  N   UNL     1      54.604   0.658  18.343  0.00  0.00    +0.000 NA
ATOM     32  C   UNL     1      53.919  -0.087  17.539  0.00  0.00    +0.000 A 
ATOM     33  N   UNL     1      52.675   0.232  17.057  0.00  0.00    +0.000 N 
ATOM     34  C   UNL     1      51.997   1.368  17.425  0.00  0.00    +0.000 A 
ATOM     35  O   UNL     1      50.838   1.563  17.074  0.00  0.00    +0.000 OA
ATOM     36  C   UNL     1      52.746   2.261  18.287  0.00  0.00    +0.000 A 
ATOM     37  H   UNL     1      52.180  -0.411  16.452  0.00  0.00    +0.000 HD
ENDBRANCH  24  27
ENDBRANCH  22  23
ENDBRANCH   4  22
TORSDOF 9
ENDMDL
MODEL 4
REMARK VINA RESULT:    -6.997      3.701      9.868
REMARK INTER + INTRA:         -11.590
REMARK INTER:                 -10.272
REMARK INTRA:                  -1.318
REMARK UNBOUND:                -1.320
REMARK  Name = 
REMARK  9 active torsions:
REMARK  status: ('A' for Active; 'I' for Inactive)
REMARK    1  A    between atoms: N_1  and  C_2
REMARK    2  A    between atoms: C_2  and  C_3
REMARK    3  A    between atoms: C_3  and  N_4
REMARK    4  A    between atoms: C_3  and  C_27
REMARK    5  A    between atoms: C_5  and  C_7
REMARK    6  A    between atoms: C_10  and  C_11
REMARK    7  A    between atoms: C_11  and  N_12
REMARK    8  A    between atoms: C_13  and  C_15
REMARK    9  A    between atoms: N_29  and  O_30
REMARK                            x       y       z     vdW  Elec       q    Type
REMARK                         _______ _______ _______ _____ _____    ______ ____
ROOT
ATOM      1  C   UNL     1      51.212   2.578  17.458  0.00  0.00    +0.000 A 
ATOM      2  C   UNL     1      50.793   3.806  17.958  0.00  0.00    +0.000 A 
ATOM      3  C   UNL     1      49.473   4.192  17.754  0.00  0.00    +0.000 A 
ATOM      4  C   UNL     1      48.604   3.350  17.055  0.00  0.00    +0.000 A 
ATOM      5  C   UNL     1      49.110   2.124  16.622  0.00  0.00    +0.000 A 
ATOM      6  N   UNL     1      50.393   1.717  16.791  0.00  0.00    +0.000 NA
ENDROOT
BRANCH   1   8
ATOM      7  N   UNL     1      52.920   0.827  17.394  0.00  0.00    +0.000 N 
ATOM      8  C   UNL     1      52.630   2.142  17.683  0.00  0.00    +0.000 C 
ATOM      9  O   UNL     1      53.477   2.909  18.136  0.00  0.00    +0.000 OA
ATOM     10  H   UNL     1      52.174   0.251  17.009  0.00  0.00    +0.000 HD
BRANCH   7  11
ATOM     11  C   UNL     1      54.237   0.242  17.651  0.00  0.00    +0.000 C 
BRANCH  11  12
ATOM     12  C   UNL     1      54.152  -0.917  18.663  0.00  0.00    +0.000 C 
ATOM     13  O   UNL     1      55.099  -1.312  19.346  0.00  0.00    +0.000 OA
ATOM     14  N   UNL     1      52.892  -1.444  18.842  0.00  0.00    +0.000 N 
ATOM     15  H   UNL     1      52.053  -0.937  18.554  0.00  0.00    +0.000 HD
BRANCH  14  16
ATOM     16  O   UNL     1      52.767  -2.394  19.880  0.00  0.00    +0.000 OA
ATOM     17  H   UNL     1      51.949  -2.877  19.623  0.00  0.00    +0.000 HD
ENDBRANCH  14  16
ENDBRANCH  11  12
BRANCH  11  18
ATOM     18  C   UNL     1      54.923  -0.266  16.366  0.00  0.00    +0.000 C 
BRANCH  18  19
ATOM     19  N   UNL     1      54.278  -1.448  15.779  0.00  0.00    +0.000 NA
ATOM     20  H   UNL     1      54.304  -2.206  16.461  0.00  0.00    +0.000 HD
ATOM     21  H   UNL     1      54.816  -1.773  14.975  0.00  0.00    +0.000 HD
ENDBRANCH  18  19
ENDBRANCH  11  18
ENDBRANCH   7  11
ENDBRANCH   1   8
BRANCH   4  22
ATOM     22  C   UNL     1      47.185   3.759  16.784  0.00  0.00    +0.000 C 
BRANCH  22  23
ATOM     23  N   UNL     1      47.089   4.747  15.740  0.00  0.00    +0.000 N 
ATOM     24  C   UNL     1      47.044   4.421  14.410  0.00  0.00    +0.000 C 
ATOM     25  O   UNL     1      47.131   3.261  14.016  0.00  0.00    +0.000 OA
ATOM     26  H   UNL     1      47.186   5.720  16.012  0.00  0.00    +0.000 HD
BRANCH  24  27
ATOM     27  C   UNL     1      46.802   5.529  13.475  0.00  0.00    +0.000 A 
ATOM     28  C   UNL     1      45.662   5.526  12.685  0.00  0.00    +0.000 A 
ATOM     29  S   UNL     1      45.511   6.905  11.692  0.00  0.00    +0.000 S 
ATOM     30  C   UNL     1      46.992   7.535  12.248  0.00  0.00    +0.000 A 
ATOM     31  N   UNL     1      47.477   8.708  11.765  0.00  0.00    +0.000 NA
ATOM     32  C   UNL     1      48.628   9.048  12.243  0.00  0.00    +0.000 A 
ATOM     33  N   UNL     1      49.328   8.324  13.174  0.00  0.00    +0.000 N 
ATOM     34  C   UNL     1      48.846   7.171  13.742  0.00  0.00    +0.000 A 
ATOM     35  O   UNL     1      49.438   6.614  14.661  0.00  0.00    +0.000 OA
ATOM     36  C   UNL     1      47.578   6.720  13.201  0.00  0.00    +0.000 A 
ATOM     37  H   UNL     1      50.213   8.663  13.527  0.00  0.00    +0.000 HD
ENDBRANCH  24  27
ENDBRANCH  22  23
ENDBRANCH   4  22
TORSDOF 9
ENDMDL
MODEL 5
REMARK VINA RESULT:    -6.758      1.835      2.413
REMARK INTER + INTRA:         -11.238
REMARK INTER:                 -10.646
REMARK INTRA:                  -0.592
REMARK UNBOUND:                -1.320
REMARK  Name = 
REMARK  9 active torsions:
REMARK  status: ('A' for Active; 'I' for Inactive)
REMARK    1  A    between atoms: N_1  and  C_2
REMARK    2  A    between atoms: C_2  and  C_3
REMARK    3  A    between atoms: C_3  and  N_4
REMARK    4  A    between atoms: C_3  and  C_27
REMARK    5  A    between atoms: C_5  and  C_7
REMARK    6  A    between atoms: C_10  and  C_11
REMARK    7  A    between atoms: C_11  and  N_12
REMARK    8  A    between atoms: C_13  and  C_15
REMARK    9  A    between atoms: N_29  and  O_30
REMARK                            x       y       z     vdW  Elec       q    Type
REMARK                         _______ _______ _______ _____ _____    ______ ____
ROOT
ATOM      1  C   UNL     1      46.719   5.112  13.566  0.00  0.00    +0.000 A 
ATOM      2  C   UNL     1      47.374   6.255  13.123  0.00  0.00    +0.000 A 
ATOM      3  C   UNL     1      48.286   6.871  13.973  0.00  0.00    +0.000 A 
ATOM      4  C   UNL     1      48.520   6.337  15.243  0.00  0.00    +0.000 A 
ATOM      5  C   UNL     1      47.838   5.168  15.582  0.00  0.00    +0.000 A 
ATOM      6  N   UNL     1      46.933   4.546  14.786  0.00  0.00    +0.000 NA
ENDROOT
BRANCH   1   8
ATOM      7  N   UNL     1      45.272   5.174  11.593  0.00  0.00    +0.000 N 
ATOM      8  C   UNL     1      45.743   4.430  12.653  0.00  0.00    +0.000 C 
ATOM      9  O   UNL     1      45.357   3.282  12.862  0.00  0.00    +0.000 OA
ATOM     10  H   UNL     1      45.644   6.113  11.472  0.00  0.00    +0.000 HD
BRANCH   7  11
ATOM     11  C   UNL     1      44.249   4.668  10.676  0.00  0.00    +0.000 C 
BRANCH  11  12
ATOM     12  C   UNL     1      44.840   3.655   9.676  0.00  0.00    +0.000 C 
ATOM     13  O   UNL     1      45.556   3.961   8.721  0.00  0.00    +0.000 OA
ATOM     14  N   UNL     1      44.598   2.333   9.974  0.00  0.00    +0.000 N 
ATOM     15  H   UNL     1      44.306   2.037  10.907  0.00  0.00    +0.000 HD
BRANCH  14  16
ATOM     16  O   UNL     1      45.267   1.390   9.161  0.00  0.00    +0.000 OA
ATOM     17  H   UNL     1      45.020   0.537   9.585  0.00  0.00    +0.000 HD
ENDBRANCH  14  16
ENDBRANCH  11  12
BRANCH  11  18
ATOM     18  C   UNL     1      43.064   4.010  11.413  0.00  0.00    +0.000 C 
BRANCH  18  19
ATOM     19  N   UNL     1      42.423   4.885  12.403  0.00  0.00    +0.000 NA
ATOM     20  H   UNL     1      42.404   4.403  13.302  0.00  0.00    +0.000 HD
ATOM     21  H   UNL     1      41.448   5.044  12.146  0.00  0.00    +0.000 HD
ENDBRANCH  18  19
ENDBRANCH  11  18
ENDBRANCH   7  11
ENDBRANCH   1   8
BRANCH   4  22
ATOM     22  C   UNL     1      49.468   7.003  16.198  0.00  0.00    +0.000 C 
BRANCH  22  23
ATOM     23  N   UNL     1      50.506   6.113  16.651  0.00  0.00    +0.000 N 
ATOM     24  C   UNL     1      50.671   5.772  17.967  0.00  0.00    +0.000 C 
ATOM     25  O   UNL     1      49.972   6.245  18.860  0.00  0.00    +0.000 OA
ATOM     26  H   UNL     1      51.208   5.836  15.972  0.00  0.00    +0.000 HD
BRANCH  24  27
ATOM     27  C   UNL     1      51.682   4.745  18.253  0.00  0.00    +0.000 A 
ATOM     28  C   UNL     1      52.857   5.096  18.903  0.00  0.00    +0.000 A 
ATOM     29  S   UNL     1      53.899   3.778  19.198  0.00  0.00    +0.000 S 
ATOM     30  C   UNL     1      52.838   2.695  18.424  0.00  0.00    +0.000 A 
ATOM     31  N   UNL     1      53.151   1.379  18.301  0.00  0.00    +0.000 NA
ATOM     32  C   UNL     1      52.277   0.679  17.657  0.00  0.00    +0.000 A 
ATOM     33  N   UNL     1      51.109   1.179  17.140  0.00  0.00    +0.000 N 
ATOM     34  C   UNL     1      50.718   2.485  17.301  0.00  0.00    +0.000 A 
ATOM     35  O   UNL     1      49.613   2.871  16.935  0.00  0.00    +0.000 OA
ATOM     36  C   UNL     1      51.690   3.324  17.973  0.00  0.00    +0.000 A 
ATOM     37  H   UNL     1      50.454   0.568  16.670  0.00  0.00    +0.000 HD
ENDBRANCH  24  27
ENDBRANCH  22  23
ENDBRANCH   4  22
TORSDOF 9
ENDMDL
MODEL 6
REMARK VINA RESULT:    -6.672      3.506      5.127
REMARK INTER + INTRA:         -11.112
REMARK INTER:                 -10.331
REMARK INTRA:                  -0.781
REMARK UNBOUND:                -1.320
REMARK  Name = 
REMARK  9 active torsions:
REMARK  status: ('A' for Active; 'I' for Inactive)
REMARK    1  A    between atoms: N_1  and  C_2
REMARK    2  A    between atoms: C_2  and  C_3
REMARK    3  A    between atoms: C_3  and  N_4
REMARK    4  A    between atoms: C_3  and  C_27
REMARK    5  A    between atoms: C_5  and  C_7
REMARK    6  A    between atoms: C_10  and  C_11
REMARK    7  A    between atoms: C_11  and  N_12
REMARK    8  A    between atoms: C_13  and  C_15
REMARK    9  A    between atoms: N_29  and  O_30
REMARK                            x       y       z     vdW  Elec       q    Type
REMARK                         _______ _______ _______ _____ _____    ______ ____
ROOT
ATOM      1  C   UNL     1      45.337   6.138  11.143  0.00  0.00    +0.000 A 
ATOM      2  C   UNL     1      44.698   7.354  11.358  0.00  0.00    +0.000 A 
ATOM      3  C   UNL     1      45.305   8.287  12.192  0.00  0.00    +0.000 A 
ATOM      4  C   UNL     1      46.530   7.985  12.794  0.00  0.00    +0.000 A 
ATOM      5  C   UNL     1      47.107   6.752  12.489  0.00  0.00    +0.000 A 
ATOM      6  N   UNL     1      46.541   5.813  11.691  0.00  0.00    +0.000 NA
ENDROOT
BRANCH   1   8
ATOM      7  N   UNL     1      45.557   4.303   9.539  0.00  0.00    +0.000 N 
ATOM      8  C   UNL     1      44.700   5.129  10.234  0.00  0.00    +0.000 C 
ATOM      9  O   UNL     1      43.480   5.068  10.090  0.00  0.00    +0.000 OA
ATOM     10  H   UNL     1      46.554   4.399   9.717  0.00  0.00    +0.000 HD
BRANCH   7  11
ATOM     11  C   UNL     1      45.079   3.335   8.551  0.00  0.00    +0.000 C 
BRANCH  11  12
ATOM     12  C   UNL     1      46.137   3.070   7.463  0.00  0.00    +0.000 C 
ATOM     13  O   UNL     1      46.471   3.891   6.606  0.00  0.00    +0.000 OA
ATOM     14  N   UNL     1      46.785   1.859   7.561  0.00  0.00    +0.000 N 
ATOM     15  H   UNL     1      46.775   1.313   8.425  0.00  0.00    +0.000 HD
BRANCH  14  16
ATOM     16  O   UNL     1      47.867   1.669   6.673  0.00  0.00    +0.000 OA
ATOM     17  H   UNL     1      47.748   2.413   6.039  0.00  0.00    +0.000 HD
ENDBRANCH  14  16
ENDBRANCH  11  12
BRANCH  11  18
ATOM     18  C   UNL     1      44.669   1.990   9.187  0.00  0.00    +0.000 C 
BRANCH  18  19
ATOM     19  N   UNL     1      43.918   2.134  10.442  0.00  0.00    +0.000 NA
ATOM     20  H   UNL     1      43.973   1.255  10.958  0.00  0.00    +0.000 HD
ATOM     21  H   UNL     1      42.929   2.281  10.239  0.00  0.00    +0.000 HD
ENDBRANCH  18  19
ENDBRANCH  11  18
ENDBRANCH   7  11
ENDBRANCH   1   8
BRANCH   4  22
ATOM     22  C   UNL     1      47.188   8.956  13.731  0.00  0.00    +0.000 C 
BRANCH  22  23
ATOM     23  N   UNL     1      47.544   8.348  14.987  0.00  0.00    +0.000 N 
ATOM     24  C   UNL     1      48.823   7.962  15.291  0.00  0.00    +0.000 C 
ATOM     25  O   UNL     1      49.747   8.064  14.487  0.00  0.00    +0.000 OA
ATOM     26  H   UNL     1      46.785   8.091  15.610  0.00  0.00    +0.000 HD
BRANCH  24  27
ATOM     27  C   UNL     1      49.054   7.491  16.663  0.00  0.00    +0.000 A 
ATOM     28  C   UNL     1      49.557   8.365  17.616  0.00  0.00    +0.000 A 
ATOM     29  S   UNL     1      49.721   7.671  19.166  0.00  0.00    +0.000 S 
ATOM     30  C   UNL     1      49.170   6.160  18.608  0.00  0.00    +0.000 A 
ATOM     31  N   UNL     1      49.095   5.093  19.444  0.00  0.00    +0.000 NA
ATOM     32  C   UNL     1      48.700   3.998  18.881  0.00  0.00    +0.000 A 
ATOM     33  N   UNL     1      48.359   3.885  17.558  0.00  0.00    +0.000 N 
ATOM     34  C   UNL     1      48.352   4.951  16.693  0.00  0.00    +0.000 A 
ATOM     35  O   UNL     1      47.923   4.843  15.549  0.00  0.00    +0.000 OA
ATOM     36  C   UNL     1      48.837   6.192  17.265  0.00  0.00    +0.000 A 
ATOM     37  H   UNL     1      48.030   3.003  17.187  0.00  0.00    +0.000 HD
ENDBRANCH  24  27
ENDBRANCH  22  23
ENDBRANCH   4  22
TORSDOF 9
ENDMDL
MODEL 7
REMARK VINA RESULT:    -6.431      3.581      4.697
REMARK INTER + INTRA:         -10.759
REMARK INTER:                  -9.286
REMARK INTRA:                  -1.473
REMARK UNBOUND:                -1.320
REMARK  Name = 
REMARK  9 active torsions:
REMARK  status: ('A' for Active; 'I' for Inactive)
REMARK    1  A    between atoms: N_1  and  C_2
REMARK    2  A    between atoms: C_2  and  C_3
REMARK    3  A    between atoms: C_3  and  N_4
REMARK    4  A    between atoms: C_3  and  C_27
REMARK    5  A    between atoms: C_5  and  C_7
REMARK    6  A    between atoms: C_10  and  C_11
REMARK    7  A    between atoms: C_11  and  N_12
REMARK    8  A    between atoms: C_13  and  C_15
REMARK    9  A    between atoms: N_29  and  O_30
REMARK                            x       y       z     vdW  Elec       q    Type
REMARK                         _______ _______ _______ _____ _____    ______ ____
ROOT
ATOM      1  C   UNL     1      46.007   6.864  12.338  0.00  0.00    +0.000 A 
ATOM      2  C   UNL     1      47.225   6.199  12.411  0.00  0.00    +0.000 A 
ATOM      3  C   UNL     1      48.275   6.805  13.092  0.00  0.00    +0.000 A 
ATOM      4  C   UNL     1      48.087   8.059  13.680  0.00  0.00    +0.000 A 
ATOM      5  C   UNL     1      46.818   8.630  13.581  0.00  0.00    +0.000 A 
ATOM      6  N   UNL     1      45.774   8.076  12.916  0.00  0.00    +0.000 NA
ENDROOT
BRANCH   1   8
ATOM      7  N   UNL     1      45.008   4.878  11.316  0.00  0.00    +0.000 N 
ATOM      8  C   UNL     1      44.861   6.214  11.619  0.00  0.00    +0.000 C 
ATOM      9  O   UNL     1      43.863   6.850  11.287  0.00  0.00    +0.000 OA
ATOM     10  H   UNL     1      45.853   4.410  11.633  0.00  0.00    +0.000 HD
BRANCH   7  11
ATOM     11  C   UNL     1      44.011   4.139  10.538  0.00  0.00    +0.000 C 
BRANCH  11  12
ATOM     12  C   UNL     1      44.653   3.422   9.335  0.00  0.00    +0.000 C 
ATOM     13  O   UNL     1      44.949   3.976   8.274  0.00  0.00    +0.000 OA
ATOM     14  N   UNL     1      44.980   2.101   9.549  0.00  0.00    +0.000 N 
ATOM     15  H   UNL     1      45.056   1.714  10.492  0.00  0.00    +0.000 HD
BRANCH  14  16
ATOM     16  O   UNL     1      45.713   1.477   8.516  0.00  0.00    +0.000 OA
ATOM     17  H   UNL     1      45.821   0.562   8.862  0.00  0.00    +0.000 HD
ENDBRANCH  14  16
ENDBRANCH  11  12
BRANCH  11  18
ATOM     18  C   UNL     1      43.244   3.104  11.386  0.00  0.00    +0.000 C 
BRANCH  18  19
ATOM     19  N   UNL     1      44.015   2.581  12.522  0.00  0.00    +0.000 NA
ATOM     20  H   UNL     1      44.978   2.909  12.441  0.00  0.00    +0.000 HD
ATOM     21  H   UNL     1      44.058   1.563  12.472  0.00  0.00    +0.000 HD
ENDBRANCH  18  19
ENDBRANCH  11  18
ENDBRANCH   7  11
ENDBRANCH   1   8
BRANCH   4  22
ATOM     22  C   UNL     1      49.214   8.757  14.386  0.00  0.00    +0.000 C 
BRANCH  22  23
ATOM     23  N   UNL     1      49.440   8.233  15.708  0.00  0.00    +0.000 N 
ATOM     24  C   UNL     1      48.753   8.673  16.809  0.00  0.00    +0.000 C 
ATOM     25  O   UNL     1      47.929   9.582  16.748  0.00  0.00    +0.000 OA
ATOM     26  H   UNL     1      50.227   7.605  15.830  0.00  0.00    +0.000 HD
BRANCH  24  27
ATOM     27  C   UNL     1      48.993   7.943  18.062  0.00  0.00    +0.000 A 
ATOM     28  C   UNL     1      49.431   8.630  19.185  0.00  0.00    +0.000 A 
ATOM     29  S   UNL     1      49.615   7.643  20.565  0.00  0.00    +0.000 S 
ATOM     30  C   UNL     1      49.161   6.251  19.697  0.00  0.00    +0.000 A 
ATOM     31  N   UNL     1      49.137   5.032  20.296  0.00  0.00    +0.000 NA
ATOM     32  C   UNL     1      48.813   4.057  19.512  0.00  0.00    +0.000 A 
ATOM     33  N   UNL     1      48.496   4.199  18.186  0.00  0.00    +0.000 N 
ATOM     34  C   UNL     1      48.439   5.417  17.556  0.00  0.00    +0.000 A 
ATOM     35  O   UNL     1      48.032   5.523  16.404  0.00  0.00    +0.000 OA
ATOM     36  C   UNL     1      48.843   6.539  18.381  0.00  0.00    +0.000 A 
ATOM     37  H   UNL     1      48.224   3.395  17.635  0.00  0.00    +0.000 HD
ENDBRANCH  24  27
ENDBRANCH  22  23
ENDBRANCH   4  22
TORSDOF 9
ENDMDL
MODEL 8
REMARK VINA RESULT:    -6.402      6.345      7.395
REMARK INTER + INTRA:         -10.716
REMARK INTER:                  -9.313
REMARK INTRA:                  -1.403
REMARK UNBOUND:                -1.320
REMARK  Name = 
REMARK  9 active torsions:
REMARK  status: ('A' for Active; 'I' for Inactive)
REMARK    1  A    between atoms: N_1  and  C_2
REMARK    2  A    between atoms: C_2  and  C_3
REMARK    3  A    between atoms: C_3  and  N_4
REMARK    4  A    between atoms: C_3  and  C_27
REMARK    5  A    between atoms: C_5  and  C_7
REMARK    6  A    between atoms: C_10  and  C_11
REMARK    7  A    between atoms: C_11  and  N_12
REMARK    8  A    between atoms: C_13  and  C_15
REMARK    9  A    between atoms: N_29  and  O_30
REMARK                            x       y       z     vdW  Elec       q    Type
REMARK                         _______ _______ _______ _____ _____    ______ ____
ROOT
ATOM      1  C   UNL     1      45.174   7.268  11.719  0.00  0.00    +0.000 A 
ATOM      2  C   UNL     1      46.385   6.875  12.278  0.00  0.00    +0.000 A 
ATOM      3  C   UNL     1      47.285   7.858  12.674  0.00  0.00    +0.000 A 
ATOM      4  C   UNL     1      46.960   9.206  12.500  0.00  0.00    +0.000 A 
ATOM      5  C   UNL     1      45.707   9.499  11.962  0.00  0.00    +0.000 A 
ATOM      6  N   UNL     1      44.808   8.570  11.553  0.00  0.00    +0.000 NA
ENDROOT
BRANCH   1   8
ATOM      7  N   UNL     1      44.714   5.015  10.882  0.00  0.00    +0.000 N 
ATOM      8  C   UNL     1      44.187   6.217  11.301  0.00  0.00    +0.000 C 
ATOM      9  O   UNL     1      42.977   6.433  11.299  0.00  0.00    +0.000 OA
ATOM     10  H   UNL     1      45.723   4.900  10.923  0.00  0.00    +0.000 HD
BRANCH   7  11
ATOM     11  C   UNL     1      43.874   3.934  10.362  0.00  0.00    +0.000 C 
BRANCH  11  12
ATOM     12  C   UNL     1      44.581   3.170   9.225  0.00  0.00    +0.000 C 
ATOM     13  O   UNL     1      44.869   3.662   8.133  0.00  0.00    +0.000 OA
ATOM     14  N   UNL     1      44.974   1.888   9.540  0.00  0.00    +0.000 N 
ATOM     15  H   UNL     1      45.050   1.573  10.509  0.00  0.00    +0.000 HD
BRANCH  14  16
ATOM     16  O   UNL     1      45.763   1.233   8.568  0.00  0.00    +0.000 OA
ATOM     17  H   UNL     1      46.554   0.965   9.088  0.00  0.00    +0.000 HD
ENDBRANCH  14  16
ENDBRANCH  11  12
BRANCH  11  18
ATOM     18  C   UNL     1      43.455   2.929  11.454  0.00  0.00    +0.000 C 
BRANCH  18  19
ATOM     19  N   UNL     1      44.496   2.681  12.461  0.00  0.00    +0.000 NA
ATOM     20  H   UNL     1      45.280   3.309  12.281  0.00  0.00    +0.000 HD
ATOM     21  H   UNL     1      44.861   1.734  12.356  0.00  0.00    +0.000 HD
ENDBRANCH  18  19
ENDBRANCH  11  18
ENDBRANCH   7  11
ENDBRANCH   1   8
BRANCH   4  22
ATOM     22  C   UNL     1      47.929  10.288  12.880  0.00  0.00    +0.000 C 
BRANCH  22  23
ATOM     23  N   UNL     1      49.240  10.070  12.324  0.00  0.00    +0.000 N 
ATOM     24  C   UNL     1      49.623  10.564  11.105  0.00  0.00    +0.000 C 
ATOM     25  O   UNL     1      48.853  11.188  10.380  0.00  0.00    +0.000 OA
ATOM     26  H   UNL     1      49.847   9.419  12.811  0.00  0.00    +0.000 HD
BRANCH  24  27
ATOM     27  C   UNL     1      51.034  10.379  10.740  0.00  0.00    +0.000 A 
ATOM     28  C   UNL     1      51.823  11.485  10.456  0.00  0.00    +0.000 A 
ATOM     29  S   UNL     1      53.445  11.098  10.097  0.00  0.00    +0.000 S 
ATOM     30  C   UNL     1      53.141   9.431  10.262  0.00  0.00    +0.000 A 
ATOM     31  N   UNL     1      54.125   8.518  10.054  0.00  0.00    +0.000 NA
ATOM     32  C   UNL     1      53.748   7.288  10.173  0.00  0.00    +0.000 A 
ATOM     33  N   UNL     1      52.475   6.893  10.498  0.00  0.00    +0.000 N 
ATOM     34  C   UNL     1      51.467   7.780  10.786  0.00  0.00    +0.000 A 
ATOM     35  O   UNL     1      50.376   7.397  11.194  0.00  0.00    +0.000 OA
ATOM     36  C   UNL     1      51.827   9.174  10.616  0.00  0.00    +0.000 A 
ATOM     37  H   UNL     1      52.254   5.912  10.602  0.00  0.00    +0.000 HD
ENDBRANCH  24  27
ENDBRANCH  22  23
ENDBRANCH   4  22
TORSDOF 9
ENDMDL
MODEL 9
REMARK VINA RESULT:    -6.236      3.173      3.942
REMARK INTER + INTRA:         -10.473
REMARK INTER:                  -9.277
REMARK INTRA:                  -1.196
REMARK UNBOUND:                -1.320
REMARK  Name = 
REMARK  9 active torsions:
REMARK  status: ('A' for Active; 'I' for Inactive)
REMARK    1  A    between atoms: N_1  and  C_2
REMARK    2  A    between atoms: C_2  and  C_3
REMARK    3  A    between atoms: C_3  and  N_4
REMARK    4  A    between atoms: C_3  and  C_27
REMARK    5  A    between atoms: C_5  and  C_7
REMARK    6  A    between atoms: C_10  and  C_11
REMARK    7  A    between atoms: C_11  and  N_12
REMARK    8  A    between atoms: C_13  and  C_15
REMARK    9  A    between atoms: N_29  and  O_30
REMARK                            x       y       z     vdW  Elec       q    Type
REMARK                         _______ _______ _______ _____ _____    ______ ____
ROOT
ATOM      1  C   UNL     1      46.524   7.515  12.634  0.00  0.00    +0.000 A 
ATOM      2  C   UNL     1      47.322   6.410  12.907  0.00  0.00    +0.000 A 
ATOM      3  C   UNL     1      48.507   6.601  13.608  0.00  0.00    +0.000 A 
ATOM      4  C   UNL     1      48.870   7.887  14.018  0.00  0.00    +0.000 A 
ATOM      5  C   UNL     1      47.986   8.926  13.727  0.00  0.00    +0.000 A 
ATOM      6  N   UNL     1      46.829   8.781  13.035  0.00  0.00    +0.000 NA
ENDROOT
BRANCH   1   8
ATOM      7  N   UNL     1      44.789   6.023  11.769  0.00  0.00    +0.000 N 
ATOM      8  C   UNL     1      45.236   7.321  11.890  0.00  0.00    +0.000 C 
ATOM      9  O   UNL     1      44.633   8.265  11.385  0.00  0.00    +0.000 OA
ATOM     10  H   UNL     1      45.329   5.292  12.224  0.00  0.00    +0.000 HD
BRANCH   7  11
ATOM     11  C   UNL     1      43.596   5.677  10.993  0.00  0.00    +0.000 C 
BRANCH  11  12
ATOM     12  C   UNL     1      43.770   4.331  10.263  0.00  0.00    +0.000 C 
ATOM     13  O   UNL     1      43.500   3.235  10.757  0.00  0.00    +0.000 OA
ATOM     14  N   UNL     1      44.165   4.428   8.948  0.00  0.00    +0.000 N 
ATOM     15  H   UNL     1      44.076   5.300   8.423  0.00  0.00    +0.000 HD
BRANCH  14  16
ATOM     16  O   UNL     1      44.173   3.217   8.220  0.00  0.00    +0.000 OA
ATOM     17  H   UNL     1      44.169   3.534   7.288  0.00  0.00    +0.000 HD
ENDBRANCH  14  16
ENDBRANCH  11  12
BRANCH  11  18
ATOM     18  C   UNL     1      42.321   5.615  11.860  0.00  0.00    +0.000 C 
BRANCH  18  19
ATOM     19  N   UNL     1      42.578   5.288  13.269  0.00  0.00    +0.000 NA
ATOM     20  H   UNL     1      42.101   5.974  13.855  0.00  0.00    +0.000 HD
ATOM     21  H   UNL     1      43.573   5.387  13.472  0.00  0.00    +0.000 HD
ENDBRANCH  18  19
ENDBRANCH  11  18
ENDBRANCH   7  11
ENDBRANCH   1   8
BRANCH   4  22
ATOM     22  C   UNL     1      50.163   8.130  14.741  0.00  0.00    +0.000 C 
BRANCH  22  23
ATOM     23  N   UNL     1      50.160   7.577  16.071  0.00  0.00    +0.000 N 
ATOM     24  C   UNL     1      51.212   6.864  16.583  0.00  0.00    +0.000 C 
ATOM     25  O   UNL     1      52.213   6.606  15.919  0.00  0.00    +0.000 OA
ATOM     26  H   UNL     1      49.289   7.621  16.590  0.00  0.00    +0.000 HD
BRANCH  24  27
ATOM     27  C   UNL     1      51.118   6.489  18.000  0.00  0.00    +0.000 A 
ATOM     28  C   UNL     1      52.100   6.904  18.889  0.00  0.00    +0.000 A 
ATOM     29  S   UNL     1      51.816   6.423  20.501  0.00  0.00    +0.000 S 
ATOM     30  C   UNL     1      50.391   5.601  20.061  0.00  0.00    +0.000 A 
ATOM     31  N   UNL     1      49.659   4.930  20.988  0.00  0.00    +0.000 NA
ATOM     32  C   UNL     1      48.625   4.317  20.512  0.00  0.00    +0.000 A 
ATOM     33  N   UNL     1      48.253   4.332  19.192  0.00  0.00    +0.000 N 
ATOM     34  C   UNL     1      48.922   5.053  18.234  0.00  0.00    +0.000 A 
ATOM     35  O   UNL     1      48.493   5.145  17.088  0.00  0.00    +0.000 OA
ATOM     36  C   UNL     1      50.120   5.717  18.709  0.00  0.00    +0.000 A 
ATOM     37  H   UNL     1      47.415   3.853  18.891  0.00  0.00    +0.000 HD
ENDBRANCH  24  27
ENDBRANCH  22  23
ENDBRANCH   4  22
TORSDOF 9
ENDMDL
