MODEL 1
REMARK VINA RESULT:    -7.023      0.000      0.000
REMARK INTER + INTRA:         -10.773
REMARK INTER:                  -9.487
REMARK INTRA:                  -1.286
REMARK UNBOUND:                -1.286
REMARK  Name = 
REMARK  8 active torsions:
REMARK  status: ('A' for Active; 'I' for Inactive)
REMARK    1  A    between atoms: C_1  and  C_2
REMARK    2  A    between atoms: C_2  and  N_3
REMARK    3  A    between atoms: C_2  and  C_17
REMARK    4  A    between atoms: C_4  and  C_6
REMARK    5  A    between atoms: N_12  and  C_13
REMARK    6  A    between atoms: C_20  and  O_21
REMARK    7  A    between atoms: O_21  and  C_22
REMARK    8  A    between atoms: C_22  and  C_23
REMARK                            x       y       z     vdW  Elec       q    Type
REMARK                         _______ _______ _______ _____ _____    ______ ____
ROOT
ATOM      1  C   UNL     1      47.312   8.818  13.726  0.00  0.00    +0.000 C 
ATOM      2  C   UNL     1      47.799   7.369  13.720  0.00  0.00    +0.000 C 
ENDROOT
BRANCH   2   3
ATOM      3  C   UNL     1      46.926   6.504  12.832  0.00  0.00    +0.000 A 
ATOM      4  C   UNL     1      46.765   6.709  11.455  0.00  0.00    +0.000 A 
ATOM      5  C   UNL     1      45.901   5.895  10.722  0.00  0.00    +0.000 A 
ATOM      6  C   UNL     1      45.241   4.877  11.383  0.00  0.00    +0.000 A 
ATOM      7  N   UNL     1      45.401   4.616  12.698  0.00  0.00    +0.000 NA
ATOM      8  C   UNL     1      46.234   5.429  13.385  0.00  0.00    +0.000 A 
BRANCH   6   9
ATOM      9  O   UNL     1      44.371   4.109  10.633  0.00  0.00    +0.000 OA
BRANCH   9  10
ATOM     10  C   UNL     1      44.876   2.793  10.380  0.00  0.00    +0.000 C 
BRANCH  10  11
ATOM     11  C   UNL     1      44.616   2.432   8.913  0.00  0.00    +0.000 C 
ATOM     12  C   UNL     1      45.818   1.771   8.269  0.00  0.00    +0.000 C 
ATOM     13  C   UNL     1      46.656   2.948   7.815  0.00  0.00    +0.000 C 
ATOM     14  O   UNL     1      45.757   4.039   7.582  0.00  0.00    +0.000 OA
ATOM     15  C   UNL     1      44.450   3.669   8.047  0.00  0.00    +0.000 C 
ENDBRANCH  10  11
ENDBRANCH   9  10
ENDBRANCH   6   9
ENDBRANCH   2   3
BRANCH   2  16
ATOM     16  N   UNL     1      47.838   6.847  15.073  0.00  0.00    +0.000 N 
ATOM     17  C   UNL     1      48.990   6.608  15.773  0.00  0.00    +0.000 C 
ATOM     18  O   UNL     1      50.105   6.682  15.266  0.00  0.00    +0.000 OA
ATOM     19  H   UNL     1      46.997   6.990  15.613  0.00  0.00    +0.000 HD
BRANCH  17  20
ATOM     20  C   UNL     1      48.799   6.204  17.173  0.00  0.00    +0.000 A 
ATOM     21  C   UNL     1      49.112   4.914  17.579  0.00  0.00    +0.000 A 
ATOM     22  S   UNL     1      48.798   4.629  19.233  0.00  0.00    +0.000 S 
ATOM     23  C   UNL     1      48.275   6.232  19.470  0.00  0.00    +0.000 A 
ATOM     24  N   UNL     1      47.884   6.667  20.695  0.00  0.00    +0.000 NA
ATOM     25  C   UNL     1      47.533   7.912  20.735  0.00  0.00    +0.000 A 
ATOM     26  N   UNL     1      47.526   8.778  19.662  0.00  0.00    +0.000 N 
ATOM     27  C   UNL     1      47.095  10.152  19.810  0.00  0.00    +0.000 C 
ATOM     28  C   UNL     1      47.892   8.354  18.391  0.00  0.00    +0.000 A 
ATOM     29  O   UNL     1      47.827   9.087  17.408  0.00  0.00    +0.000 OA
ATOM     30  C   UNL     1      48.314   6.967  18.303  0.00  0.00    +0.000 A 
ENDBRANCH  17  20
ENDBRANCH   2  16
TORSDOF 6
ENDMDL
MODEL 2
REMARK VINA RESULT:    -6.991      2.856      4.049
REMARK INTER + INTRA:         -10.729
REMARK INTER:                 -10.323
REMARK INTRA:                  -0.406
REMARK UNBOUND:                -1.286
REMARK  Name = 
REMARK  8 active torsions:
REMARK  status: ('A' for Active; 'I' for Inactive)
REMARK    1  A    between atoms: C_1  and  C_2
REMARK    2  A    between atoms: C_2  and  N_3
REMARK    3  A    between atoms: C_2  and  C_17
REMARK    4  A    between atoms: C_4  and  C_6
REMARK    5  A    between atoms: N_12  and  C_13
REMARK    6  A    between atoms: C_20  and  O_21
REMARK    7  A    between atoms: O_21  and  C_22
REMARK    8  A    between atoms: C_22  and  C_23
REMARK                            x       y       z     vdW  Elec       q    Type
REMARK                         _______ _______ _______ _____ _____    ______ ____
ROOT
ATOM      1  C   UNL     1      43.380   4.231  13.548  0.00  0.00    +0.000 C 
ATOM      2  C   UNL     1      44.105   5.347  12.796  0.00  0.00    +0.000 C 
ENDROOT
BRANCH   2   3
ATOM      3  C   UNL     1      44.467   4.910  11.390  0.00  0.00    +0.000 A 
ATOM      4  C   UNL     1      45.358   5.603  10.560  0.00  0.00    +0.000 A 
ATOM      5  C   UNL     1      45.595   5.157   9.260  0.00  0.00    +0.000 A 
ATOM      6  C   UNL     1      44.954   4.009   8.833  0.00  0.00    +0.000 A 
ATOM      7  N   UNL     1      44.123   3.285   9.615  0.00  0.00    +0.000 NA
ATOM      8  C   UNL     1      43.903   3.750  10.865  0.00  0.00    +0.000 A 
BRANCH   6   9
ATOM      9  O   UNL     1      45.188   3.612   7.531  0.00  0.00    +0.000 OA
BRANCH   9  10
ATOM     10  C   UNL     1      46.510   3.938   7.085  0.00  0.00    +0.000 C 
BRANCH  10  11
ATOM     11  C   UNL     1      46.944   2.919   6.026  0.00  0.00    +0.000 C 
ATOM     12  C   UNL     1      46.232   1.591   6.190  0.00  0.00    +0.000 C 
ATOM     13  C   UNL     1      47.083   0.868   7.213  0.00  0.00    +0.000 C 
ATOM     14  O   UNL     1      48.415   1.383   7.090  0.00  0.00    +0.000 OA
ATOM     15  C   UNL     1      48.396   2.507   6.198  0.00  0.00    +0.000 C 
ENDBRANCH  10  11
ENDBRANCH   9  10
ENDBRANCH   6   9
ENDBRANCH   2   3
BRANCH   2  16
ATOM     16  N   UNL     1      45.285   5.762  13.529  0.00  0.00    +0.000 N 
ATOM     17  C   UNL     1      46.371   4.961  13.759  0.00  0.00    +0.000 C 
ATOM     18  O   UNL     1      46.385   3.765  13.486  0.00  0.00    +0.000 OA
ATOM     19  H   UNL     1      45.439   6.760  13.567  0.00  0.00    +0.000 HD
BRANCH  17  20
ATOM     20  C   UNL     1      47.512   5.622  14.409  0.00  0.00    +0.000 A 
ATOM     21  C   UNL     1      48.161   6.676  13.783  0.00  0.00    +0.000 A 
ATOM     22  S   UNL     1      49.474   7.294  14.683  0.00  0.00    +0.000 S 
ATOM     23  C   UNL     1      49.190   6.201  15.957  0.00  0.00    +0.000 A 
ATOM     24  N   UNL     1      49.958   6.216  17.077  0.00  0.00    +0.000 NA
ATOM     25  C   UNL     1      49.617   5.347  17.973  0.00  0.00    +0.000 A 
ATOM     26  N   UNL     1      48.578   4.448  17.863  0.00  0.00    +0.000 N 
ATOM     27  C   UNL     1      48.291   3.500  18.919  0.00  0.00    +0.000 C 
ATOM     28  C   UNL     1      47.794   4.388  16.717  0.00  0.00    +0.000 A 
ATOM     29  O   UNL     1      46.909   3.550  16.568  0.00  0.00    +0.000 OA
ATOM     30  C   UNL     1      48.128   5.361  15.692  0.00  0.00    +0.000 A 
ENDBRANCH  17  20
ENDBRANCH   2  16
TORSDOF 6
ENDMDL
MODEL 3
REMARK VINA RESULT:    -6.884      1.883      2.668
REMARK INTER + INTRA:         -10.584
REMARK INTER:                  -9.346
REMARK INTRA:                  -1.239
REMARK UNBOUND:                -1.286
REMARK  Name = 
REMARK  8 active torsions:
REMARK  status: ('A' for Active; 'I' for Inactive)
REMARK    1  A    between atoms: C_1  and  C_2
REMARK    2  A    between atoms: C_2  and  N_3
REMARK    3  A    between atoms: C_2  and  C_17
REMARK    4  A    between atoms: C_4  and  C_6
REMARK    5  A    between atoms: N_12  and  C_13
REMARK    6  A    between atoms: C_20  and  O_21
REMARK    7  A    between atoms: O_21  and  C_22
REMARK    8  A    between atoms: C_22  and  C_23
REMARK                            x       y       z     vdW  Elec       q    Type
REMARK                         _______ _______ _______ _____ _____    ______ ____
ROOT
ATOM      1  C   UNL     1      46.693   9.258  12.984  0.00  0.00    +0.000 C 
ATOM      2  C   UNL     1      47.408   7.908  13.032  0.00  0.00    +0.000 C 
ENDROOT
BRANCH   2   3
ATOM      3  C   UNL     1      46.537   6.810  12.452  0.00  0.00    +0.000 A 
ATOM      4  C   UNL     1      45.881   5.841  13.223  0.00  0.00    +0.000 A 
ATOM      5  C   UNL     1      45.140   4.836  12.602  0.00  0.00    +0.000 A 
ATOM      6  C   UNL     1      45.051   4.844  11.223  0.00  0.00    +0.000 A 
ATOM      7  N   UNL     1      45.629   5.784  10.444  0.00  0.00    +0.000 NA
ATOM      8  C   UNL     1      46.351   6.738  11.074  0.00  0.00    +0.000 A 
BRANCH   6   9
ATOM      9  O   UNL     1      44.334   3.817  10.639  0.00  0.00    +0.000 OA
BRANCH   9  10
ATOM     10  C   UNL     1      45.167   2.719  10.246  0.00  0.00    +0.000 C 
BRANCH  10  11
ATOM     11  C   UNL     1      44.860   2.358   8.789  0.00  0.00    +0.000 C 
ATOM     12  C   UNL     1      46.067   1.772   8.083  0.00  0.00    +0.000 C 
ATOM     13  C   UNL     1      46.815   2.999   7.605  0.00  0.00    +0.000 C 
ATOM     14  O   UNL     1      45.846   4.039   7.426  0.00  0.00    +0.000 OA
ATOM     15  C   UNL     1      44.584   3.591   7.945  0.00  0.00    +0.000 C 
ENDBRANCH  10  11
ENDBRANCH   9  10
ENDBRANCH   6   9
ENDBRANCH   2   3
BRANCH   2  16
ATOM     16  N   UNL     1      47.797   7.594  14.393  0.00  0.00    +0.000 N 
ATOM     17  C   UNL     1      49.095   7.496  14.820  0.00  0.00    +0.000 C 
ATOM     18  O   UNL     1      50.052   7.524  14.052  0.00  0.00    +0.000 OA
ATOM     19  H   UNL     1      47.100   7.793  15.097  0.00  0.00    +0.000 HD
BRANCH  17  20
ATOM     20  C   UNL     1      49.266   7.299  16.267  0.00  0.00    +0.000 A 
ATOM     21  C   UNL     1      49.831   8.296  17.048  0.00  0.00    +0.000 A 
ATOM     22  S   UNL     1      49.967   7.871  18.696  0.00  0.00    +0.000 S 
ATOM     23  C   UNL     1      49.237   6.357  18.426  0.00  0.00    +0.000 A 
ATOM     24  N   UNL     1      49.022   5.490  19.449  0.00  0.00    +0.000 NA
ATOM     25  C   UNL     1      48.438   4.388  19.104  0.00  0.00    +0.000 A 
ATOM     26  N   UNL     1      48.047   4.053  17.825  0.00  0.00    +0.000 N 
ATOM     27  C   UNL     1      47.417   2.781  17.542  0.00  0.00    +0.000 C 
ATOM     28  C   UNL     1      48.282   4.906  16.753  0.00  0.00    +0.000 A 
ATOM     29  O   UNL     1      48.006   4.601  15.596  0.00  0.00    +0.000 OA
ATOM     30  C   UNL     1      48.916   6.167  17.097  0.00  0.00    +0.000 A 
ENDBRANCH  17  20
ENDBRANCH   2  16
TORSDOF 6
ENDMDL
MODEL 4
REMARK VINA RESULT:    -6.824      4.571      9.152
REMARK INTER + INTRA:         -10.504
REMARK INTER:                  -9.643
REMARK INTRA:                  -0.861
REMARK UNBOUND:                -1.286
REMARK  Name = 
REMARK  8 active torsions:
REMARK  status: ('A' for Active; 'I' for Inactive)
REMARK    1  A    between atoms: C_1  and  C_2
REMARK    2  A    between atoms: C_2  and  N_3
REMARK    3  A    between atoms: C_2  and  C_17
REMARK    4  A    between atoms: C_4  and  C_6
REMARK    5  A    between atoms: N_12  and  C_13
REMARK    6  A    between atoms: C_20  and  O_21
REMARK    7  A    between atoms: O_21  and  C_22
REMARK    8  A    between atoms: C_22  and  C_23
REMARK                            x       y       z     vdW  Elec       q    Type
REMARK                         _______ _______ _______ _____ _____    ______ ____
ROOT
ATOM      1  C   UNL     1      47.140   4.805  18.346  0.00  0.00    +0.000 C 
ATOM      2  C   UNL     1      47.583   4.055  17.089  0.00  0.00    +0.000 C 
ENDROOT
BRANCH   2   3
ATOM      3  C   UNL     1      48.991   3.514  17.245  0.00  0.00    +0.000 A 
ATOM      4  C   UNL     1      49.366   2.203  16.924  0.00  0.00    +0.000 A 
ATOM      5  C   UNL     1      50.674   1.774  17.148  0.00  0.00    +0.000 A 
ATOM      6  C   UNL     1      51.583   2.680  17.662  0.00  0.00    +0.000 A 
ATOM      7  N   UNL     1      51.276   3.965  17.944  0.00  0.00    +0.000 NA
ATOM      8  C   UNL     1      49.997   4.348  17.728  0.00  0.00    +0.000 A 
BRANCH   6   9
ATOM      9  O   UNL     1      52.861   2.213  17.899  0.00  0.00    +0.000 OA
BRANCH   9  10
ATOM     10  C   UNL     1      53.029   0.846  17.507  0.00  0.00    +0.000 C 
BRANCH  10  11
ATOM     11  C   UNL     1      54.501   0.456  17.679  0.00  0.00    +0.000 C 
ATOM     12  C   UNL     1      54.723  -1.030  17.471  0.00  0.00    +0.000 C 
ATOM     13  C   UNL     1      54.424  -1.616  18.836  0.00  0.00    +0.000 C 
ATOM     14  O   UNL     1      54.705  -0.596  19.802  0.00  0.00    +0.000 OA
ATOM     15  C   UNL     1      54.971   0.635  19.112  0.00  0.00    +0.000 C 
ENDBRANCH  10  11
ENDBRANCH   9  10
ENDBRANCH   6   9
ENDBRANCH   2   3
BRANCH   2  16
ATOM     16  N   UNL     1      47.487   4.920  15.929  0.00  0.00    +0.000 N 
ATOM     17  C   UNL     1      47.292   4.473  14.649  0.00  0.00    +0.000 C 
ATOM     18  O   UNL     1      47.323   3.284  14.347  0.00  0.00    +0.000 OA
ATOM     19  H   UNL     1      47.218   5.874  16.125  0.00  0.00    +0.000 HD
BRANCH  17  20
ATOM     20  C   UNL     1      47.094   5.525  13.642  0.00  0.00    +0.000 A 
ATOM     21  C   UNL     1      48.141   6.364  13.288  0.00  0.00    +0.000 A 
ATOM     22  S   UNL     1      47.708   7.534  12.123  0.00  0.00    +0.000 S 
ATOM     23  C   UNL     1      46.119   6.931  12.023  0.00  0.00    +0.000 A 
ATOM     24  N   UNL     1      45.215   7.478  11.170  0.00  0.00    +0.000 NA
ATOM     25  C   UNL     1      44.054   6.907  11.180  0.00  0.00    +0.000 A 
ATOM     26  N   UNL     1      43.695   5.835  11.969  0.00  0.00    +0.000 N 
ATOM     27  C   UNL     1      42.358   5.281  11.919  0.00  0.00    +0.000 C 
ATOM     28  C   UNL     1      44.588   5.274  12.873  0.00  0.00    +0.000 A 
ATOM     29  O   UNL     1      44.270   4.366  13.636  0.00  0.00    +0.000 OA
ATOM     30  C   UNL     1      45.913   5.871  12.880  0.00  0.00    +0.000 A 
ENDBRANCH  17  20
ENDBRANCH   2  16
TORSDOF 6
ENDMDL
MODEL 5
REMARK VINA RESULT:    -6.615      2.759      9.078
REMARK INTER + INTRA:         -10.221
REMARK INTER:                  -9.173
REMARK INTRA:                  -1.048
REMARK UNBOUND:                -1.286
REMARK  Name = 
REMARK  8 active torsions:
REMARK  status: ('A' for Active; 'I' for Inactive)
REMARK    1  A    between atoms: C_1  and  C_2
REMARK    2  A    between atoms: C_2  and  N_3
REMARK    3  A    between atoms: C_2  and  C_17
REMARK    4  A    between atoms: C_4  and  C_6
REMARK    5  A    between atoms: N_12  and  C_13
REMARK    6  A    between atoms: C_20  and  O_21
REMARK    7  A    between atoms: O_21  and  C_22
REMARK    8  A    between atoms: C_22  and  C_23
REMARK                            x       y       z     vdW  Elec       q    Type
REMARK                         _______ _______ _______ _____ _____    ______ ____
ROOT
ATOM      1  C   UNL     1      48.418   7.873  11.411  0.00  0.00    +0.000 C 
ATOM      2  C   UNL     1      47.316   7.754  12.464  0.00  0.00    +0.000 C 
ENDROOT
BRANCH   2   3
ATOM      3  C   UNL     1      47.897   7.766  13.864  0.00  0.00    +0.000 A 
ATOM      4  C   UNL     1      47.926   8.897  14.691  0.00  0.00    +0.000 A 
ATOM      5  C   UNL     1      48.527   8.831  15.948  0.00  0.00    +0.000 A 
ATOM      6  C   UNL     1      49.059   7.623  16.358  0.00  0.00    +0.000 A 
ATOM      7  N   UNL     1      49.012   6.497  15.613  0.00  0.00    +0.000 NA
ATOM      8  C   UNL     1      48.436   6.595  14.394  0.00  0.00    +0.000 A 
BRANCH   6   9
ATOM      9  O   UNL     1      49.672   7.601  17.596  0.00  0.00    +0.000 OA
BRANCH   9  10
ATOM     10  C   UNL     1      50.224   6.317  17.913  0.00  0.00    +0.000 C 
BRANCH  10  11
ATOM     11  C   UNL     1      49.508   5.759  19.148  0.00  0.00    +0.000 C 
ATOM     12  C   UNL     1      49.172   4.289  18.992  0.00  0.00    +0.000 C 
ATOM     13  C   UNL     1      47.849   4.314  18.255  0.00  0.00    +0.000 C 
ATOM     14  O   UNL     1      47.205   5.550  18.589  0.00  0.00    +0.000 OA
ATOM     15  C   UNL     1      48.127   6.367  19.326  0.00  0.00    +0.000 C 
ENDBRANCH  10  11
ENDBRANCH   9  10
ENDBRANCH   6   9
ENDBRANCH   2   3
BRANCH   2  16
ATOM     16  N   UNL     1      46.534   6.554  12.238  0.00  0.00    +0.000 N 
ATOM     17  C   UNL     1      45.299   6.539  11.646  0.00  0.00    +0.000 C 
ATOM     18  O   UNL     1      44.677   7.562  11.380  0.00  0.00    +0.000 OA
ATOM     19  H   UNL     1      47.064   5.694  12.209  0.00  0.00    +0.000 HD
BRANCH  17  20
ATOM     20  C   UNL     1      44.740   5.203  11.396  0.00  0.00    +0.000 A 
ATOM     21  C   UNL     1      43.910   4.604  12.333  0.00  0.00    +0.000 A 
ATOM     22  S   UNL     1      43.384   3.046  11.874  0.00  0.00    +0.000 S 
ATOM     23  C   UNL     1      44.213   3.139  10.391  0.00  0.00    +0.000 A 
ATOM     24  N   UNL     1      44.153   2.124   9.490  0.00  0.00    +0.000 NA
ATOM     25  C   UNL     1      44.811   2.338   8.397  0.00  0.00    +0.000 A 
ATOM     26  N   UNL     1      45.538   3.473   8.108  0.00  0.00    +0.000 N 
ATOM     27  C   UNL     1      46.258   3.606   6.858  0.00  0.00    +0.000 C 
ATOM     28  C   UNL     1      45.643   4.515   9.021  0.00  0.00    +0.000 A 
ATOM     29  O   UNL     1      46.340   5.504   8.815  0.00  0.00    +0.000 OA
ATOM     30  C   UNL     1      44.901   4.327  10.256  0.00  0.00    +0.000 A 
ENDBRANCH  17  20
ENDBRANCH   2  16
TORSDOF 6
ENDMDL
MODEL 6
REMARK VINA RESULT:    -6.306      2.800      3.594
REMARK INTER + INTRA:          -9.804
REMARK INTER:                  -8.464
REMARK INTRA:                  -1.340
REMARK UNBOUND:                -1.286
REMARK  Name = 
REMARK  8 active torsions:
REMARK  status: ('A' for Active; 'I' for Inactive)
REMARK    1  A    between atoms: C_1  and  C_2
REMARK    2  A    between atoms: C_2  and  N_3
REMARK    3  A    between atoms: C_2  and  C_17
REMARK    4  A    between atoms: C_4  and  C_6
REMARK    5  A    between atoms: N_12  and  C_13
REMARK    6  A    between atoms: C_20  and  O_21
REMARK    7  A    between atoms: O_21  and  C_22
REMARK    8  A    between atoms: C_22  and  C_23
REMARK                            x       y       z     vdW  Elec       q    Type
REMARK                         _______ _______ _______ _____ _____    ______ ____
ROOT
ATOM      1  C   UNL     1      48.973  10.144  13.849  0.00  0.00    +0.000 C 
ATOM      2  C   UNL     1      49.112   8.626  13.730  0.00  0.00    +0.000 C 
ENDROOT
BRANCH   2   3
ATOM      3  C   UNL     1      47.908   8.022  13.034  0.00  0.00    +0.000 A 
ATOM      4  C   UNL     1      47.880   6.726  12.501  0.00  0.00    +0.000 A 
ATOM      5  C   UNL     1      46.745   6.269  11.831  0.00  0.00    +0.000 A 
ATOM      6  C   UNL     1      45.654   7.112  11.737  0.00  0.00    +0.000 A 
ATOM      7  N   UNL     1      45.622   8.351  12.275  0.00  0.00    +0.000 NA
ATOM      8  C   UNL     1      46.741   8.771  12.907  0.00  0.00    +0.000 A 
BRANCH   6   9
ATOM      9  O   UNL     1      44.559   6.638  11.042  0.00  0.00    +0.000 OA
BRANCH   9  10
ATOM     10  C   UNL     1      44.695   5.260  10.674  0.00  0.00    +0.000 C 
BRANCH  10  11
ATOM     11  C   UNL     1      43.358   4.548  10.908  0.00  0.00    +0.000 C 
ATOM     12  C   UNL     1      42.541   5.218  11.995  0.00  0.00    +0.000 C 
ATOM     13  C   UNL     1      43.079   4.591  13.265  0.00  0.00    +0.000 C 
ATOM     14  O   UNL     1      43.573   3.292  12.916  0.00  0.00    +0.000 OA
ATOM     15  C   UNL     1      43.550   3.157  11.486  0.00  0.00    +0.000 C 
ENDBRANCH  10  11
ENDBRANCH   9  10
ENDBRANCH   6   9
ENDBRANCH   2   3
BRANCH   2  16
ATOM     16  N   UNL     1      49.303   8.035  15.040  0.00  0.00    +0.000 N 
ATOM     17  C   UNL     1      50.517   7.645  15.539  0.00  0.00    +0.000 C 
ATOM     18  O   UNL     1      51.541   7.629  14.864  0.00  0.00    +0.000 OA
ATOM     19  H   UNL     1      48.576   8.236  15.712  0.00  0.00    +0.000 HD
BRANCH  17  20
ATOM     20  C   UNL     1      50.503   7.191  16.938  0.00  0.00    +0.000 A 
ATOM     21  C   UNL     1      51.274   7.838  17.892  0.00  0.00    +0.000 A 
ATOM     22  S   UNL     1      51.143   7.151  19.450  0.00  0.00    +0.000 S 
ATOM     23  C   UNL     1      50.018   5.993  18.907  0.00  0.00    +0.000 A 
ATOM     24  N   UNL     1      49.471   5.093  19.764  0.00  0.00    +0.000 NA
ATOM     25  C   UNL     1      48.616   4.288  19.222  0.00  0.00    +0.000 A 
ATOM     26  N   UNL     1      48.248   4.284  17.893  0.00  0.00    +0.000 N 
ATOM     27  C   UNL     1      47.293   3.325  17.381  0.00  0.00    +0.000 C 
ATOM     28  C   UNL     1      48.813   5.173  16.987  0.00  0.00    +0.000 A 
ATOM     29  O   UNL     1      48.554   5.144  15.787  0.00  0.00    +0.000 OA
ATOM     30  C   UNL     1      49.765   6.111  17.557  0.00  0.00    +0.000 A 
ENDBRANCH  17  20
ENDBRANCH   2  16
TORSDOF 6
ENDMDL
MODEL 7
REMARK VINA RESULT:    -6.092      3.035      9.348
REMARK INTER + INTRA:          -9.514
REMARK INTER:                  -8.512
REMARK INTRA:                  -1.002
REMARK UNBOUND:                -1.286
REMARK  Name = 
REMARK  8 active torsions:
REMARK  status: ('A' for Active; 'I' for Inactive)
REMARK    1  A    between atoms: C_1  and  C_2
REMARK    2  A    between atoms: C_2  and  N_3
REMARK    3  A    between atoms: C_2  and  C_17
REMARK    4  A    between atoms: C_4  and  C_6
REMARK    5  A    between atoms: N_12  and  C_13
REMARK    6  A    between atoms: C_20  and  O_21
REMARK    7  A    between atoms: O_21  and  C_22
REMARK    8  A    between atoms: C_22  and  C_23
REMARK                            x       y       z     vdW  Elec       q    Type
REMARK                         _______ _______ _______ _____ _____    ______ ____
ROOT
ATOM      1  C   UNL     1      48.501   7.611  11.746  0.00  0.00    +0.000 C 
ATOM      2  C   UNL     1      47.430   7.413  12.819  0.00  0.00    +0.000 C 
ENDROOT
BRANCH   2   3
ATOM      3  C   UNL     1      48.058   7.228  14.186  0.00  0.00    +0.000 A 
ATOM      4  C   UNL     1      48.706   8.248  14.895  0.00  0.00    +0.000 A 
ATOM      5  C   UNL     1      49.301   7.977  16.127  0.00  0.00    +0.000 A 
ATOM      6  C   UNL     1      49.205   6.694  16.633  0.00  0.00    +0.000 A 
ATOM      7  N   UNL     1      48.552   5.692  16.005  0.00  0.00    +0.000 NA
ATOM      8  C   UNL     1      47.997   5.982  14.807  0.00  0.00    +0.000 A 
BRANCH   6   9
ATOM      9  O   UNL     1      49.831   6.453  17.841  0.00  0.00    +0.000 OA
BRANCH   9  10
ATOM     10  C   UNL     1      51.251   6.624  17.769  0.00  0.00    +0.000 C 
BRANCH  10  11
ATOM     11  C   UNL     1      51.872   5.375  17.133  0.00  0.00    +0.000 C 
ATOM     12  C   UNL     1      51.492   4.111  17.879  0.00  0.00    +0.000 C 
ATOM     13  C   UNL     1      52.524   4.041  18.986  0.00  0.00    +0.000 C 
ATOM     14  O   UNL     1      53.695   4.718  18.511  0.00  0.00    +0.000 OA
ATOM     15  C   UNL     1      53.385   5.363  17.267  0.00  0.00    +0.000 C 
ENDBRANCH  10  11
ENDBRANCH   9  10
ENDBRANCH   6   9
ENDBRANCH   2   3
BRANCH   2  16
ATOM     16  N   UNL     1      46.584   6.285  12.480  0.00  0.00    +0.000 N 
ATOM     17  C   UNL     1      45.518   6.351  11.624  0.00  0.00    +0.000 C 
ATOM     18  O   UNL     1      45.092   7.409  11.171  0.00  0.00    +0.000 OA
ATOM     19  H   UNL     1      47.004   5.376  12.616  0.00  0.00    +0.000 HD
BRANCH  17  20
ATOM     20  C   UNL     1      44.877   5.063  11.320  0.00  0.00    +0.000 A 
ATOM     21  C   UNL     1      44.018   4.474  12.237  0.00  0.00    +0.000 A 
ATOM     22  S   UNL     1      43.395   2.973  11.715  0.00  0.00    +0.000 S 
ATOM     23  C   UNL     1      44.219   3.082  10.229  0.00  0.00    +0.000 A 
ATOM     24  N   UNL     1      44.092   2.114   9.285  0.00  0.00    +0.000 NA
ATOM     25  C   UNL     1      44.755   2.336   8.197  0.00  0.00    +0.000 A 
ATOM     26  N   UNL     1      45.548   3.437   7.951  0.00  0.00    +0.000 N 
ATOM     27  C   UNL     1      46.266   3.581   6.703  0.00  0.00    +0.000 C 
ATOM     28  C   UNL     1      45.721   4.429   8.909  0.00  0.00    +0.000 A 
ATOM     29  O   UNL     1      46.476   5.382   8.740  0.00  0.00    +0.000 OA
ATOM     30  C   UNL     1      44.977   4.231  10.141  0.00  0.00    +0.000 A 
ENDBRANCH  17  20
ENDBRANCH   2  16
TORSDOF 6
ENDMDL
MODEL 8
REMARK VINA RESULT:    -5.695      1.644      2.295
REMARK INTER + INTRA:          -8.979
REMARK INTER:                  -7.808
REMARK INTRA:                  -1.170
REMARK UNBOUND:                -1.286
REMARK  Name = 
REMARK  8 active torsions:
REMARK  status: ('A' for Active; 'I' for Inactive)
REMARK    1  A    between atoms: C_1  and  C_2
REMARK    2  A    between atoms: C_2  and  N_3
REMARK    3  A    between atoms: C_2  and  C_17
REMARK    4  A    between atoms: C_4  and  C_6
REMARK    5  A    between atoms: N_12  and  C_13
REMARK    6  A    between atoms: C_20  and  O_21
REMARK    7  A    between atoms: O_21  and  C_22
REMARK    8  A    between atoms: C_22  and  C_23
REMARK                            x       y       z     vdW  Elec       q    Type
REMARK                         _______ _______ _______ _____ _____    ______ ____
ROOT
ATOM      1  C   UNL     1      49.993   8.723  14.549  0.00  0.00    +0.000 C 
ATOM      2  C   UNL     1      49.626   7.240  14.482  0.00  0.00    +0.000 C 
ENDROOT
BRANCH   2   3
ATOM      3  C   UNL     1      48.533   6.995  13.461  0.00  0.00    +0.000 A 
ATOM      4  C   UNL     1      48.543   7.521  12.162  0.00  0.00    +0.000 A 
ATOM      5  C   UNL     1      47.469   7.286  11.303  0.00  0.00    +0.000 A 
ATOM      6  C   UNL     1      46.423   6.506  11.758  0.00  0.00    +0.000 A 
ATOM      7  N   UNL     1      46.393   5.943  12.985  0.00  0.00    +0.000 NA
ATOM      8  C   UNL     1      47.441   6.199  13.800  0.00  0.00    +0.000 A 
BRANCH   6   9
ATOM      9  O   UNL     1      45.363   6.319  10.892  0.00  0.00    +0.000 OA
BRANCH   9  10
ATOM     10  C   UNL     1      45.439   5.071  10.192  0.00  0.00    +0.000 C 
BRANCH  10  11
ATOM     11  C   UNL     1      44.032   4.472  10.090  0.00  0.00    +0.000 C 
ATOM     12  C   UNL     1      43.112   4.995  11.175  0.00  0.00    +0.000 C 
ATOM     13  C   UNL     1      43.402   4.075  12.344  0.00  0.00    +0.000 C 
ATOM     14  O   UNL     1      43.844   2.827  11.797  0.00  0.00    +0.000 OA
ATOM     15  C   UNL     1      44.028   2.981  10.382  0.00  0.00    +0.000 C 
ENDBRANCH  10  11
ENDBRANCH   9  10
ENDBRANCH   6   9
ENDBRANCH   2   3
BRANCH   2  16
ATOM     16  N   UNL     1      49.226   6.762  15.792  0.00  0.00    +0.000 N 
ATOM     17  C   UNL     1      50.080   6.188  16.695  0.00  0.00    +0.000 C 
ATOM     18  O   UNL     1      51.239   5.894  16.422  0.00  0.00    +0.000 OA
ATOM     19  H   UNL     1      48.382   7.177  16.161  0.00  0.00    +0.000 HD
BRANCH  17  20
ATOM     20  C   UNL     1      49.495   5.895  18.012  0.00  0.00    +0.000 A 
ATOM     21  C   UNL     1      49.577   4.618  18.547  0.00  0.00    +0.000 A 
ATOM     22  S   UNL     1      48.817   4.471  20.069  0.00  0.00    +0.000 S 
ATOM     23  C   UNL     1      48.391   6.119  20.081  0.00  0.00    +0.000 A 
ATOM     24  N   UNL     1      47.732   6.664  21.135  0.00  0.00    +0.000 NA
ATOM     25  C   UNL     1      47.492   7.931  21.021  0.00  0.00    +0.000 A 
ATOM     26  N   UNL     1      47.842   8.719  19.945  0.00  0.00    +0.000 N 
ATOM     27  C   UNL     1      47.508  10.127  19.907  0.00  0.00    +0.000 C 
ATOM     28  C   UNL     1      48.490   8.183  18.839  0.00  0.00    +0.000 A 
ATOM     29  O   UNL     1      48.748   8.850  17.841  0.00  0.00    +0.000 OA
ATOM     30  C   UNL     1      48.798   6.767  18.933  0.00  0.00    +0.000 A 
ENDBRANCH  17  20
ENDBRANCH   2  16
TORSDOF 6
ENDMDL
MODEL 9
REMARK VINA RESULT:    -5.473      3.987      5.858
REMARK INTER + INTRA:          -8.678
REMARK INTER:                  -7.308
REMARK INTRA:                  -1.370
REMARK UNBOUND:                -1.286
REMARK  Name = 
REMARK  8 active torsions:
REMARK  status: ('A' for Active; 'I' for Inactive)
REMARK    1  A    between atoms: C_1  and  C_2
REMARK    2  A    between atoms: C_2  and  N_3
REMARK    3  A    between atoms: C_2  and  C_17
REMARK    4  A    between atoms: C_4  and  C_6
REMARK    5  A    between atoms: N_12  and  C_13
REMARK    6  A    between atoms: C_20  and  O_21
REMARK    7  A    between atoms: O_21  and  C_22
REMARK    8  A    between atoms: C_22  and  C_23
REMARK                            x       y       z     vdW  Elec       q    Type
REMARK                         _______ _______ _______ _____ _____    ______ ____
ROOT
ATOM      1  C   UNL     1      48.135   3.058  17.703  0.00  0.00    +0.000 C 
ATOM      2  C   UNL     1      48.505   4.493  17.327  0.00  0.00    +0.000 C 
ENDROOT
BRANCH   2   3
ATOM      3  C   UNL     1      47.914   4.872  15.983  0.00  0.00    +0.000 A 
ATOM      4  C   UNL     1      46.975   4.095  15.293  0.00  0.00    +0.000 A 
ATOM      5  C   UNL     1      46.522   4.496  14.036  0.00  0.00    +0.000 A 
ATOM      6  C   UNL     1      47.001   5.683  13.514  0.00  0.00    +0.000 A 
ATOM      7  N   UNL     1      47.873   6.485  14.164  0.00  0.00    +0.000 NA
ATOM      8  C   UNL     1      48.303   6.063  15.374  0.00  0.00    +0.000 A 
BRANCH   6   9
ATOM      9  O   UNL     1      46.555   6.034  12.255  0.00  0.00    +0.000 OA
BRANCH   9  10
ATOM     10  C   UNL     1      45.223   6.562  12.271  0.00  0.00    +0.000 C 
BRANCH  10  11
ATOM     11  C   UNL     1      44.454   6.009  11.065  0.00  0.00    +0.000 C 
ATOM     12  C   UNL     1      43.068   5.528  11.448  0.00  0.00    +0.000 C 
ATOM     13  C   UNL     1      43.315   4.110  11.921  0.00  0.00    +0.000 C 
ATOM     14  O   UNL     1      44.484   3.638  11.240  0.00  0.00    +0.000 OA
ATOM     15  C   UNL     1      45.081   4.733  10.530  0.00  0.00    +0.000 C 
ENDBRANCH  10  11
ENDBRANCH   9  10
ENDBRANCH   6   9
ENDBRANCH   2   3
BRANCH   2  16
ATOM     16  N   UNL     1      49.946   4.656  17.324  0.00  0.00    +0.000 N 
ATOM     17  C   UNL     1      50.668   5.137  18.383  0.00  0.00    +0.000 C 
ATOM     18  O   UNL     1      50.145   5.609  19.387  0.00  0.00    +0.000 OA
ATOM     19  H   UNL     1      50.442   4.084  16.655  0.00  0.00    +0.000 HD
BRANCH  17  20
ATOM     20  C   UNL     1      52.128   5.097  18.215  0.00  0.00    +0.000 A 
ATOM     21  C   UNL     1      52.878   6.259  18.328  0.00  0.00    +0.000 A 
ATOM     22  S   UNL     1      54.549   6.014  18.075  0.00  0.00    +0.000 S 
ATOM     23  C   UNL     1      54.329   4.341  17.848  0.00  0.00    +0.000 A 
ATOM     24  N   UNL     1      55.386   3.521  17.614  0.00  0.00    +0.000 NA
ATOM     25  C   UNL     1      55.076   2.272  17.483  0.00  0.00    +0.000 A 
ATOM     26  N   UNL     1      53.802   1.749  17.556  0.00  0.00    +0.000 N 
ATOM     27  C   UNL     1      53.560   0.333  17.375  0.00  0.00    +0.000 C 
ATOM     28  C   UNL     1      52.698   2.567  17.764  0.00  0.00    +0.000 A 
ATOM     29  O   UNL     1      51.549   2.135  17.763  0.00  0.00    +0.000 OA
ATOM     30  C   UNL     1      53.002   3.977  17.938  0.00  0.00    +0.000 A 
ENDBRANCH  17  20
ENDBRANCH   2  16
TORSDOF 6
ENDMDL
