MODEL 1
REMARK VINA RESULT:    -8.416      0.000      0.000
REMARK INTER + INTRA:         -12.735
REMARK INTER:                 -11.860
REMARK INTRA:                  -0.876
REMARK UNBOUND:                -0.876
REMARK  Name = 
REMARK  8 active torsions:
REMARK  status: ('A' for Active; 'I' for Inactive)
REMARK    1  A    between atoms: C_1  and  O_2
REMARK    2  A    between atoms: O_2  and  C_3
REMARK    3  A    between atoms: C_3  and  C_4
REMARK    4  A    between atoms: C_4  and  N_5
REMARK    5  A    between atoms: C_4  and  C_18
REMARK    6  A    between atoms: C_6  and  C_8
REMARK    7  A    between atoms: C_21  and  O_22
REMARK    8  A    between atoms: O_22  and  C_23
REMARK                            x       y       z     vdW  Elec       q    Type
REMARK                         _______ _______ _______ _____ _____    ______ ____
ROOT
ATOM      1  C   UNL     1      46.486   7.493  12.672  0.00  0.00    +0.000 C 
ENDROOT
BRANCH   1   2
ATOM      2  C   UNL     1      46.051   6.316  11.810  0.00  0.00    +0.000 A 
ATOM      3  C   UNL     1      46.267   6.384  10.429  0.00  0.00    +0.000 A 
ATOM      4  C   UNL     1      45.797   5.380   9.581  0.00  0.00    +0.000 A 
ATOM      5  C   UNL     1      45.147   4.263  10.105  0.00  0.00    +0.000 A 
ATOM      6  C   UNL     1      44.911   4.187  11.476  0.00  0.00    +0.000 A 
ATOM      7  C   UNL     1      45.355   5.208  12.322  0.00  0.00    +0.000 A 
BRANCH   5   8
ATOM      8  O   UNL     1      44.634   3.242   9.335  0.00  0.00    +0.000 OA
BRANCH   8   9
ATOM      9  C   UNL     1      45.471   2.641   8.403  0.00  0.00    +0.000 A 
ATOM     10  C   UNL     1      45.785   3.387   7.278  0.00  0.00    +0.000 A 
ATOM     11  C   UNL     1      46.642   2.823   6.335  0.00  0.00    +0.000 A 
ATOM     12  C   UNL     1      47.146   1.544   6.548  0.00  0.00    +0.000 A 
ATOM     13  C   UNL     1      46.756   0.867   7.691  0.00  0.00    +0.000 A 
ATOM     14  N   UNL     1      45.916   1.380   8.611  0.00  0.00    +0.000 NA
ENDBRANCH   8   9
ENDBRANCH   5   8
ENDBRANCH   1   2
BRANCH   1  15
ATOM     15  N   UNL     1      46.983   7.073  13.972  0.00  0.00    +0.000 N 
ATOM     16  C   UNL     1      48.266   6.661  14.195  0.00  0.00    +0.000 C 
ATOM     17  O   UNL     1      49.121   6.632  13.314  0.00  0.00    +0.000 OA
ATOM     18  H   UNL     1      46.301   7.025  14.719  0.00  0.00    +0.000 HD
BRANCH  16  19
ATOM     19  C   UNL     1      48.586   6.284  15.578  0.00  0.00    +0.000 A 
ATOM     20  C   UNL     1      49.417   7.091  16.342  0.00  0.00    +0.000 A 
ATOM     21  S   UNL     1      49.709   6.484  17.909  0.00  0.00    +0.000 S 
ATOM     22  C   UNL     1      48.773   5.095  17.606  0.00  0.00    +0.000 A 
ATOM     23  N   UNL     1      48.655   4.111  18.538  0.00  0.00    +0.000 NA
ATOM     24  C   UNL     1      47.958   3.094  18.155  0.00  0.00    +0.000 A 
ATOM     25  N   UNL     1      47.344   2.983  16.935  0.00  0.00    +0.000 N 
ATOM     26  C   UNL     1      47.332   4.006  16.015  0.00  0.00    +0.000 A 
ATOM     27  O   UNL     1      46.599   3.956  15.034  0.00  0.00    +0.000 OA
ATOM     28  C   UNL     1      48.191   5.127  16.350  0.00  0.00    +0.000 A 
ATOM     29  H   UNL     1      46.761   2.189  16.722  0.00  0.00    +0.000 HD
ENDBRANCH  16  19
ENDBRANCH   1  15
BRANCH   1  30
ATOM     30  C   UNL     1      45.293   8.466  12.826  0.00  0.00    +0.000 C 
BRANCH  30  32
ATOM     31  C   UNL     1      44.170   9.497  11.027  0.00  0.00    +0.000 C 
ATOM     32  O   UNL     1      45.347   9.490  11.825  0.00  0.00    +0.000 OA
ENDBRANCH  30  32
ENDBRANCH   1  30
TORSDOF 7
ENDMDL
MODEL 2
REMARK VINA RESULT:    -7.950      1.473      2.287
REMARK INTER + INTRA:         -12.078
REMARK INTER:                 -11.190
REMARK INTRA:                  -0.889
REMARK UNBOUND:                -0.876
REMARK  Name = 
REMARK  8 active torsions:
REMARK  status: ('A' for Active; 'I' for Inactive)
REMARK    1  A    between atoms: C_1  and  O_2
REMARK    2  A    between atoms: O_2  and  C_3
REMARK    3  A    between atoms: C_3  and  C_4
REMARK    4  A    between atoms: C_4  and  N_5
REMARK    5  A    between atoms: C_4  and  C_18
REMARK    6  A    between atoms: C_6  and  C_8
REMARK    7  A    between atoms: C_21  and  O_22
REMARK    8  A    between atoms: O_22  and  C_23
REMARK                            x       y       z     vdW  Elec       q    Type
REMARK                         _______ _______ _______ _____ _____    ______ ____
ROOT
ATOM      1  C   UNL     1      46.576   6.758  12.844  0.00  0.00    +0.000 C 
ENDROOT
BRANCH   1   2
ATOM      2  C   UNL     1      45.976   5.829  11.798  0.00  0.00    +0.000 A 
ATOM      3  C   UNL     1      45.463   4.595  12.216  0.00  0.00    +0.000 A 
ATOM      4  C   UNL     1      44.995   3.663  11.289  0.00  0.00    +0.000 A 
ATOM      5  C   UNL     1      44.982   3.970   9.928  0.00  0.00    +0.000 A 
ATOM      6  C   UNL     1      45.502   5.187   9.494  0.00  0.00    +0.000 A 
ATOM      7  C   UNL     1      46.000   6.108  10.422  0.00  0.00    +0.000 A 
BRANCH   5   8
ATOM      8  O   UNL     1      44.558   3.098   8.949  0.00  0.00    +0.000 OA
BRANCH   8   9
ATOM      9  C   UNL     1      45.515   2.528   8.119  0.00  0.00    +0.000 A 
ATOM     10  C   UNL     1      45.882   3.259   7.001  0.00  0.00    +0.000 A 
ATOM     11  C   UNL     1      46.858   2.728   6.161  0.00  0.00    +0.000 A 
ATOM     12  C   UNL     1      47.424   1.494   6.466  0.00  0.00    +0.000 A 
ATOM     13  C   UNL     1      46.974   0.826   7.592  0.00  0.00    +0.000 A 
ATOM     14  N   UNL     1      46.021   1.308   8.413  0.00  0.00    +0.000 NA
ENDBRANCH   8   9
ENDBRANCH   5   8
ENDBRANCH   1   2
BRANCH   1  15
ATOM     15  N   UNL     1      46.773   6.096  14.123  0.00  0.00    +0.000 N 
ATOM     16  C   UNL     1      47.997   5.924  14.706  0.00  0.00    +0.000 C 
ATOM     17  O   UNL     1      49.039   6.336  14.205  0.00  0.00    +0.000 OA
ATOM     18  H   UNL     1      45.950   5.689  14.549  0.00  0.00    +0.000 HD
BRANCH  16  19
ATOM     19  C   UNL     1      47.996   5.241  16.006  0.00  0.00    +0.000 A 
ATOM     20  C   UNL     1      47.591   3.916  16.093  0.00  0.00    +0.000 A 
ATOM     21  S   UNL     1      47.619   3.294  17.681  0.00  0.00    +0.000 S 
ATOM     22  C   UNL     1      48.129   4.788  18.317  0.00  0.00    +0.000 A 
ATOM     23  N   UNL     1      48.290   4.963  19.656  0.00  0.00    +0.000 NA
ATOM     24  C   UNL     1      48.631   6.159  20.001  0.00  0.00    +0.000 A 
ATOM     25  N   UNL     1      48.851   7.191  19.127  0.00  0.00    +0.000 N 
ATOM     26  C   UNL     1      48.823   7.026  17.762  0.00  0.00    +0.000 A 
ATOM     27  O   UNL     1      49.233   7.907  17.017  0.00  0.00    +0.000 OA
ATOM     28  C   UNL     1      48.339   5.729  17.323  0.00  0.00    +0.000 A 
ATOM     29  H   UNL     1      49.176   8.086  19.459  0.00  0.00    +0.000 HD
ENDBRANCH  16  19
ENDBRANCH   1  15
BRANCH   1  30
ATOM     30  C   UNL     1      45.659   7.994  12.998  0.00  0.00    +0.000 C 
BRANCH  30  32
ATOM     31  C   UNL     1      47.472   9.496  12.869  0.00  0.00    +0.000 C 
ATOM     32  O   UNL     1      46.218   9.123  12.314  0.00  0.00    +0.000 OA
ENDBRANCH  30  32
ENDBRANCH   1  30
TORSDOF 7
ENDMDL
MODEL 3
REMARK VINA RESULT:    -7.642      2.429      4.159
REMARK INTER + INTRA:         -11.645
REMARK INTER:                 -10.403
REMARK INTRA:                  -1.242
REMARK UNBOUND:                -0.876
REMARK  Name = 
REMARK  8 active torsions:
REMARK  status: ('A' for Active; 'I' for Inactive)
REMARK    1  A    between atoms: C_1  and  O_2
REMARK    2  A    between atoms: O_2  and  C_3
REMARK    3  A    between atoms: C_3  and  C_4
REMARK    4  A    between atoms: C_4  and  N_5
REMARK    5  A    between atoms: C_4  and  C_18
REMARK    6  A    between atoms: C_6  and  C_8
REMARK    7  A    between atoms: C_21  and  O_22
REMARK    8  A    between atoms: O_22  and  C_23
REMARK                            x       y       z     vdW  Elec       q    Type
REMARK                         _______ _______ _______ _____ _____    ______ ____
ROOT
ATOM      1  C   UNL     1      45.951   5.758  13.231  0.00  0.00    +0.000 C 
ENDROOT
BRANCH   1   2
ATOM      2  C   UNL     1      45.530   5.054  11.949  0.00  0.00    +0.000 A 
ATOM      3  C   UNL     1      45.099   3.724  12.028  0.00  0.00    +0.000 A 
ATOM      4  C   UNL     1      44.800   2.999  10.874  0.00  0.00    +0.000 A 
ATOM      5  C   UNL     1      44.875   3.608   9.621  0.00  0.00    +0.000 A 
ATOM      6  C   UNL     1      45.315   4.926   9.523  0.00  0.00    +0.000 A 
ATOM      7  C   UNL     1      45.645   5.642  10.679  0.00  0.00    +0.000 A 
BRANCH   5   8
ATOM      8  O   UNL     1      44.618   2.956   8.435  0.00  0.00    +0.000 OA
BRANCH   8   9
ATOM      9  C   UNL     1      45.699   2.542   7.666  0.00  0.00    +0.000 A 
ATOM     10  C   UNL     1      46.012   3.321   6.564  0.00  0.00    +0.000 A 
ATOM     11  C   UNL     1      47.106   2.948   5.787  0.00  0.00    +0.000 A 
ATOM     12  C   UNL     1      47.838   1.818   6.135  0.00  0.00    +0.000 A 
ATOM     13  C   UNL     1      47.433   1.089   7.240  0.00  0.00    +0.000 A 
ATOM     14  N   UNL     1      46.371   1.416   8.001  0.00  0.00    +0.000 NA
ENDBRANCH   8   9
ENDBRANCH   5   8
ENDBRANCH   1   2
BRANCH   1  15
ATOM     15  N   UNL     1      47.178   6.520  13.066  0.00  0.00    +0.000 N 
ATOM     16  C   UNL     1      47.221   7.885  13.018  0.00  0.00    +0.000 C 
ATOM     17  O   UNL     1      46.222   8.589  13.134  0.00  0.00    +0.000 OA
ATOM     18  H   UNL     1      48.022   5.984  12.909  0.00  0.00    +0.000 HD
BRANCH  16  19
ATOM     19  C   UNL     1      48.556   8.478  12.856  0.00  0.00    +0.000 A 
ATOM     20  C   UNL     1      48.798   9.367  11.819  0.00  0.00    +0.000 A 
ATOM     21  S   UNL     1      50.407   9.929  11.760  0.00  0.00    +0.000 S 
ATOM     22  C   UNL     1      50.850   8.966  13.092  0.00  0.00    +0.000 A 
ATOM     23  N   UNL     1      52.136   8.930  13.535  0.00  0.00    +0.000 NA
ATOM     24  C   UNL     1      52.339   8.120  14.520  0.00  0.00    +0.000 A 
ATOM     25  N   UNL     1      51.368   7.362  15.120  0.00  0.00    +0.000 N 
ATOM     26  C   UNL     1      50.037   7.463  14.788  0.00  0.00    +0.000 A 
ATOM     27  O   UNL     1      49.177   6.937  15.484  0.00  0.00    +0.000 OA
ATOM     28  C   UNL     1      49.770   8.277  13.616  0.00  0.00    +0.000 A 
ATOM     29  H   UNL     1      51.581   6.796  15.927  0.00  0.00    +0.000 HD
ENDBRANCH  16  19
ENDBRANCH   1  15
BRANCH   1  30
ATOM     30  C   UNL     1      46.104   4.704  14.353  0.00  0.00    +0.000 C 
BRANCH  30  32
ATOM     31  C   UNL     1      47.655   3.842  15.905  0.00  0.00    +0.000 C 
ATOM     32  O   UNL     1      47.488   4.477  14.644  0.00  0.00    +0.000 OA
ENDBRANCH  30  32
ENDBRANCH   1  30
TORSDOF 7
ENDMDL
MODEL 4
REMARK VINA RESULT:    -7.285      2.623      4.781
REMARK INTER + INTRA:         -11.141
REMARK INTER:                  -9.928
REMARK INTRA:                  -1.214
REMARK UNBOUND:                -0.876
REMARK  Name = 
REMARK  8 active torsions:
REMARK  status: ('A' for Active; 'I' for Inactive)
REMARK    1  A    between atoms: C_1  and  O_2
REMARK    2  A    between atoms: O_2  and  C_3
REMARK    3  A    between atoms: C_3  and  C_4
REMARK    4  A    between atoms: C_4  and  N_5
REMARK    5  A    between atoms: C_4  and  C_18
REMARK    6  A    between atoms: C_6  and  C_8
REMARK    7  A    between atoms: C_21  and  O_22
REMARK    8  A    between atoms: O_22  and  C_23
REMARK                            x       y       z     vdW  Elec       q    Type
REMARK                         _______ _______ _______ _____ _____    ______ ____
ROOT
ATOM      1  C   UNL     1      47.016   5.524  14.303  0.00  0.00    +0.000 C 
ENDROOT
BRANCH   1   2
ATOM      2  C   UNL     1      46.301   5.166  13.008  0.00  0.00    +0.000 A 
ATOM      3  C   UNL     1      45.674   3.917  12.915  0.00  0.00    +0.000 A 
ATOM      4  C   UNL     1      45.093   3.496  11.718  0.00  0.00    +0.000 A 
ATOM      5  C   UNL     1      45.080   4.339  10.606  0.00  0.00    +0.000 A 
ATOM      6  C   UNL     1      45.712   5.579  10.678  0.00  0.00    +0.000 A 
ATOM      7  C   UNL     1      46.322   5.987  11.870  0.00  0.00    +0.000 A 
BRANCH   5   8
ATOM      8  O   UNL     1      44.547   3.990   9.385  0.00  0.00    +0.000 OA
BRANCH   8   9
ATOM      9  C   UNL     1      45.374   3.356   8.466  0.00  0.00    +0.000 A 
ATOM     10  C   UNL     1      45.663   2.023   8.706  0.00  0.00    +0.000 A 
ATOM     11  C   UNL     1      46.469   1.351   7.790  0.00  0.00    +0.000 A 
ATOM     12  C   UNL     1      46.956   2.033   6.679  0.00  0.00    +0.000 A 
ATOM     13  C   UNL     1      46.633   3.372   6.538  0.00  0.00    +0.000 A 
ATOM     14  N   UNL     1      45.870   4.051   7.415  0.00  0.00    +0.000 NA
ENDBRANCH   8   9
ENDBRANCH   5   8
ENDBRANCH   1   2
BRANCH   1  15
ATOM     15  N   UNL     1      48.310   6.143  14.067  0.00  0.00    +0.000 N 
ATOM     16  C   UNL     1      48.830   7.134  14.850  0.00  0.00    +0.000 C 
ATOM     17  O   UNL     1      48.254   7.574  15.841  0.00  0.00    +0.000 OA
ATOM     18  H   UNL     1      48.799   5.855  13.229  0.00  0.00    +0.000 HD
BRANCH  16  19
ATOM     19  C   UNL     1      50.157   7.629  14.460  0.00  0.00    +0.000 A 
ATOM     20  C   UNL     1      51.226   7.515  15.338  0.00  0.00    +0.000 A 
ATOM     21  S   UNL     1      52.680   8.173  14.736  0.00  0.00    +0.000 S 
ATOM     22  C   UNL     1      51.922   8.675  13.297  0.00  0.00    +0.000 A 
ATOM     23  N   UNL     1      52.606   9.372  12.349  0.00  0.00    +0.000 NA
ATOM     24  C   UNL     1      51.894   9.732  11.334  0.00  0.00    +0.000 A 
ATOM     25  N   UNL     1      50.567   9.436  11.167  0.00  0.00    +0.000 N 
ATOM     26  C   UNL     1      49.871   8.629  12.036  0.00  0.00    +0.000 A 
ATOM     27  O   UNL     1      48.756   8.211  11.746  0.00  0.00    +0.000 OA
ATOM     28  C   UNL     1      50.594   8.288  13.248  0.00  0.00    +0.000 A 
ATOM     29  H   UNL     1      50.085   9.694  10.320  0.00  0.00    +0.000 HD
ENDBRANCH  16  19
ENDBRANCH   1  15
BRANCH   1  30
ATOM     30  C   UNL     1      47.166   4.245  15.161  0.00  0.00    +0.000 C 
BRANCH  30  32
ATOM     31  C   UNL     1      47.371   3.429  17.363  0.00  0.00    +0.000 C 
ATOM     32  O   UNL     1      47.086   4.564  16.556  0.00  0.00    +0.000 OA
ENDBRANCH  30  32
ENDBRANCH   1  30
TORSDOF 7
ENDMDL
MODEL 5
REMARK VINA RESULT:    -7.123      1.829      2.451
REMARK INTER + INTRA:         -10.913
REMARK INTER:                  -9.819
REMARK INTRA:                  -1.094
REMARK UNBOUND:                -0.876
REMARK  Name = 
REMARK  8 active torsions:
REMARK  status: ('A' for Active; 'I' for Inactive)
REMARK    1  A    between atoms: C_1  and  O_2
REMARK    2  A    between atoms: O_2  and  C_3
REMARK    3  A    between atoms: C_3  and  C_4
REMARK    4  A    between atoms: C_4  and  N_5
REMARK    5  A    between atoms: C_4  and  C_18
REMARK    6  A    between atoms: C_6  and  C_8
REMARK    7  A    between atoms: C_21  and  O_22
REMARK    8  A    between atoms: O_22  and  C_23
REMARK                            x       y       z     vdW  Elec       q    Type
REMARK                         _______ _______ _______ _____ _____    ______ ____
ROOT
ATOM      1  C   UNL     1      48.061   7.681  13.683  0.00  0.00    +0.000 C 
ENDROOT
BRANCH   1   2
ATOM      2  C   UNL     1      47.003   6.909  12.907  0.00  0.00    +0.000 A 
ATOM      3  C   UNL     1      46.826   5.549  13.191  0.00  0.00    +0.000 A 
ATOM      4  C   UNL     1      45.943   4.771  12.440  0.00  0.00    +0.000 A 
ATOM      5  C   UNL     1      45.182   5.351  11.425  0.00  0.00    +0.000 A 
ATOM      6  C   UNL     1      45.357   6.699  11.121  0.00  0.00    +0.000 A 
ATOM      7  C   UNL     1      46.264   7.472  11.854  0.00  0.00    +0.000 A 
BRANCH   5   8
ATOM      8  O   UNL     1      44.306   4.648  10.626  0.00  0.00    +0.000 OA
BRANCH   8   9
ATOM      9  C   UNL     1      44.836   3.801   9.662  0.00  0.00    +0.000 A 
ATOM     10  C   UNL     1      45.485   4.401   8.595  0.00  0.00    +0.000 A 
ATOM     11  C   UNL     1      46.050   3.578   7.623  0.00  0.00    +0.000 A 
ATOM     12  C   UNL     1      45.943   2.197   7.750  0.00  0.00    +0.000 A 
ATOM     13  C   UNL     1      45.254   1.690   8.839  0.00  0.00    +0.000 A 
ATOM     14  N   UNL     1      44.684   2.461   9.785  0.00  0.00    +0.000 NA
ENDBRANCH   8   9
ENDBRANCH   5   8
ENDBRANCH   1   2
BRANCH   1  15
ATOM     15  N   UNL     1      47.946   7.485  15.120  0.00  0.00    +0.000 N 
ATOM     16  C   UNL     1      48.957   7.001  15.901  0.00  0.00    +0.000 C 
ATOM     17  O   UNL     1      50.063   6.708  15.457  0.00  0.00    +0.000 OA
ATOM     18  H   UNL     1      47.035   7.658  15.524  0.00  0.00    +0.000 HD
BRANCH  16  19
ATOM     19  C   UNL     1      48.656   6.882  17.334  0.00  0.00    +0.000 A 
ATOM     20  C   UNL     1      48.340   8.014  18.072  0.00  0.00    +0.000 A 
ATOM     21  S   UNL     1      48.055   7.696  19.724  0.00  0.00    +0.000 S 
ATOM     22  C   UNL     1      48.391   6.040  19.521  0.00  0.00    +0.000 A 
ATOM     23  N   UNL     1      48.385   5.188  20.581  0.00  0.00    +0.000 NA
ATOM     24  C   UNL     1      48.707   3.972  20.290  0.00  0.00    +0.000 A 
ATOM     25  N   UNL     1      49.008   3.524  19.030  0.00  0.00    +0.000 N 
ATOM     26  C   UNL     1      48.903   4.321  17.915  0.00  0.00    +0.000 A 
ATOM     27  O   UNL     1      48.970   3.837  16.791  0.00  0.00    +0.000 OA
ATOM     28  C   UNL     1      48.651   5.723  18.199  0.00  0.00    +0.000 A 
ATOM     29  H   UNL     1      49.190   2.547  18.861  0.00  0.00    +0.000 HD
ENDBRANCH  16  19
ENDBRANCH   1  15
BRANCH   1  30
ATOM     30  C   UNL     1      47.951   9.180  13.321  0.00  0.00    +0.000 C 
BRANCH  30  32
ATOM     31  C   UNL     1      49.028  10.034  11.405  0.00  0.00    +0.000 C 
ATOM     32  O   UNL     1      49.184   9.655  12.766  0.00  0.00    +0.000 OA
ENDBRANCH  30  32
ENDBRANCH   1  30
TORSDOF 7
ENDMDL
MODEL 6
REMARK VINA RESULT:    -7.103      3.260      7.765
REMARK INTER + INTRA:         -10.886
REMARK INTER:                  -9.601
REMARK INTRA:                  -1.285
REMARK UNBOUND:                -0.876
REMARK  Name = 
REMARK  8 active torsions:
REMARK  status: ('A' for Active; 'I' for Inactive)
REMARK    1  A    between atoms: C_1  and  O_2
REMARK    2  A    between atoms: O_2  and  C_3
REMARK    3  A    between atoms: C_3  and  C_4
REMARK    4  A    between atoms: C_4  and  N_5
REMARK    5  A    between atoms: C_4  and  C_18
REMARK    6  A    between atoms: C_6  and  C_8
REMARK    7  A    between atoms: C_21  and  O_22
REMARK    8  A    between atoms: O_22  and  C_23
REMARK                            x       y       z     vdW  Elec       q    Type
REMARK                         _______ _______ _______ _____ _____    ______ ____
ROOT
ATOM      1  C   UNL     1      48.333   7.337  13.437  0.00  0.00    +0.000 C 
ENDROOT
BRANCH   1   2
ATOM      2  C   UNL     1      48.747   6.716  14.764  0.00  0.00    +0.000 A 
ATOM      3  C   UNL     1      50.014   7.019  15.276  0.00  0.00    +0.000 A 
ATOM      4  C   UNL     1      50.484   6.399  16.435  0.00  0.00    +0.000 A 
ATOM      5  C   UNL     1      49.673   5.502  17.132  0.00  0.00    +0.000 A 
ATOM      6  C   UNL     1      48.416   5.179  16.628  0.00  0.00    +0.000 A 
ATOM      7  C   UNL     1      47.957   5.778  15.449  0.00  0.00    +0.000 A 
BRANCH   5   8
ATOM      8  O   UNL     1      50.071   4.833  18.269  0.00  0.00    +0.000 OA
BRANCH   8   9
ATOM      9  C   UNL     1      50.931   3.752  18.125  0.00  0.00    +0.000 A 
ATOM     10  C   UNL     1      50.414   2.623  17.513  0.00  0.00    +0.000 A 
ATOM     11  C   UNL     1      51.257   1.529  17.331  0.00  0.00    +0.000 A 
ATOM     12  C   UNL     1      52.576   1.604  17.768  0.00  0.00    +0.000 A 
ATOM     13  C   UNL     1      52.996   2.766  18.392  0.00  0.00    +0.000 A 
ATOM     14  N   UNL     1      52.198   3.833  18.596  0.00  0.00    +0.000 NA
ENDBRANCH   8   9
ENDBRANCH   5   8
ENDBRANCH   1   2
BRANCH   1  15
ATOM     15  N   UNL     1      47.565   6.418  12.612  0.00  0.00    +0.000 N 
ATOM     16  C   UNL     1      46.497   6.796  11.850  0.00  0.00    +0.000 C 
ATOM     17  O   UNL     1      46.104   7.957  11.779  0.00  0.00    +0.000 OA
ATOM     18  H   UNL     1      47.815   5.439  12.680  0.00  0.00    +0.000 HD
BRANCH  16  19
ATOM     19  C   UNL     1      45.853   5.727  11.075  0.00  0.00    +0.000 A 
ATOM     20  C   UNL     1      45.946   5.722   9.690  0.00  0.00    +0.000 A 
ATOM     21  S   UNL     1      45.111   4.430   8.952  0.00  0.00    +0.000 S 
ATOM     22  C   UNL     1      44.557   3.857  10.456  0.00  0.00    +0.000 A 
ATOM     23  N   UNL     1      43.722   2.785  10.534  0.00  0.00    +0.000 NA
ATOM     24  C   UNL     1      43.341   2.492  11.732  0.00  0.00    +0.000 A 
ATOM     25  N   UNL     1      43.739   3.156  12.862  0.00  0.00    +0.000 N 
ATOM     26  C   UNL     1      44.678   4.161  12.841  0.00  0.00    +0.000 A 
ATOM     27  O   UNL     1      45.167   4.582  13.882  0.00  0.00    +0.000 OA
ATOM     28  C   UNL     1      45.056   4.602  11.510  0.00  0.00    +0.000 A 
ATOM     29  H   UNL     1      43.453   2.835  13.775  0.00  0.00    +0.000 HD
ENDBRANCH  16  19
ENDBRANCH   1  15
BRANCH   1  30
ATOM     30  C   UNL     1      49.601   7.817  12.693  0.00  0.00    +0.000 C 
BRANCH  30  32
ATOM     31  C   UNL     1      49.097   9.769  11.471  0.00  0.00    +0.000 C 
ATOM     32  O   UNL     1      49.658   9.249  12.669  0.00  0.00    +0.000 OA
ENDBRANCH  30  32
ENDBRANCH   1  30
TORSDOF 7
ENDMDL
MODEL 7
REMARK VINA RESULT:    -6.986      2.758      3.992
REMARK INTER + INTRA:         -10.720
REMARK INTER:                  -9.508
REMARK INTRA:                  -1.212
REMARK UNBOUND:                -0.876
REMARK  Name = 
REMARK  8 active torsions:
REMARK  status: ('A' for Active; 'I' for Inactive)
REMARK    1  A    between atoms: C_1  and  O_2
REMARK    2  A    between atoms: O_2  and  C_3
REMARK    3  A    between atoms: C_3  and  C_4
REMARK    4  A    between atoms: C_4  and  N_5
REMARK    5  A    between atoms: C_4  and  C_18
REMARK    6  A    between atoms: C_6  and  C_8
REMARK    7  A    between atoms: C_21  and  O_22
REMARK    8  A    between atoms: O_22  and  C_23
REMARK                            x       y       z     vdW  Elec       q    Type
REMARK                         _______ _______ _______ _____ _____    ______ ____
ROOT
ATOM      1  C   UNL     1      48.798   6.898  14.234  0.00  0.00    +0.000 C 
ENDROOT
BRANCH   1   2
ATOM      2  C   UNL     1      47.649   6.428  13.352  0.00  0.00    +0.000 A 
ATOM      3  C   UNL     1      47.029   5.210  13.656  0.00  0.00    +0.000 A 
ATOM      4  C   UNL     1      46.041   4.683  12.822  0.00  0.00    +0.000 A 
ATOM      5  C   UNL     1      45.617   5.391  11.697  0.00  0.00    +0.000 A 
ATOM      6  C   UNL     1      46.234   6.597  11.373  0.00  0.00    +0.000 A 
ATOM      7  C   UNL     1      47.246   7.110  12.192  0.00  0.00    +0.000 A 
BRANCH   5   8
ATOM      8  O   UNL     1      44.665   4.929  10.815  0.00  0.00    +0.000 OA
BRANCH   8   9
ATOM      9  C   UNL     1      45.083   4.128   9.760  0.00  0.00    +0.000 A 
ATOM     10  C   UNL     1      44.928   2.760   9.920  0.00  0.00    +0.000 A 
ATOM     11  C   UNL     1      45.314   1.929   8.871  0.00  0.00    +0.000 A 
ATOM     12  C   UNL     1      45.841   2.491   7.712  0.00  0.00    +0.000 A 
ATOM     13  C   UNL     1      45.980   3.867   7.655  0.00  0.00    +0.000 A 
ATOM     14  N   UNL     1      45.631   4.694   8.660  0.00  0.00    +0.000 NA
ENDBRANCH   8   9
ENDBRANCH   5   8
ENDBRANCH   1   2
BRANCH   1  15
ATOM     15  N   UNL     1      48.413   7.007  15.631  0.00  0.00    +0.000 N 
ATOM     16  C   UNL     1      49.033   6.328  16.642  0.00  0.00    +0.000 C 
ATOM     17  O   UNL     1      49.989   5.581  16.456  0.00  0.00    +0.000 OA
ATOM     18  H   UNL     1      47.594   7.568  15.829  0.00  0.00    +0.000 HD
BRANCH  16  19
ATOM     19  C   UNL     1      48.510   6.574  17.993  0.00  0.00    +0.000 A 
ATOM     20  C   UNL     1      48.251   5.507  18.841  0.00  0.00    +0.000 A 
ATOM     21  S   UNL     1      47.616   5.973  20.354  0.00  0.00    +0.000 S 
ATOM     22  C   UNL     1      47.622   7.617  19.912  0.00  0.00    +0.000 A 
ATOM     23  N   UNL     1      47.136   8.571  20.752  0.00  0.00    +0.000 NA
ATOM     24  C   UNL     1      47.155   9.767  20.268  0.00  0.00    +0.000 A 
ATOM     25  N   UNL     1      47.642  10.102  19.031  0.00  0.00    +0.000 N 
ATOM     26  C   UNL     1      48.256   9.191  18.204  0.00  0.00    +0.000 A 
ATOM     27  O   UNL     1      48.867   9.561  17.209  0.00  0.00    +0.000 OA
ATOM     28  C   UNL     1      48.163   7.813  18.653  0.00  0.00    +0.000 A 
ATOM     29  H   UNL     1      47.685  11.066  18.739  0.00  0.00    +0.000 HD
ENDBRANCH  16  19
ENDBRANCH   1  15
BRANCH   1  30
ATOM     30  C   UNL     1      49.315   8.254  13.697  0.00  0.00    +0.000 C 
BRANCH  30  32
ATOM     31  C   UNL     1      50.622   8.738  11.795  0.00  0.00    +0.000 C 
ATOM     32  O   UNL     1      50.588   8.089  13.060  0.00  0.00    +0.000 OA
ENDBRANCH  30  32
ENDBRANCH   1  30
TORSDOF 7
ENDMDL
MODEL 8
REMARK VINA RESULT:    -6.686      2.984      8.142
REMARK INTER + INTRA:         -10.297
REMARK INTER:                  -9.168
REMARK INTRA:                  -1.129
REMARK UNBOUND:                -0.876
REMARK  Name = 
REMARK  8 active torsions:
REMARK  status: ('A' for Active; 'I' for Inactive)
REMARK    1  A    between atoms: C_1  and  O_2
REMARK    2  A    between atoms: O_2  and  C_3
REMARK    3  A    between atoms: C_3  and  C_4
REMARK    4  A    between atoms: C_4  and  N_5
REMARK    5  A    between atoms: C_4  and  C_18
REMARK    6  A    between atoms: C_6  and  C_8
REMARK    7  A    between atoms: C_21  and  O_22
REMARK    8  A    between atoms: O_22  and  C_23
REMARK                            x       y       z     vdW  Elec       q    Type
REMARK                         _______ _______ _______ _____ _____    ______ ____
ROOT
ATOM      1  C   UNL     1      47.643   6.733  13.551  0.00  0.00    +0.000 C 
ENDROOT
BRANCH   1   2
ATOM      2  C   UNL     1      48.244   6.257  14.866  0.00  0.00    +0.000 A 
ATOM      3  C   UNL     1      49.481   6.778  15.263  0.00  0.00    +0.000 A 
ATOM      4  C   UNL     1      50.125   6.302  16.406  0.00  0.00    +0.000 A 
ATOM      5  C   UNL     1      49.518   5.332  17.204  0.00  0.00    +0.000 A 
ATOM      6  C   UNL     1      48.294   4.792  16.815  0.00  0.00    +0.000 A 
ATOM      7  C   UNL     1      47.663   5.248  15.652  0.00  0.00    +0.000 A 
BRANCH   5   8
ATOM      8  O   UNL     1      50.096   4.795  18.333  0.00  0.00    +0.000 OA
BRANCH   8   9
ATOM      9  C   UNL     1      50.996   3.749  18.174  0.00  0.00    +0.000 A 
ATOM     10  C   UNL     1      52.277   3.951  18.662  0.00  0.00    +0.000 A 
ATOM     11  C   UNL     1      53.197   2.912  18.541  0.00  0.00    +0.000 A 
ATOM     12  C   UNL     1      52.807   1.721  17.938  0.00  0.00    +0.000 A 
ATOM     13  C   UNL     1      51.512   1.621  17.459  0.00  0.00    +0.000 A 
ATOM     14  N   UNL     1      50.606   2.614  17.547  0.00  0.00    +0.000 NA
ENDBRANCH   8   9
ENDBRANCH   5   8
ENDBRANCH   1   2
BRANCH   1  15
ATOM     15  N   UNL     1      46.821   5.714  12.918  0.00  0.00    +0.000 N 
ATOM     16  C   UNL     1      45.558   5.944  12.450  0.00  0.00    +0.000 C 
ATOM     17  O   UNL     1      45.015   7.044  12.505  0.00  0.00    +0.000 OA
ATOM     18  H   UNL     1      47.202   4.777  12.901  0.00  0.00    +0.000 HD
BRANCH  16  19
ATOM     19  C   UNL     1      44.886   4.794  11.832  0.00  0.00    +0.000 A 
ATOM     20  C   UNL     1      44.068   3.975  12.598  0.00  0.00    +0.000 A 
ATOM     21  S   UNL     1      43.398   2.669  11.728  0.00  0.00    +0.000 S 
ATOM     22  C   UNL     1      44.215   3.125  10.306  0.00  0.00    +0.000 A 
ATOM     23  N   UNL     1      44.123   2.378   9.173  0.00  0.00    +0.000 NA
ATOM     24  C   UNL     1      44.834   2.813   8.188  0.00  0.00    +0.000 A 
ATOM     25  N   UNL     1      45.609   3.943   8.223  0.00  0.00    +0.000 N 
ATOM     26  C   UNL     1      45.631   4.794   9.303  0.00  0.00    +0.000 A 
ATOM     27  O   UNL     1      46.160   5.896   9.220  0.00  0.00    +0.000 OA
ATOM     28  C   UNL     1      44.936   4.295  10.476  0.00  0.00    +0.000 A 
ATOM     29  H   UNL     1      46.090   4.262   7.397  0.00  0.00    +0.000 HD
ENDBRANCH  16  19
ENDBRANCH   1  15
BRANCH   1  30
ATOM     30  C   UNL     1      48.789   7.178  12.612  0.00  0.00    +0.000 C 
BRANCH  30  32
ATOM     31  C   UNL     1      47.770   9.301  12.491  0.00  0.00    +0.000 C 
ATOM     32  O   UNL     1      48.350   8.236  11.750  0.00  0.00    +0.000 OA
ENDBRANCH  30  32
ENDBRANCH   1  30
TORSDOF 7
ENDMDL
MODEL 9
REMARK VINA RESULT:    -6.005      3.404      8.612
REMARK INTER + INTRA:          -9.338
REMARK INTER:                  -8.223
REMARK INTRA:                  -1.115
REMARK UNBOUND:                -0.876
REMARK  Name = 
REMARK  8 active torsions:
REMARK  status: ('A' for Active; 'I' for Inactive)
REMARK    1  A    between atoms: C_1  and  O_2
REMARK    2  A    between atoms: O_2  and  C_3
REMARK    3  A    between atoms: C_3  and  C_4
REMARK    4  A    between atoms: C_4  and  N_5
REMARK    5  A    between atoms: C_4  and  C_18
REMARK    6  A    between atoms: C_6  and  C_8
REMARK    7  A    between atoms: C_21  and  O_22
REMARK    8  A    between atoms: O_22  and  C_23
REMARK                            x       y       z     vdW  Elec       q    Type
REMARK                         _______ _______ _______ _____ _____    ______ ____
ROOT
ATOM      1  C   UNL     1      48.337   8.111  12.608  0.00  0.00    +0.000 C 
ENDROOT
BRANCH   1   2
ATOM      2  C   UNL     1      48.717   7.727  14.032  0.00  0.00    +0.000 A 
ATOM      3  C   UNL     1      48.324   6.472  14.512  0.00  0.00    +0.000 A 
ATOM      4  C   UNL     1      48.556   6.109  15.840  0.00  0.00    +0.000 A 
ATOM      5  C   UNL     1      49.232   6.976  16.699  0.00  0.00    +0.000 A 
ATOM      6  C   UNL     1      49.617   8.234  16.241  0.00  0.00    +0.000 A 
ATOM      7  C   UNL     1      49.357   8.609  14.918  0.00  0.00    +0.000 A 
BRANCH   5   8
ATOM      8  O   UNL     1      49.480   6.702  18.026  0.00  0.00    +0.000 OA
BRANCH   8   9
ATOM      9  C   UNL     1      49.057   7.624  18.975  0.00  0.00    +0.000 A 
ATOM     10  C   UNL     1      47.692   7.847  19.060  0.00  0.00    +0.000 A 
ATOM     11  C   UNL     1      47.233   8.747  20.019  0.00  0.00    +0.000 A 
ATOM     12  C   UNL     1      48.147   9.388  20.848  0.00  0.00    +0.000 A 
ATOM     13  C   UNL     1      49.494   9.120  20.671  0.00  0.00    +0.000 A 
ATOM     14  N   UNL     1      49.968   8.267  19.742  0.00  0.00    +0.000 NA
ENDBRANCH   8   9
ENDBRANCH   5   8
ENDBRANCH   1   2
BRANCH   1  15
ATOM     15  N   UNL     1      47.621   7.049  11.922  0.00  0.00    +0.000 N 
ATOM     16  C   UNL     1      46.258   6.969  11.865  0.00  0.00    +0.000 C 
ATOM     17  O   UNL     1      45.518   7.806  12.374  0.00  0.00    +0.000 OA
ATOM     18  H   UNL     1      48.186   6.304  11.534  0.00  0.00    +0.000 HD
BRANCH  16  19
ATOM     19  C   UNL     1      45.715   5.828  11.115  0.00  0.00    +0.000 A 
ATOM     20  C   UNL     1      45.897   5.751   9.742  0.00  0.00    +0.000 A 
ATOM     21  S   UNL     1      45.172   4.380   9.031  0.00  0.00    +0.000 S 
ATOM     22  C   UNL     1      44.547   3.866  10.528  0.00  0.00    +0.000 A 
ATOM     23  N   UNL     1      43.758   2.761  10.617  0.00  0.00    +0.000 NA
ATOM     24  C   UNL     1      43.313   2.517  11.804  0.00  0.00    +0.000 A 
ATOM     25  N   UNL     1      43.607   3.261  12.916  0.00  0.00    +0.000 N 
ATOM     26  C   UNL     1      44.499   4.308  12.894  0.00  0.00    +0.000 A 
ATOM     27  O   UNL     1      44.900   4.810  13.937  0.00  0.00    +0.000 OA
ATOM     28  C   UNL     1      44.942   4.692  11.566  0.00  0.00    +0.000 A 
ATOM     29  H   UNL     1      43.277   2.979  13.826  0.00  0.00    +0.000 HD
ENDBRANCH  16  19
ENDBRANCH   1  15
BRANCH   1  30
ATOM     30  C   UNL     1      49.621   8.498  11.837  0.00  0.00    +0.000 C 
BRANCH  30  32
ATOM     31  C   UNL     1      51.484   7.650  10.667  0.00  0.00    +0.000 C 
ATOM     32  O   UNL     1      50.234   7.336  11.266  0.00  0.00    +0.000 OA
ENDBRANCH  30  32
ENDBRANCH   1  30
TORSDOF 7
ENDMDL
