MODEL 1
REMARK VINA RESULT:    -6.259      0.000      0.000
REMARK INTER + INTRA:          -9.502
REMARK INTER:                  -9.004
REMARK INTRA:                  -0.498
REMARK UNBOUND:                -0.498
REMARK  Name = 
REMARK  8 active torsions:
REMARK  status: ('A' for Active; 'I' for Inactive)
REMARK    1  A    between atoms: N_1  and  C_2
REMARK    2  A    between atoms: C_2  and  C_3
REMARK    3  A    between atoms: C_3  and  C_4
REMARK    4  A    between atoms: C_4  and  C_5
REMARK    5  A    between atoms: C_6  and  C_7
REMARK    6  A    between atoms: C_10  and  C_11
REMARK    7  A    between atoms: C_11  and  N_12
REMARK    8  A    between atoms: C_17  and  C_18
REMARK                            x       y       z     vdW  Elec       q    Type
REMARK                         _______ _______ _______ _____ _____    ______ ____
ROOT
ATOM      1  C   UNL     1      50.887   2.884  17.428  0.00  0.00    +0.000 A 
ATOM      2  C   UNL     1      49.964   1.921  17.053  0.00  0.00    +0.000 A 
ATOM      3  C   UNL     1      48.662   2.286  16.688  0.00  0.00    +0.000 A 
ATOM      4  C   UNL     1      48.316   3.634  16.597  0.00  0.00    +0.000 A 
ATOM      5  N   UNL     1      49.184   4.599  17.013  0.00  0.00    +0.000 NA
ATOM      6  C   UNL     1      50.427   4.201  17.442  0.00  0.00    +0.000 A 
ENDROOT
BRANCH   1   8
ATOM      7  C   UNL     1      53.459   2.167  18.088  0.00  0.00    +0.000 C 
ATOM      8  C   UNL     1      52.237   2.503  17.785  0.00  0.00    +0.000 C 
BRANCH   7   9
ATOM      9  C   UNL     1      54.884   1.774  18.442  0.00  0.00    +0.000 C 
BRANCH   9  10
ATOM     10  C   UNL     1      55.433   0.812  17.395  0.00  0.00    +0.000 C 
BRANCH  10  11
ATOM     11  C   UNL     1      54.599  -0.461  17.347  0.00  0.00    +0.000 C 
BRANCH  11  12
ATOM     12  N   UNL     1      54.235  -0.769  15.972  0.00  0.00    +0.000 NA
ATOM     13  H   UNL     1      53.505  -1.479  15.963  0.00  0.00    +0.000 HD
ATOM     14  H   UNL     1      55.036  -1.175  15.487  0.00  0.00    +0.000 HD
ENDBRANCH  11  12
ENDBRANCH  10  11
ENDBRANCH   9  10
ENDBRANCH   7   9
ENDBRANCH   1   8
BRANCH   4  15
ATOM     15  C   UNL     1      46.988   4.062  15.927  0.00  0.00    +0.000 C 
BRANCH  15  16
ATOM     16  N   UNL     1      47.135   5.206  15.030  0.00  0.00    +0.000 N 
ATOM     17  C   UNL     1      46.544   5.204  13.774  0.00  0.00    +0.000 A 
ATOM     18  C   UNL     1      46.837   6.247  12.915  0.00  0.00    +0.000 A 
ATOM     19  C   UNL     1      46.407   6.137  11.610  0.00  0.00    +0.000 A 
ATOM     20  N   UNL     1      45.535   5.207  11.193  0.00  0.00    +0.000 NA
ATOM     21  C   UNL     1      45.155   4.334  12.152  0.00  0.00    +0.000 A 
ATOM     22  N   UNL     1      45.662   4.253  13.406  0.00  0.00    +0.000 NA
ATOM     23  H   UNL     1      47.961   5.779  15.152  0.00  0.00    +0.000 HD
BRANCH  21  24
ATOM     24  C   UNL     1      43.982   3.419  11.832  0.00  0.00    +0.000 C 
ATOM     25  N   UNL     1      43.772   2.344  12.684  0.00  0.00    +0.000 N 
ATOM     26  O   UNL     1      43.267   3.569  10.877  0.00  0.00    +0.000 OA
ATOM     27  H   UNL     1      44.367   2.160  13.478  0.00  0.00    +0.000 HD
ATOM     28  H   UNL     1      43.008   1.720  12.458  0.00  0.00    +0.000 HD
ENDBRANCH  21  24
ENDBRANCH  15  16
ENDBRANCH   4  15
TORSDOF 8
ENDMDL
MODEL 2
REMARK VINA RESULT:    -6.256      3.398      8.505
REMARK INTER + INTRA:          -9.497
REMARK INTER:                  -9.345
REMARK INTRA:                  -0.153
REMARK UNBOUND:                -0.498
REMARK  Name = 
REMARK  8 active torsions:
REMARK  status: ('A' for Active; 'I' for Inactive)
REMARK    1  A    between atoms: N_1  and  C_2
REMARK    2  A    between atoms: C_2  and  C_3
REMARK    3  A    between atoms: C_3  and  C_4
REMARK    4  A    between atoms: C_4  and  C_5
REMARK    5  A    between atoms: C_6  and  C_7
REMARK    6  A    between atoms: C_10  and  C_11
REMARK    7  A    between atoms: C_11  and  N_12
REMARK    8  A    between atoms: C_17  and  C_18
REMARK                            x       y       z     vdW  Elec       q    Type
REMARK                         _______ _______ _______ _____ _____    ______ ____
ROOT
ATOM      1  C   UNL     1      46.655   5.773  12.156  0.00  0.00    +0.000 A 
ATOM      2  C   UNL     1      47.302   6.992  12.045  0.00  0.00    +0.000 A 
ATOM      3  C   UNL     1      48.137   7.452  13.072  0.00  0.00    +0.000 A 
ATOM      4  C   UNL     1      48.406   6.634  14.170  0.00  0.00    +0.000 A 
ATOM      5  N   UNL     1      47.740   5.456  14.332  0.00  0.00    +0.000 NA
ATOM      6  C   UNL     1      46.867   5.072  13.343  0.00  0.00    +0.000 A 
ENDROOT
BRANCH   1   8
ATOM      7  C   UNL     1      45.051   4.843  10.123  0.00  0.00    +0.000 C 
ATOM      8  C   UNL     1      45.810   5.294  11.083  0.00  0.00    +0.000 C 
BRANCH   7   9
ATOM      9  C   UNL     1      44.167   4.318   9.003  0.00  0.00    +0.000 C 
BRANCH   9  10
ATOM     10  C   UNL     1      44.955   3.346   8.133  0.00  0.00    +0.000 C 
BRANCH  10  11
ATOM     11  C   UNL     1      45.097   1.999   8.829  0.00  0.00    +0.000 C 
BRANCH  11  12
ATOM     12  N   UNL     1      46.249   1.282   8.300  0.00  0.00    +0.000 NA
ATOM     13  H   UNL     1      46.043   0.285   8.265  0.00  0.00    +0.000 HD
ATOM     14  H   UNL     1      47.042   1.390   8.932  0.00  0.00    +0.000 HD
ENDBRANCH  11  12
ENDBRANCH  10  11
ENDBRANCH   9  10
ENDBRANCH   7   9
ENDBRANCH   1   8
BRANCH   4  15
ATOM     15  C   UNL     1      49.535   6.997  15.163  0.00  0.00    +0.000 C 
BRANCH  15  16
ATOM     16  N   UNL     1      49.106   6.978  16.559  0.00  0.00    +0.000 N 
ATOM     17  C   UNL     1      49.046   5.784  17.267  0.00  0.00    +0.000 A 
ATOM     18  C   UNL     1      48.495   5.807  18.535  0.00  0.00    +0.000 A 
ATOM     19  C   UNL     1      48.259   4.595  19.148  0.00  0.00    +0.000 A 
ATOM     20  N   UNL     1      48.741   3.428  18.693  0.00  0.00    +0.000 NA
ATOM     21  C   UNL     1      49.432   3.527  17.536  0.00  0.00    +0.000 A 
ATOM     22  N   UNL     1      49.557   4.639  16.772  0.00  0.00    +0.000 NA
ATOM     23  H   UNL     1      48.493   7.725  16.860  0.00  0.00    +0.000 HD
BRANCH  21  24
ATOM     24  C   UNL     1      50.225   2.306  17.095  0.00  0.00    +0.000 C 
ATOM     25  N   UNL     1      51.347   1.980  17.846  0.00  0.00    +0.000 N 
ATOM     26  O   UNL     1      49.944   1.647  16.129  0.00  0.00    +0.000 OA
ATOM     27  H   UNL     1      51.639   2.524  18.643  0.00  0.00    +0.000 HD
ATOM     28  H   UNL     1      51.890   1.184  17.538  0.00  0.00    +0.000 HD
ENDBRANCH  21  24
ENDBRANCH  15  16
ENDBRANCH   4  15
TORSDOF 8
ENDMDL
MODEL 3
REMARK VINA RESULT:    -6.096      3.993      8.257
REMARK INTER + INTRA:          -9.266
REMARK INTER:                  -8.977
REMARK INTRA:                  -0.290
REMARK UNBOUND:                -0.498
REMARK  Name = 
REMARK  8 active torsions:
REMARK  status: ('A' for Active; 'I' for Inactive)
REMARK    1  A    between atoms: N_1  and  C_2
REMARK    2  A    between atoms: C_2  and  C_3
REMARK    3  A    between atoms: C_3  and  C_4
REMARK    4  A    between atoms: C_4  and  C_5
REMARK    5  A    between atoms: C_6  and  C_7
REMARK    6  A    between atoms: C_10  and  C_11
REMARK    7  A    between atoms: C_11  and  N_12
REMARK    8  A    between atoms: C_17  and  C_18
REMARK                            x       y       z     vdW  Elec       q    Type
REMARK                         _______ _______ _______ _____ _____    ______ ____
ROOT
ATOM      1  C   UNL     1      46.340   6.651  11.394  0.00  0.00    +0.000 A 
ATOM      2  C   UNL     1      47.710   6.834  11.484  0.00  0.00    +0.000 A 
ATOM      3  C   UNL     1      48.254   7.676  12.463  0.00  0.00    +0.000 A 
ATOM      4  C   UNL     1      47.424   8.255  13.423  0.00  0.00    +0.000 A 
ATOM      5  N   UNL     1      46.070   8.139  13.324  0.00  0.00    +0.000 NA
ATOM      6  C   UNL     1      45.565   7.370  12.304  0.00  0.00    +0.000 A 
ENDROOT
BRANCH   1   8
ATOM      7  C   UNL     1      45.295   4.976   9.479  0.00  0.00    +0.000 C 
ATOM      8  C   UNL     1      45.785   5.764  10.394  0.00  0.00    +0.000 C 
BRANCH   7   9
ATOM      9  C   UNL     1      44.723   4.056   8.412  0.00  0.00    +0.000 C 
BRANCH   9  10
ATOM     10  C   UNL     1      45.801   3.095   7.923  0.00  0.00    +0.000 C 
BRANCH  10  11
ATOM     11  C   UNL     1      45.694   1.759   8.645  0.00  0.00    +0.000 C 
BRANCH  11  12
ATOM     12  N   UNL     1      46.520   0.763   7.977  0.00  0.00    +0.000 NA
ATOM     13  H   UNL     1      47.501   1.027   8.054  0.00  0.00    +0.000 HD
ATOM     14  H   UNL     1      46.304   0.749   6.981  0.00  0.00    +0.000 HD
ENDBRANCH  11  12
ENDBRANCH  10  11
ENDBRANCH   9  10
ENDBRANCH   7   9
ENDBRANCH   1   8
BRANCH   4  15
ATOM     15  C   UNL     1      48.027   8.948  14.668  0.00  0.00    +0.000 C 
BRANCH  15  16
ATOM     16  N   UNL     1      49.293   8.360  15.101  0.00  0.00    +0.000 N 
ATOM     17  C   UNL     1      49.324   7.119  15.722  0.00  0.00    +0.000 A 
ATOM     18  C   UNL     1      50.529   6.680  16.238  0.00  0.00    +0.000 A 
ATOM     19  C   UNL     1      50.510   5.546  17.022  0.00  0.00    +0.000 A 
ATOM     20  N   UNL     1      49.452   4.726  17.114  0.00  0.00    +0.000 NA
ATOM     21  C   UNL     1      48.368   5.140  16.421  0.00  0.00    +0.000 A 
ATOM     22  N   UNL     1      48.235   6.325  15.777  0.00  0.00    +0.000 NA
ATOM     23  H   UNL     1      50.046   9.002  15.312  0.00  0.00    +0.000 HD
BRANCH  21  24
ATOM     24  C   UNL     1      47.226   4.148  16.262  0.00  0.00    +0.000 C 
ATOM     25  N   UNL     1      46.689   4.005  14.990  0.00  0.00    +0.000 N 
ATOM     26  O   UNL     1      46.761   3.521  17.177  0.00  0.00    +0.000 OA
ATOM     27  H   UNL     1      47.024   4.535  14.200  0.00  0.00    +0.000 HD
ATOM     28  H   UNL     1      45.912   3.365  14.888  0.00  0.00    +0.000 HD
ENDBRANCH  21  24
ENDBRANCH  15  16
ENDBRANCH   4  15
TORSDOF 8
ENDMDL
MODEL 4
REMARK VINA RESULT:    -6.072      2.491      3.338
REMARK INTER + INTRA:          -9.233
REMARK INTER:                  -8.941
REMARK INTRA:                  -0.292
REMARK UNBOUND:                -0.498
REMARK  Name = 
REMARK  8 active torsions:
REMARK  status: ('A' for Active; 'I' for Inactive)
REMARK    1  A    between atoms: N_1  and  C_2
REMARK    2  A    between atoms: C_2  and  C_3
REMARK    3  A    between atoms: C_3  and  C_4
REMARK    4  A    between atoms: C_4  and  C_5
REMARK    5  A    between atoms: C_6  and  C_7
REMARK    6  A    between atoms: C_10  and  C_11
REMARK    7  A    between atoms: C_11  and  N_12
REMARK    8  A    between atoms: C_17  and  C_18
REMARK                            x       y       z     vdW  Elec       q    Type
REMARK                         _______ _______ _______ _____ _____    ______ ____
ROOT
ATOM      1  C   UNL     1      49.135   4.807  17.549  0.00  0.00    +0.000 A 
ATOM      2  C   UNL     1      48.326   3.696  17.368  0.00  0.00    +0.000 A 
ATOM      3  C   UNL     1      47.482   3.604  16.254  0.00  0.00    +0.000 A 
ATOM      4  C   UNL     1      47.527   4.583  15.262  0.00  0.00    +0.000 A 
ATOM      5  N   UNL     1      48.269   5.712  15.441  0.00  0.00    +0.000 NA
ATOM      6  C   UNL     1      49.026   5.808  16.584  0.00  0.00    +0.000 A 
ENDROOT
BRANCH   1   8
ATOM      7  C   UNL     1      50.805   4.976  19.728  0.00  0.00    +0.000 C 
ATOM      8  C   UNL     1      50.020   4.889  18.692  0.00  0.00    +0.000 C 
BRANCH   7   9
ATOM      9  C   UNL     1      51.722   5.079  20.936  0.00  0.00    +0.000 C 
BRANCH   9  10
ATOM     10  C   UNL     1      52.860   4.074  20.811  0.00  0.00    +0.000 C 
BRANCH  10  11
ATOM     11  C   UNL     1      53.186   3.813  19.346  0.00  0.00    +0.000 C 
BRANCH  11  12
ATOM     12  N   UNL     1      53.166   2.382  19.077  0.00  0.00    +0.000 NA
ATOM     13  H   UNL     1      53.076   1.872  19.954  0.00  0.00    +0.000 HD
ATOM     14  H   UNL     1      54.055   2.097  18.668  0.00  0.00    +0.000 HD
ENDBRANCH  11  12
ENDBRANCH  10  11
ENDBRANCH   9  10
ENDBRANCH   7   9
ENDBRANCH   1   8
BRANCH   4  15
ATOM     15  C   UNL     1      46.824   4.358  13.903  0.00  0.00    +0.000 C 
BRANCH  15  16
ATOM     16  N   UNL     1      45.370   4.490  13.975  0.00  0.00    +0.000 N 
ATOM     17  C   UNL     1      44.615   4.664  12.823  0.00  0.00    +0.000 A 
ATOM     18  C   UNL     1      43.265   4.928  12.963  0.00  0.00    +0.000 A 
ATOM     19  C   UNL     1      42.567   5.294  11.832  0.00  0.00    +0.000 A 
ATOM     20  N   UNL     1      43.058   5.178  10.589  0.00  0.00    +0.000 NA
ATOM     21  C   UNL     1      44.332   4.731  10.535  0.00  0.00    +0.000 A 
ATOM     22  N   UNL     1      45.152   4.524  11.594  0.00  0.00    +0.000 NA
ATOM     23  H   UNL     1      44.987   4.853  14.839  0.00  0.00    +0.000 HD
BRANCH  21  24
ATOM     24  C   UNL     1      44.869   4.328   9.170  0.00  0.00    +0.000 C 
ATOM     25  N   UNL     1      44.351   3.169   8.608  0.00  0.00    +0.000 N 
ATOM     26  O   UNL     1      45.724   4.940   8.588  0.00  0.00    +0.000 OA
ATOM     27  H   UNL     1      43.657   2.606   9.076  0.00  0.00    +0.000 HD
ATOM     28  H   UNL     1      44.726   2.885   7.712  0.00  0.00    +0.000 HD
ENDBRANCH  21  24
ENDBRANCH  15  16
ENDBRANCH   4  15
TORSDOF 8
ENDMDL
MODEL 5
REMARK VINA RESULT:    -5.950      5.888      6.510
REMARK INTER + INTRA:          -9.058
REMARK INTER:                  -8.612
REMARK INTRA:                  -0.445
REMARK UNBOUND:                -0.498
REMARK  Name = 
REMARK  8 active torsions:
REMARK  status: ('A' for Active; 'I' for Inactive)
REMARK    1  A    between atoms: N_1  and  C_2
REMARK    2  A    between atoms: C_2  and  C_3
REMARK    3  A    between atoms: C_3  and  C_4
REMARK    4  A    between atoms: C_4  and  C_5
REMARK    5  A    between atoms: C_6  and  C_7
REMARK    6  A    between atoms: C_10  and  C_11
REMARK    7  A    between atoms: C_11  and  N_12
REMARK    8  A    between atoms: C_17  and  C_18
REMARK                            x       y       z     vdW  Elec       q    Type
REMARK                         _______ _______ _______ _____ _____    ______ ____
ROOT
ATOM      1  C   UNL     1      49.343   8.295  11.895  0.00  0.00    +0.000 A 
ATOM      2  C   UNL     1      48.818   7.041  12.160  0.00  0.00    +0.000 A 
ATOM      3  C   UNL     1      47.459   6.887  12.464  0.00  0.00    +0.000 A 
ATOM      4  C   UNL     1      46.601   7.985  12.398  0.00  0.00    +0.000 A 
ATOM      5  N   UNL     1      47.099   9.237  12.196  0.00  0.00    +0.000 NA
ATOM      6  C   UNL     1      48.450   9.363  11.980  0.00  0.00    +0.000 A 
ENDROOT
BRANCH   1   8
ATOM      7  C   UNL     1      51.999   8.594  11.247  0.00  0.00    +0.000 C 
ATOM      8  C   UNL     1      50.743   8.445  11.562  0.00  0.00    +0.000 C 
BRANCH   7   9
ATOM      9  C   UNL     1      53.464   8.766  10.880  0.00  0.00    +0.000 C 
BRANCH   9  10
ATOM     10  C   UNL     1      54.187   7.429  10.988  0.00  0.00    +0.000 C 
BRANCH  10  11
ATOM     11  C   UNL     1      53.574   6.410  10.037  0.00  0.00    +0.000 C 
BRANCH  11  12
ATOM     12  N   UNL     1      53.795   5.061  10.539  0.00  0.00    +0.000 NA
ATOM     13  H   UNL     1      54.689   5.021  11.025  0.00  0.00    +0.000 HD
ATOM     14  H   UNL     1      53.862   4.410   9.757  0.00  0.00    +0.000 HD
ENDBRANCH  11  12
ENDBRANCH  10  11
ENDBRANCH   9  10
ENDBRANCH   7   9
ENDBRANCH   1   8
BRANCH   4  15
ATOM     15  C   UNL     1      45.067   7.789  12.447  0.00  0.00    +0.000 C 
BRANCH  15  16
ATOM     16  N   UNL     1      44.665   6.526  13.061  0.00  0.00    +0.000 N 
ATOM     17  C   UNL     1      44.383   5.415  12.278  0.00  0.00    +0.000 A 
ATOM     18  C   UNL     1      43.868   4.293  12.901  0.00  0.00    +0.000 A 
ATOM     19  C   UNL     1      43.408   3.272  12.097  0.00  0.00    +0.000 A 
ATOM     20  N   UNL     1      43.644   3.204  10.778  0.00  0.00    +0.000 NA
ATOM     21  C   UNL     1      44.322   4.263  10.281  0.00  0.00    +0.000 A 
ATOM     22  N   UNL     1      44.651   5.390  10.956  0.00  0.00    +0.000 NA
ATOM     23  H   UNL     1      44.216   6.580  13.966  0.00  0.00    +0.000 HD
BRANCH  21  24
ATOM     24  C   UNL     1      44.853   4.141   8.861  0.00  0.00    +0.000 C 
ATOM     25  N   UNL     1      44.247   3.198   8.041  0.00  0.00    +0.000 N 
ATOM     26  O   UNL     1      45.773   4.791   8.440  0.00  0.00    +0.000 OA
ATOM     27  H   UNL     1      43.495   2.607   8.363  0.00  0.00    +0.000 HD
ATOM     28  H   UNL     1      44.617   3.097   7.105  0.00  0.00    +0.000 HD
ENDBRANCH  21  24
ENDBRANCH  15  16
ENDBRANCH   4  15
TORSDOF 8
ENDMDL
MODEL 6
REMARK VINA RESULT:    -5.937      3.121      8.867
REMARK INTER + INTRA:          -9.038
REMARK INTER:                  -8.657
REMARK INTRA:                  -0.381
REMARK UNBOUND:                -0.498
REMARK  Name = 
REMARK  8 active torsions:
REMARK  status: ('A' for Active; 'I' for Inactive)
REMARK    1  A    between atoms: N_1  and  C_2
REMARK    2  A    between atoms: C_2  and  C_3
REMARK    3  A    between atoms: C_3  and  C_4
REMARK    4  A    between atoms: C_4  and  C_5
REMARK    5  A    between atoms: C_6  and  C_7
REMARK    6  A    between atoms: C_10  and  C_11
REMARK    7  A    between atoms: C_11  and  N_12
REMARK    8  A    between atoms: C_17  and  C_18
REMARK                            x       y       z     vdW  Elec       q    Type
REMARK                         _______ _______ _______ _____ _____    ______ ____
ROOT
ATOM      1  C   UNL     1      47.194   5.479  13.904  0.00  0.00    +0.000 A 
ATOM      2  C   UNL     1      47.099   4.645  15.007  0.00  0.00    +0.000 A 
ATOM      3  C   UNL     1      47.918   4.847  16.125  0.00  0.00    +0.000 A 
ATOM      4  C   UNL     1      48.763   5.955  16.179  0.00  0.00    +0.000 A 
ATOM      5  N   UNL     1      48.919   6.757  15.089  0.00  0.00    +0.000 NA
ATOM      6  C   UNL     1      48.158   6.484  13.978  0.00  0.00    +0.000 A 
ENDROOT
BRANCH   1   8
ATOM      7  C   UNL     1      45.544   5.114  11.734  0.00  0.00    +0.000 C 
ATOM      8  C   UNL     1      46.331   5.278  12.759  0.00  0.00    +0.000 C 
BRANCH   7   9
ATOM      9  C   UNL     1      44.625   4.923  10.538  0.00  0.00    +0.000 C 
BRANCH   9  10
ATOM     10  C   UNL     1      43.256   4.444  11.007  0.00  0.00    +0.000 C 
BRANCH  10  11
ATOM     11  C   UNL     1      42.585   5.503  11.870  0.00  0.00    +0.000 C 
BRANCH  11  12
ATOM     12  N   UNL     1      42.614   6.792  11.193  0.00  0.00    +0.000 NA
ATOM     13  H   UNL     1      42.271   6.684  10.240  0.00  0.00    +0.000 HD
ATOM     14  H   UNL     1      43.577   7.119  11.117  0.00  0.00    +0.000 HD
ENDBRANCH  11  12
ENDBRANCH  10  11
ENDBRANCH   9  10
ENDBRANCH   7   9
ENDBRANCH   1   8
BRANCH   4  15
ATOM     15  C   UNL     1      49.455   6.352  17.505  0.00  0.00    +0.000 C 
BRANCH  15  16
ATOM     16  N   UNL     1      50.914   6.344  17.421  0.00  0.00    +0.000 N 
ATOM     17  C   UNL     1      51.624   5.155  17.524  0.00  0.00    +0.000 A 
ATOM     18  C   UNL     1      53.004   5.224  17.583  0.00  0.00    +0.000 A 
ATOM     19  C   UNL     1      53.687   4.065  17.883  0.00  0.00    +0.000 A 
ATOM     20  N   UNL     1      53.119   2.850  17.885  0.00  0.00    +0.000 NA
ATOM     21  C   UNL     1      51.792   2.858  17.631  0.00  0.00    +0.000 A 
ATOM     22  N   UNL     1      51.008   3.956  17.508  0.00  0.00    +0.000 NA
ATOM     23  H   UNL     1      51.392   7.193  17.692  0.00  0.00    +0.000 HD
BRANCH  21  24
ATOM     24  C   UNL     1      51.130   1.515  17.360  0.00  0.00    +0.000 C 
ATOM     25  N   UNL     1      51.653   0.411  18.018  0.00  0.00    +0.000 N 
ATOM     26  O   UNL     1      50.214   1.371  16.594  0.00  0.00    +0.000 OA
ATOM     27  H   UNL     1      52.442   0.479  18.644  0.00  0.00    +0.000 HD
ATOM     28  H   UNL     1      51.231  -0.487  17.819  0.00  0.00    +0.000 HD
ENDBRANCH  21  24
ENDBRANCH  15  16
ENDBRANCH   4  15
TORSDOF 8
ENDMDL
MODEL 7
REMARK VINA RESULT:    -5.303      4.059      8.713
REMARK INTER + INTRA:          -8.126
REMARK INTER:                  -7.681
REMARK INTRA:                  -0.445
REMARK UNBOUND:                -0.498
REMARK  Name = 
REMARK  8 active torsions:
REMARK  status: ('A' for Active; 'I' for Inactive)
REMARK    1  A    between atoms: N_1  and  C_2
REMARK    2  A    between atoms: C_2  and  C_3
REMARK    3  A    between atoms: C_3  and  C_4
REMARK    4  A    between atoms: C_4  and  C_5
REMARK    5  A    between atoms: C_6  and  C_7
REMARK    6  A    between atoms: C_10  and  C_11
REMARK    7  A    between atoms: C_11  and  N_12
REMARK    8  A    between atoms: C_17  and  C_18
REMARK                            x       y       z     vdW  Elec       q    Type
REMARK                         _______ _______ _______ _____ _____    ______ ____
ROOT
ATOM      1  C   UNL     1      46.632   5.950  12.461  0.00  0.00    +0.000 A 
ATOM      2  C   UNL     1      46.998   7.283  12.376  0.00  0.00    +0.000 A 
ATOM      3  C   UNL     1      47.792   7.868  13.372  0.00  0.00    +0.000 A 
ATOM      4  C   UNL     1      48.307   7.084  14.403  0.00  0.00    +0.000 A 
ATOM      5  N   UNL     1      47.918   5.785  14.542  0.00  0.00    +0.000 NA
ATOM      6  C   UNL     1      47.074   5.263  13.591  0.00  0.00    +0.000 A 
ENDROOT
BRANCH   1   8
ATOM      7  C   UNL     1      45.091   4.812  10.486  0.00  0.00    +0.000 C 
ATOM      8  C   UNL     1      45.829   5.345  11.419  0.00  0.00    +0.000 C 
BRANCH   7   9
ATOM      9  C   UNL     1      44.230   4.190   9.399  0.00  0.00    +0.000 C 
BRANCH   9  10
ATOM     10  C   UNL     1      44.578   2.715   9.242  0.00  0.00    +0.000 C 
BRANCH  10  11
ATOM     11  C   UNL     1      45.748   2.539   8.284  0.00  0.00    +0.000 C 
BRANCH  11  12
ATOM     12  N   UNL     1      46.183   1.150   8.276  0.00  0.00    +0.000 NA
ATOM     13  H   UNL     1      46.248   0.807   9.233  0.00  0.00    +0.000 HD
ATOM     14  H   UNL     1      47.122   1.085   7.883  0.00  0.00    +0.000 HD
ENDBRANCH  11  12
ENDBRANCH  10  11
ENDBRANCH   9  10
ENDBRANCH   7   9
ENDBRANCH   1   8
BRANCH   4  15
ATOM     15  C   UNL     1      49.406   7.639  15.340  0.00  0.00    +0.000 C 
BRANCH  15  16
ATOM     16  N   UNL     1      50.375   6.629  15.758  0.00  0.00    +0.000 N 
ATOM     17  C   UNL     1      50.268   6.011  16.996  0.00  0.00    +0.000 A 
ATOM     18  C   UNL     1      51.292   5.173  17.396  0.00  0.00    +0.000 A 
ATOM     19  C   UNL     1      51.275   4.723  18.699  0.00  0.00    +0.000 A 
ATOM     20  N   UNL     1      50.217   4.855  19.514  0.00  0.00    +0.000 NA
ATOM     21  C   UNL     1      49.180   5.532  18.972  0.00  0.00    +0.000 A 
ATOM     22  N   UNL     1      49.178   6.165  17.775  0.00  0.00    +0.000 NA
ATOM     23  H   UNL     1      51.299   6.685  15.347  0.00  0.00    +0.000 HD
BRANCH  21  24
ATOM     24  C   UNL     1      47.860   5.499  19.728  0.00  0.00    +0.000 C 
ATOM     25  N   UNL     1      47.894   5.026  21.033  0.00  0.00    +0.000 N 
ATOM     26  O   UNL     1      46.811   5.828  19.241  0.00  0.00    +0.000 OA
ATOM     27  H   UNL     1      48.745   4.707  21.469  0.00  0.00    +0.000 HD
ATOM     28  H   UNL     1      47.012   4.979  21.527  0.00  0.00    +0.000 HD
ENDBRANCH  21  24
ENDBRANCH  15  16
ENDBRANCH   4  15
TORSDOF 8
ENDMDL
MODEL 8
REMARK VINA RESULT:    -5.239      5.418      7.089
REMARK INTER + INTRA:          -8.034
REMARK INTER:                  -7.518
REMARK INTRA:                  -0.517
REMARK UNBOUND:                -0.498
REMARK  Name = 
REMARK  8 active torsions:
REMARK  status: ('A' for Active; 'I' for Inactive)
REMARK    1  A    between atoms: N_1  and  C_2
REMARK    2  A    between atoms: C_2  and  C_3
REMARK    3  A    between atoms: C_3  and  C_4
REMARK    4  A    between atoms: C_4  and  C_5
REMARK    5  A    between atoms: C_6  and  C_7
REMARK    6  A    between atoms: C_10  and  C_11
REMARK    7  A    between atoms: C_11  and  N_12
REMARK    8  A    between atoms: C_17  and  C_18
REMARK                            x       y       z     vdW  Elec       q    Type
REMARK                         _______ _______ _______ _____ _____    ______ ____
ROOT
ATOM      1  C   UNL     1      49.601   8.348  12.235  0.00  0.00    +0.000 A 
ATOM      2  C   UNL     1      49.696   7.912  13.546  0.00  0.00    +0.000 A 
ATOM      3  C   UNL     1      48.806   6.951  14.043  0.00  0.00    +0.000 A 
ATOM      4  C   UNL     1      47.883   6.347  13.189  0.00  0.00    +0.000 A 
ATOM      5  N   UNL     1      47.730   6.796  11.912  0.00  0.00    +0.000 NA
ATOM      6  C   UNL     1      48.566   7.797  11.479  0.00  0.00    +0.000 A 
ENDROOT
BRANCH   1   8
ATOM      7  C   UNL     1      51.369  10.205  11.239  0.00  0.00    +0.000 C 
ATOM      8  C   UNL     1      50.536   9.326  11.720  0.00  0.00    +0.000 C 
BRANCH   7   9
ATOM      9  C   UNL     1      52.341  11.229  10.677  0.00  0.00    +0.000 C 
BRANCH   9  10
ATOM     10  C   UNL     1      52.798  10.804   9.287  0.00  0.00    +0.000 C 
BRANCH  10  11
ATOM     11  C   UNL     1      53.765   9.631   9.376  0.00  0.00    +0.000 C 
BRANCH  11  12
ATOM     12  N   UNL     1      53.243   8.495   8.631  0.00  0.00    +0.000 NA
ATOM     13  H   UNL     1      53.786   7.662   8.856  0.00  0.00    +0.000 HD
ATOM     14  H   UNL     1      53.362   8.655   7.631  0.00  0.00    +0.000 HD
ENDBRANCH  11  12
ENDBRANCH  10  11
ENDBRANCH   9  10
ENDBRANCH   7   9
ENDBRANCH   1   8
BRANCH   4  15
ATOM     15  C   UNL     1      47.095   5.095  13.641  0.00  0.00    +0.000 C 
BRANCH  15  16
ATOM     16  N   UNL     1      45.664   5.341  13.810  0.00  0.00    +0.000 N 
ATOM     17  C   UNL     1      44.781   5.143  12.757  0.00  0.00    +0.000 A 
ATOM     18  C   UNL     1      43.465   5.530  12.931  0.00  0.00    +0.000 A 
ATOM     19  C   UNL     1      42.645   5.514  11.823  0.00  0.00    +0.000 A 
ATOM     20  N   UNL     1      42.981   4.930  10.662  0.00  0.00    +0.000 NA
ATOM     21  C   UNL     1      44.227   4.410  10.642  0.00  0.00    +0.000 A 
ATOM     22  N   UNL     1      45.163   4.539  11.614  0.00  0.00    +0.000 NA
ATOM     23  H   UNL     1      45.397   6.013  14.518  0.00  0.00    +0.000 HD
BRANCH  21  24
ATOM     24  C   UNL     1      44.585   3.511   9.468  0.00  0.00    +0.000 C 
ATOM     25  N   UNL     1      44.678   2.149   9.723  0.00  0.00    +0.000 N 
ATOM     26  O   UNL     1      44.817   3.926   8.364  0.00  0.00    +0.000 OA
ATOM     27  H   UNL     1      44.526   1.761  10.642  0.00  0.00    +0.000 HD
ATOM     28  H   UNL     1      44.941   1.553   8.949  0.00  0.00    +0.000 HD
ENDBRANCH  21  24
ENDBRANCH  15  16
ENDBRANCH   4  15
TORSDOF 8
ENDMDL
MODEL 9
REMARK VINA RESULT:    -5.138      5.839      9.433
REMARK INTER + INTRA:          -7.889
REMARK INTER:                  -7.276
REMARK INTRA:                  -0.613
REMARK UNBOUND:                -0.498
REMARK  Name = 
REMARK  8 active torsions:
REMARK  status: ('A' for Active; 'I' for Inactive)
REMARK    1  A    between atoms: N_1  and  C_2
REMARK    2  A    between atoms: C_2  and  C_3
REMARK    3  A    between atoms: C_3  and  C_4
REMARK    4  A    between atoms: C_4  and  C_5
REMARK    5  A    between atoms: C_6  and  C_7
REMARK    6  A    between atoms: C_10  and  C_11
REMARK    7  A    between atoms: C_11  and  N_12
REMARK    8  A    between atoms: C_17  and  C_18
REMARK                            x       y       z     vdW  Elec       q    Type
REMARK                         _______ _______ _______ _____ _____    ______ ____
ROOT
ATOM      1  C   UNL     1      47.385   6.215  12.803  0.00  0.00    +0.000 A 
ATOM      2  C   UNL     1      47.720   7.052  11.752  0.00  0.00    +0.000 A 
ATOM      3  C   UNL     1      48.850   7.876  11.830  0.00  0.00    +0.000 A 
ATOM      4  C   UNL     1      49.708   7.781  12.925  0.00  0.00    +0.000 A 
ATOM      5  N   UNL     1      49.374   7.009  13.997  0.00  0.00    +0.000 NA
ATOM      6  C   UNL     1      48.216   6.273  13.922  0.00  0.00    +0.000 A 
ENDROOT
BRANCH   1   8
ATOM      7  C   UNL     1      45.190   4.569  12.605  0.00  0.00    +0.000 C 
ATOM      8  C   UNL     1      46.227   5.351  12.709  0.00  0.00    +0.000 C 
BRANCH   7   9
ATOM      9  C   UNL     1      43.979   3.657  12.484  0.00  0.00    +0.000 C 
BRANCH   9  10
ATOM     10  C   UNL     1      43.012   4.214  11.446  0.00  0.00    +0.000 C 
BRANCH  10  11
ATOM     11  C   UNL     1      42.365   5.497  11.950  0.00  0.00    +0.000 C 
BRANCH  11  12
ATOM     12  N   UNL     1      42.639   6.590  11.028  0.00  0.00    +0.000 NA
ATOM     13  H   UNL     1      41.762   7.024  10.744  0.00  0.00    +0.000 HD
ATOM     14  H   UNL     1      43.068   6.225  10.178  0.00  0.00    +0.000 HD
ENDBRANCH  11  12
ENDBRANCH  10  11
ENDBRANCH   9  10
ENDBRANCH   7   9
ENDBRANCH   1   8
BRANCH   4  15
ATOM     15  C   UNL     1      51.096   8.463  12.899  0.00  0.00    +0.000 C 
BRANCH  15  16
ATOM     16  N   UNL     1      51.325   9.263  11.698  0.00  0.00    +0.000 N 
ATOM     17  C   UNL     1      52.191   8.822  10.706  0.00  0.00    +0.000 A 
ATOM     18  C   UNL     1      52.479   9.684   9.664  0.00  0.00    +0.000 A 
ATOM     19  C   UNL     1      53.484   9.318   8.795  0.00  0.00    +0.000 A 
ATOM     20  N   UNL     1      54.025   8.091   8.762  0.00  0.00    +0.000 NA
ATOM     21  C   UNL     1      53.547   7.249   9.705  0.00  0.00    +0.000 A 
ATOM     22  N   UNL     1      52.698   7.573  10.710  0.00  0.00    +0.000 NA
ATOM     23  H   UNL     1      51.187  10.262  11.781  0.00  0.00    +0.000 HD
BRANCH  21  24
ATOM     24  C   UNL     1      53.913   5.778   9.571  0.00  0.00    +0.000 C 
ATOM     25  N   UNL     1      53.751   4.984  10.698  0.00  0.00    +0.000 N 
ATOM     26  O   UNL     1      54.355   5.295   8.562  0.00  0.00    +0.000 OA
ATOM     27  H   UNL     1      53.416   5.354  11.575  0.00  0.00    +0.000 HD
ATOM     28  H   UNL     1      54.019   4.012  10.618  0.00  0.00    +0.000 HD
ENDBRANCH  21  24
ENDBRANCH  15  16
ENDBRANCH   4  15
TORSDOF 8
ENDMDL
