MODEL 1
REMARK VINA RESULT:    -7.926      0.000      0.000
REMARK INTER + INTRA:         -11.344
REMARK INTER:                 -10.706
REMARK INTRA:                  -0.638
REMARK UNBOUND:                -0.638
REMARK  Name = 
REMARK  7 active torsions:
REMARK  status: ('A' for Active; 'I' for Inactive)
REMARK    1  A    between atoms: C_1  and  O_2
REMARK    2  A    between atoms: O_2  and  C_3
REMARK    3  A    between atoms: C_5  and  C_6
REMARK    4  A    between atoms: C_11  and  O_12
REMARK    5  A    between atoms: O_12  and  C_13
REMARK    6  A    between atoms: C_13  and  C_14
REMARK    7  A    between atoms: C_19  and  C_20
REMARK                            x       y       z     vdW  Elec       q    Type
REMARK                         _______ _______ _______ _____ _____    ______ ____
ROOT
ATOM      1  O   UNL     1      43.916   5.468  10.131  0.00  0.00    +0.000 OA
ENDROOT
BRANCH   1   7
ATOM      2  C   UNL     1      44.286   2.997   9.934  0.00  0.00    +0.000 A 
ATOM      3  C   UNL     1      45.038   2.002   9.294  0.00  0.00    +0.000 A 
ATOM      4  C   UNL     1      46.027   2.313   8.354  0.00  0.00    +0.000 A 
ATOM      5  C   UNL     1      46.260   3.654   8.038  0.00  0.00    +0.000 A 
ATOM      6  C   UNL     1      45.514   4.656   8.670  0.00  0.00    +0.000 A 
ATOM      7  C   UNL     1      44.528   4.347   9.618  0.00  0.00    +0.000 A 
BRANCH   4   8
ATOM      8  C   UNL     1      46.764   1.170   7.740  0.00  0.00    +0.000 C 
ATOM      9  N   UNL     1      47.822   1.432   6.918  0.00  0.00    +0.000 N 
ATOM     10  O   UNL     1      46.440   0.008   7.960  0.00  0.00    +0.000 OA
ATOM     11  H   UNL     1      48.159   2.348   6.671  0.00  0.00    +0.000 HD
ATOM     12  H   UNL     1      48.295   0.629   6.523  0.00  0.00    +0.000 HD
ENDBRANCH   4   8
BRANCH   2  14
ATOM     13  C   UNL     1      43.660   2.367  12.150  0.00  0.00    +0.000 C 
ATOM     14  O   UNL     1      43.284   2.687  10.814  0.00  0.00    +0.000 OA
ENDBRANCH   2  14
ENDBRANCH   1   7
BRANCH   1  15
ATOM     15  C   UNL     1      43.940   5.641  11.546  0.00  0.00    +0.000 C 
BRANCH  15  16
ATOM     16  C   UNL     1      45.350   5.829  12.069  0.00  0.00    +0.000 A 
ATOM     17  C   UNL     1      46.173   6.796  11.477  0.00  0.00    +0.000 A 
ATOM     18  C   UNL     1      47.433   7.062  12.001  0.00  0.00    +0.000 A 
ATOM     19  C   UNL     1      47.867   6.383  13.136  0.00  0.00    +0.000 A 
ATOM     20  F   UNL     1      49.088   6.686  13.604  0.00  0.00    +0.000 F 
ATOM     21  C   UNL     1      47.067   5.430  13.789  0.00  0.00    +0.000 A 
ATOM     22  C   UNL     1      45.807   5.157  13.217  0.00  0.00    +0.000 A 
BRANCH  21  23
ATOM     23  C   UNL     1      47.488   4.780  15.048  0.00  0.00    +0.000 A 
ATOM     24  C   UNL     1      48.027   5.501  16.124  0.00  0.00    +0.000 A 
ATOM     25  C   UNL     1      48.452   4.845  17.280  0.00  0.00    +0.000 A 
ATOM     26  C   UNL     1      48.324   3.470  17.342  0.00  0.00    +0.000 A 
ATOM     27  N   UNL     1      47.816   2.726  16.340  0.00  0.00    +0.000 NA
ATOM     28  C   UNL     1      47.414   3.394  15.230  0.00  0.00    +0.000 A 
ENDBRANCH  21  23
ENDBRANCH  15  16
ENDBRANCH   1  15
TORSDOF 6
ENDMDL
MODEL 2
REMARK VINA RESULT:    -7.651      3.144      7.369
REMARK INTER + INTRA:         -10.972
REMARK INTER:                 -10.085
REMARK INTRA:                  -0.888
REMARK UNBOUND:                -0.638
REMARK  Name = 
REMARK  7 active torsions:
REMARK  status: ('A' for Active; 'I' for Inactive)
REMARK    1  A    between atoms: C_1  and  O_2
REMARK    2  A    between atoms: O_2  and  C_3
REMARK    3  A    between atoms: C_5  and  C_6
REMARK    4  A    between atoms: C_11  and  O_12
REMARK    5  A    between atoms: O_12  and  C_13
REMARK    6  A    between atoms: C_13  and  C_14
REMARK    7  A    between atoms: C_19  and  C_20
REMARK                            x       y       z     vdW  Elec       q    Type
REMARK                         _______ _______ _______ _____ _____    ______ ____
ROOT
ATOM      1  O   UNL     1      44.934   6.424  12.304  0.00  0.00    +0.000 OA
ENDROOT
BRANCH   1   7
ATOM      2  C   UNL     1      47.306   6.053  13.020  0.00  0.00    +0.000 A 
ATOM      3  C   UNL     1      48.575   6.640  13.118  0.00  0.00    +0.000 A 
ATOM      4  C   UNL     1      48.816   7.954  12.699  0.00  0.00    +0.000 A 
ATOM      5  C   UNL     1      47.762   8.693  12.158  0.00  0.00    +0.000 A 
ATOM      6  C   UNL     1      46.490   8.117  12.055  0.00  0.00    +0.000 A 
ATOM      7  C   UNL     1      46.245   6.802  12.480  0.00  0.00    +0.000 A 
BRANCH   4   8
ATOM      8  C   UNL     1      50.207   8.472  12.855  0.00  0.00    +0.000 C 
ATOM      9  N   UNL     1      51.111   7.731  13.561  0.00  0.00    +0.000 N 
ATOM     10  O   UNL     1      50.549   9.543  12.365  0.00  0.00    +0.000 OA
ATOM     11  H   UNL     1      50.925   6.848  14.006  0.00  0.00    +0.000 HD
ATOM     12  H   UNL     1      52.043   8.118  13.642  0.00  0.00    +0.000 HD
ENDBRANCH   4   8
BRANCH   2  14
ATOM     13  C   UNL     1      46.980   4.465  14.772  0.00  0.00    +0.000 C 
ATOM     14  O   UNL     1      47.086   4.750  13.381  0.00  0.00    +0.000 OA
ENDBRANCH   2  14
ENDBRANCH   1   7
BRANCH   1  15
ATOM     15  C   UNL     1      44.469   6.269  10.964  0.00  0.00    +0.000 C 
BRANCH  15  16
ATOM     16  C   UNL     1      44.587   4.835  10.487  0.00  0.00    +0.000 A 
ATOM     17  C   UNL     1      43.743   3.862  11.037  0.00  0.00    +0.000 A 
ATOM     18  C   UNL     1      43.757   2.561  10.547  0.00  0.00    +0.000 A 
ATOM     19  C   UNL     1      44.596   2.233   9.484  0.00  0.00    +0.000 A 
ATOM     20  F   UNL     1      44.563   0.964   9.046  0.00  0.00    +0.000 F 
ATOM     21  C   UNL     1      45.436   3.179   8.874  0.00  0.00    +0.000 A 
ATOM     22  C   UNL     1      45.424   4.483   9.413  0.00  0.00    +0.000 A 
BRANCH  21  23
ATOM     23  C   UNL     1      46.253   2.855   7.686  0.00  0.00    +0.000 A 
ATOM     24  C   UNL     1      46.208   3.617   6.509  0.00  0.00    +0.000 A 
ATOM     25  C   UNL     1      46.963   3.254   5.395  0.00  0.00    +0.000 A 
ATOM     26  C   UNL     1      47.762   2.128   5.479  0.00  0.00    +0.000 A 
ATOM     27  N   UNL     1      47.843   1.357   6.580  0.00  0.00    +0.000 NA
ATOM     28  C   UNL     1      47.094   1.737   7.645  0.00  0.00    +0.000 A 
ENDBRANCH  21  23
ENDBRANCH  15  16
ENDBRANCH   1  15
TORSDOF 6
ENDMDL
MODEL 3
REMARK VINA RESULT:    -7.609      3.155      7.588
REMARK INTER + INTRA:         -10.916
REMARK INTER:                 -10.155
REMARK INTRA:                  -0.761
REMARK UNBOUND:                -0.638
REMARK  Name = 
REMARK  7 active torsions:
REMARK  status: ('A' for Active; 'I' for Inactive)
REMARK    1  A    between atoms: C_1  and  O_2
REMARK    2  A    between atoms: O_2  and  C_3
REMARK    3  A    between atoms: C_5  and  C_6
REMARK    4  A    between atoms: C_11  and  O_12
REMARK    5  A    between atoms: O_12  and  C_13
REMARK    6  A    between atoms: C_13  and  C_14
REMARK    7  A    between atoms: C_19  and  C_20
REMARK                            x       y       z     vdW  Elec       q    Type
REMARK                         _______ _______ _______ _____ _____    ______ ____
ROOT
ATOM      1  O   UNL     1      44.465   6.381  12.296  0.00  0.00    +0.000 OA
ENDROOT
BRANCH   1   7
ATOM      2  C   UNL     1      46.309   7.919  13.014  0.00  0.00    +0.000 A 
ATOM      3  C   UNL     1      47.561   7.987  13.641  0.00  0.00    +0.000 A 
ATOM      4  C   UNL     1      48.204   6.845  14.132  0.00  0.00    +0.000 A 
ATOM      5  C   UNL     1      47.573   5.606  14.002  0.00  0.00    +0.000 A 
ATOM      6  C   UNL     1      46.322   5.526  13.379  0.00  0.00    +0.000 A 
ATOM      7  C   UNL     1      45.678   6.668  12.880  0.00  0.00    +0.000 A 
BRANCH   4   8
ATOM      8  C   UNL     1      49.536   7.041  14.778  0.00  0.00    +0.000 C 
ATOM      9  N   UNL     1      50.552   7.580  14.043  0.00  0.00    +0.000 N 
ATOM     10  O   UNL     1      49.731   6.728  15.948  0.00  0.00    +0.000 OA
ATOM     11  H   UNL     1      50.493   7.861  13.078  0.00  0.00    +0.000 HD
ATOM     12  H   UNL     1      51.438   7.697  14.519  0.00  0.00    +0.000 HD
ENDBRANCH   4   8
BRANCH   2  14
ATOM     13  C   UNL     1      46.452  10.088  12.029  0.00  0.00    +0.000 C 
ATOM     14  O   UNL     1      45.658   9.044  12.582  0.00  0.00    +0.000 OA
ENDBRANCH   2  14
ENDBRANCH   1   7
BRANCH   1  15
ATOM     15  C   UNL     1      44.429   6.275  10.874  0.00  0.00    +0.000 C 
BRANCH  15  16
ATOM     16  C   UNL     1      44.565   4.839  10.409  0.00  0.00    +0.000 A 
ATOM     17  C   UNL     1      43.720   3.864  10.955  0.00  0.00    +0.000 A 
ATOM     18  C   UNL     1      43.751   2.560  10.475  0.00  0.00    +0.000 A 
ATOM     19  C   UNL     1      44.607   2.229   9.428  0.00  0.00    +0.000 A 
ATOM     20  F   UNL     1      44.589   0.957   8.999  0.00  0.00    +0.000 F 
ATOM     21  C   UNL     1      45.449   3.177   8.822  0.00  0.00    +0.000 A 
ATOM     22  C   UNL     1      45.419   4.484   9.351  0.00  0.00    +0.000 A 
BRANCH  21  23
ATOM     23  C   UNL     1      46.286   2.849   7.649  0.00  0.00    +0.000 A 
ATOM     24  C   UNL     1      46.281   3.625   6.480  0.00  0.00    +0.000 A 
ATOM     25  C   UNL     1      47.054   3.259   5.378  0.00  0.00    +0.000 A 
ATOM     26  C   UNL     1      47.828   2.117   5.467  0.00  0.00    +0.000 A 
ATOM     27  N   UNL     1      47.871   1.332   6.561  0.00  0.00    +0.000 NA
ATOM     28  C   UNL     1      47.106   1.716   7.614  0.00  0.00    +0.000 A 
ENDBRANCH  21  23
ENDBRANCH  15  16
ENDBRANCH   1  15
TORSDOF 6
ENDMDL
MODEL 4
REMARK VINA RESULT:    -7.594      2.062      3.158
REMARK INTER + INTRA:         -10.895
REMARK INTER:                 -10.874
REMARK INTRA:                  -0.022
REMARK UNBOUND:                -0.638
REMARK  Name = 
REMARK  7 active torsions:
REMARK  status: ('A' for Active; 'I' for Inactive)
REMARK    1  A    between atoms: C_1  and  O_2
REMARK    2  A    between atoms: O_2  and  C_3
REMARK    3  A    between atoms: C_5  and  C_6
REMARK    4  A    between atoms: C_11  and  O_12
REMARK    5  A    between atoms: O_12  and  C_13
REMARK    6  A    between atoms: C_13  and  C_14
REMARK    7  A    between atoms: C_19  and  C_20
REMARK                            x       y       z     vdW  Elec       q    Type
REMARK                         _______ _______ _______ _____ _____    ______ ____
ROOT
ATOM      1  O   UNL     1      43.944   4.855  10.228  0.00  0.00    +0.000 OA
ENDROOT
BRANCH   1   7
ATOM      2  C   UNL     1      44.695   2.591   9.461  0.00  0.00    +0.000 A 
ATOM      3  C   UNL     1      45.578   1.905   8.615  0.00  0.00    +0.000 A 
ATOM      4  C   UNL     1      46.480   2.581   7.785  0.00  0.00    +0.000 A 
ATOM      5  C   UNL     1      46.490   3.978   7.795  0.00  0.00    +0.000 A 
ATOM      6  C   UNL     1      45.612   4.673   8.636  0.00  0.00    +0.000 A 
ATOM      7  C   UNL     1      44.712   3.997   9.474  0.00  0.00    +0.000 A 
BRANCH   4   8
ATOM      8  C   UNL     1      47.372   1.745   6.929  0.00  0.00    +0.000 C 
ATOM      9  N   UNL     1      48.474   2.322   6.365  0.00  0.00    +0.000 N 
ATOM     10  O   UNL     1      47.136   0.559   6.726  0.00  0.00    +0.000 OA
ATOM     11  H   UNL     1      48.748   3.285   6.465  0.00  0.00    +0.000 HD
ATOM     12  H   UNL     1      49.052   1.720   5.793  0.00  0.00    +0.000 HD
ENDBRANCH   4   8
BRANCH   2  14
ATOM     13  C   UNL     1      43.537   2.432  11.542  0.00  0.00    +0.000 C 
ATOM     14  O   UNL     1      43.777   1.928  10.232  0.00  0.00    +0.000 OA
ENDBRANCH   2  14
ENDBRANCH   1   7
BRANCH   1  15
ATOM     15  C   UNL     1      44.500   6.130  10.542  0.00  0.00    +0.000 C 
BRANCH  15  16
ATOM     16  C   UNL     1      45.452   6.059  11.719  0.00  0.00    +0.000 A 
ATOM     17  C   UNL     1      45.185   5.156  12.758  0.00  0.00    +0.000 A 
ATOM     18  C   UNL     1      46.092   4.995  13.798  0.00  0.00    +0.000 A 
ATOM     19  C   UNL     1      47.285   5.714  13.793  0.00  0.00    +0.000 A 
ATOM     20  F   UNL     1      48.128   5.513  14.818  0.00  0.00    +0.000 F 
ATOM     21  C   UNL     1      47.617   6.605  12.758  0.00  0.00    +0.000 A 
ATOM     22  C   UNL     1      46.663   6.772  11.732  0.00  0.00    +0.000 A 
BRANCH  21  23
ATOM     23  C   UNL     1      48.923   7.294  12.703  0.00  0.00    +0.000 A 
ATOM     24  C   UNL     1      49.600   7.529  11.497  0.00  0.00    +0.000 A 
ATOM     25  C   UNL     1      50.851   8.146  11.490  0.00  0.00    +0.000 A 
ATOM     26  C   UNL     1      51.405   8.525  12.699  0.00  0.00    +0.000 A 
ATOM     27  N   UNL     1      50.803   8.323  13.887  0.00  0.00    +0.000 NA
ATOM     28  C   UNL     1      49.589   7.719  13.858  0.00  0.00    +0.000 A 
ENDBRANCH  21  23
ENDBRANCH  15  16
ENDBRANCH   1  15
TORSDOF 6
ENDMDL
MODEL 5
REMARK VINA RESULT:    -7.043      3.824      8.143
REMARK INTER + INTRA:         -10.151
REMARK INTER:                  -9.127
REMARK INTRA:                  -1.024
REMARK UNBOUND:                -0.638
REMARK  Name = 
REMARK  7 active torsions:
REMARK  status: ('A' for Active; 'I' for Inactive)
REMARK    1  A    between atoms: C_1  and  O_2
REMARK    2  A    between atoms: O_2  and  C_3
REMARK    3  A    between atoms: C_5  and  C_6
REMARK    4  A    between atoms: C_11  and  O_12
REMARK    5  A    between atoms: O_12  and  C_13
REMARK    6  A    between atoms: C_13  and  C_14
REMARK    7  A    between atoms: C_19  and  C_20
REMARK                            x       y       z     vdW  Elec       q    Type
REMARK                         _______ _______ _______ _____ _____    ______ ____
ROOT
ATOM      1  O   UNL     1      48.918   6.188  14.548  0.00  0.00    +0.000 OA
ENDROOT
BRANCH   1   7
ATOM      2  C   UNL     1      48.162   5.051  16.649  0.00  0.00    +0.000 A 
ATOM      3  C   UNL     1      47.944   5.217  18.023  0.00  0.00    +0.000 A 
ATOM      4  C   UNL     1      48.189   6.436  18.668  0.00  0.00    +0.000 A 
ATOM      5  C   UNL     1      48.675   7.509  17.919  0.00  0.00    +0.000 A 
ATOM      6  C   UNL     1      48.897   7.354  16.545  0.00  0.00    +0.000 A 
ATOM      7  C   UNL     1      48.647   6.136  15.896  0.00  0.00    +0.000 A 
BRANCH   4   8
ATOM      8  C   UNL     1      47.917   6.495  20.134  0.00  0.00    +0.000 C 
ATOM      9  N   UNL     1      47.103   5.551  20.693  0.00  0.00    +0.000 N 
ATOM     10  O   UNL     1      48.408   7.368  20.841  0.00  0.00    +0.000 OA
ATOM     11  H   UNL     1      46.649   4.802  20.197  0.00  0.00    +0.000 HD
ATOM     12  H   UNL     1      46.945   5.626  21.689  0.00  0.00    +0.000 HD
ENDBRANCH   4   8
BRANCH   2  14
ATOM     13  C   UNL     1      48.509   2.689  16.671  0.00  0.00    +0.000 C 
ATOM     14  O   UNL     1      47.973   3.842  16.031  0.00  0.00    +0.000 OA
ENDBRANCH   2  14
ENDBRANCH   1   7
BRANCH   1  15
ATOM     15  C   UNL     1      48.636   7.409  13.867  0.00  0.00    +0.000 C 
BRANCH  15  16
ATOM     16  C   UNL     1      47.282   7.379  13.187  0.00  0.00    +0.000 A 
ATOM     17  C   UNL     1      46.474   8.523  13.226  0.00  0.00    +0.000 A 
ATOM     18  C   UNL     1      45.274   8.559  12.525  0.00  0.00    +0.000 A 
ATOM     19  C   UNL     1      44.888   7.463  11.758  0.00  0.00    +0.000 A 
ATOM     20  F   UNL     1      43.725   7.556  11.096  0.00  0.00    +0.000 F 
ATOM     21  C   UNL     1      45.679   6.305  11.657  0.00  0.00    +0.000 A 
ATOM     22  C   UNL     1      46.875   6.284  12.404  0.00  0.00    +0.000 A 
BRANCH  21  23
ATOM     23  C   UNL     1      45.317   5.181  10.768  0.00  0.00    +0.000 A 
ATOM     24  C   UNL     1      45.659   5.157   9.408  0.00  0.00    +0.000 A 
ATOM     25  C   UNL     1      45.262   4.097   8.592  0.00  0.00    +0.000 A 
ATOM     26  C   UNL     1      44.529   3.070   9.157  0.00  0.00    +0.000 A 
ATOM     27  N   UNL     1      44.170   3.040  10.455  0.00  0.00    +0.000 NA
ATOM     28  C   UNL     1      44.570   4.087  11.219  0.00  0.00    +0.000 A 
ENDBRANCH  21  23
ENDBRANCH  15  16
ENDBRANCH   1  15
TORSDOF 6
ENDMDL
MODEL 6
REMARK VINA RESULT:    -7.029      3.960      5.898
REMARK INTER + INTRA:         -10.133
REMARK INTER:                  -8.994
REMARK INTRA:                  -1.138
REMARK UNBOUND:                -0.638
REMARK  Name = 
REMARK  7 active torsions:
REMARK  status: ('A' for Active; 'I' for Inactive)
REMARK    1  A    between atoms: C_1  and  O_2
REMARK    2  A    between atoms: O_2  and  C_3
REMARK    3  A    between atoms: C_5  and  C_6
REMARK    4  A    between atoms: C_11  and  O_12
REMARK    5  A    between atoms: O_12  and  C_13
REMARK    6  A    between atoms: C_13  and  C_14
REMARK    7  A    between atoms: C_19  and  C_20
REMARK                            x       y       z     vdW  Elec       q    Type
REMARK                         _______ _______ _______ _____ _____    ______ ____
ROOT
ATOM      1  O   UNL     1      48.762   6.347  14.214  0.00  0.00    +0.000 OA
ENDROOT
BRANCH   1   7
ATOM      2  C   UNL     1      46.774   4.841  13.978  0.00  0.00    +0.000 A 
ATOM      3  C   UNL     1      45.470   4.740  13.475  0.00  0.00    +0.000 A 
ATOM      4  C   UNL     1      44.854   5.802  12.803  0.00  0.00    +0.000 A 
ATOM      5  C   UNL     1      45.557   6.998  12.642  0.00  0.00    +0.000 A 
ATOM      6  C   UNL     1      46.860   7.110  13.141  0.00  0.00    +0.000 A 
ATOM      7  C   UNL     1      47.482   6.044  13.809  0.00  0.00    +0.000 A 
BRANCH   4   8
ATOM      8  C   UNL     1      43.462   5.578  12.310  0.00  0.00    +0.000 C 
ATOM      9  N   UNL     1      43.152   5.934  11.029  0.00  0.00    +0.000 N 
ATOM     10  O   UNL     1      42.601   5.082  13.028  0.00  0.00    +0.000 OA
ATOM     11  H   UNL     1      43.784   6.353  10.367  0.00  0.00    +0.000 HD
ATOM     12  H   UNL     1      42.199   5.765  10.734  0.00  0.00    +0.000 HD
ENDBRANCH   4   8
BRANCH   2  14
ATOM     13  C   UNL     1      47.081   3.745  16.076  0.00  0.00    +0.000 C 
ATOM     14  O   UNL     1      47.355   3.818  14.681  0.00  0.00    +0.000 OA
ENDBRANCH   2  14
ENDBRANCH   1   7
BRANCH   1  15
ATOM     15  C   UNL     1      48.910   7.271  15.291  0.00  0.00    +0.000 C 
BRANCH  15  16
ATOM     16  C   UNL     1      49.232   6.572  16.596  0.00  0.00    +0.000 A 
ATOM     17  C   UNL     1      48.581   6.983  17.767  0.00  0.00    +0.000 A 
ATOM     18  C   UNL     1      48.779   6.294  18.958  0.00  0.00    +0.000 A 
ATOM     19  C   UNL     1      49.606   5.175  18.980  0.00  0.00    +0.000 A 
ATOM     20  F   UNL     1      49.754   4.544  20.156  0.00  0.00    +0.000 F 
ATOM     21  C   UNL     1      50.254   4.700  17.827  0.00  0.00    +0.000 A 
ATOM     22  C   UNL     1      50.061   5.437  16.640  0.00  0.00    +0.000 A 
BRANCH  21  23
ATOM     23  C   UNL     1      51.054   3.458  17.830  0.00  0.00    +0.000 A 
ATOM     24  C   UNL     1      52.377   3.415  18.294  0.00  0.00    +0.000 A 
ATOM     25  C   UNL     1      53.114   2.232  18.241  0.00  0.00    +0.000 A 
ATOM     26  C   UNL     1      52.508   1.101  17.726  0.00  0.00    +0.000 A 
ATOM     27  N   UNL     1      51.242   1.083  17.264  0.00  0.00    +0.000 NA
ATOM     28  C   UNL     1      50.555   2.251  17.328  0.00  0.00    +0.000 A 
ENDBRANCH  21  23
ENDBRANCH  15  16
ENDBRANCH   1  15
TORSDOF 6
ENDMDL
MODEL 7
REMARK VINA RESULT:    -6.866      4.230      7.604
REMARK INTER + INTRA:          -9.911
REMARK INTER:                  -8.903
REMARK INTRA:                  -1.009
REMARK UNBOUND:                -0.638
REMARK  Name = 
REMARK  7 active torsions:
REMARK  status: ('A' for Active; 'I' for Inactive)
REMARK    1  A    between atoms: C_1  and  O_2
REMARK    2  A    between atoms: O_2  and  C_3
REMARK    3  A    between atoms: C_5  and  C_6
REMARK    4  A    between atoms: C_11  and  O_12
REMARK    5  A    between atoms: O_12  and  C_13
REMARK    6  A    between atoms: C_13  and  C_14
REMARK    7  A    between atoms: C_19  and  C_20
REMARK                            x       y       z     vdW  Elec       q    Type
REMARK                         _______ _______ _______ _____ _____    ______ ____
ROOT
ATOM      1  O   UNL     1      49.168   5.626  17.096  0.00  0.00    +0.000 OA
ENDROOT
BRANCH   1   7
ATOM      2  C   UNL     1      49.555   3.150  17.076  0.00  0.00    +0.000 A 
ATOM      3  C   UNL     1      50.499   2.139  17.302  0.00  0.00    +0.000 A 
ATOM      4  C   UNL     1      51.808   2.429  17.707  0.00  0.00    +0.000 A 
ATOM      5  C   UNL     1      52.182   3.763  17.878  0.00  0.00    +0.000 A 
ATOM      6  C   UNL     1      51.247   4.781  17.653  0.00  0.00    +0.000 A 
ATOM      7  C   UNL     1      49.933   4.493  17.255  0.00  0.00    +0.000 A 
BRANCH   4   8
ATOM      8  C   UNL     1      52.725   1.270  17.920  0.00  0.00    +0.000 C 
ATOM      9  N   UNL     1      52.676   0.222  17.046  0.00  0.00    +0.000 N 
ATOM     10  O   UNL     1      53.515   1.243  18.858  0.00  0.00    +0.000 OA
ATOM     11  H   UNL     1      52.060   0.148  16.254  0.00  0.00    +0.000 HD
ATOM     12  H   UNL     1      53.314  -0.542  17.226  0.00  0.00    +0.000 HD
ENDBRANCH   4   8
BRANCH   2  14
ATOM     13  C   UNL     1      47.236   2.905  17.583  0.00  0.00    +0.000 C 
ATOM     14  O   UNL     1      48.291   2.867  16.629  0.00  0.00    +0.000 OA
ENDBRANCH   2  14
ENDBRANCH   1   7
BRANCH   1  15
ATOM     15  C   UNL     1      49.711   6.682  16.306  0.00  0.00    +0.000 C 
BRANCH  15  16
ATOM     16  C   UNL     1      49.037   6.782  14.953  0.00  0.00    +0.000 A 
ATOM     17  C   UNL     1      49.715   7.410  13.899  0.00  0.00    +0.000 A 
ATOM     18  C   UNL     1      49.166   7.426  12.622  0.00  0.00    +0.000 A 
ATOM     19  C   UNL     1      47.949   6.791  12.385  0.00  0.00    +0.000 A 
ATOM     20  F   UNL     1      47.470   6.831  11.132  0.00  0.00    +0.000 F 
ATOM     21  C   UNL     1      47.247   6.117  13.398  0.00  0.00    +0.000 A 
ATOM     22  C   UNL     1      47.812   6.144  14.691  0.00  0.00    +0.000 A 
BRANCH  21  23
ATOM     23  C   UNL     1      46.006   5.362  13.126  0.00  0.00    +0.000 A 
ATOM     24  C   UNL     1      44.760   5.989  12.980  0.00  0.00    +0.000 A 
ATOM     25  C   UNL     1      43.604   5.238  12.765  0.00  0.00    +0.000 A 
ATOM     26  C   UNL     1      43.718   3.861  12.694  0.00  0.00    +0.000 A 
ATOM     27  N   UNL     1      44.886   3.205  12.829  0.00  0.00    +0.000 NA
ATOM     28  C   UNL     1      45.989   3.965  13.039  0.00  0.00    +0.000 A 
ENDBRANCH  21  23
ENDBRANCH  15  16
ENDBRANCH   1  15
TORSDOF 6
ENDMDL
MODEL 8
REMARK VINA RESULT:    -6.514      4.087      7.909
REMARK INTER + INTRA:          -9.436
REMARK INTER:                  -8.630
REMARK INTRA:                  -0.805
REMARK UNBOUND:                -0.638
REMARK  Name = 
REMARK  7 active torsions:
REMARK  status: ('A' for Active; 'I' for Inactive)
REMARK    1  A    between atoms: C_1  and  O_2
REMARK    2  A    between atoms: O_2  and  C_3
REMARK    3  A    between atoms: C_5  and  C_6
REMARK    4  A    between atoms: C_11  and  O_12
REMARK    5  A    between atoms: O_12  and  C_13
REMARK    6  A    between atoms: C_13  and  C_14
REMARK    7  A    between atoms: C_19  and  C_20
REMARK                            x       y       z     vdW  Elec       q    Type
REMARK                         _______ _______ _______ _____ _____    ______ ____
ROOT
ATOM      1  O   UNL     1      48.664   7.433  15.242  0.00  0.00    +0.000 OA
ENDROOT
BRANCH   1   7
ATOM      2  C   UNL     1      49.103   5.468  16.733  0.00  0.00    +0.000 A 
ATOM      3  C   UNL     1      50.093   4.757  17.426  0.00  0.00    +0.000 A 
ATOM      4  C   UNL     1      51.438   5.146  17.395  0.00  0.00    +0.000 A 
ATOM      5  C   UNL     1      51.800   6.265  16.643  0.00  0.00    +0.000 A 
ATOM      6  C   UNL     1      50.820   6.981  15.946  0.00  0.00    +0.000 A 
ATOM      7  C   UNL     1      49.470   6.598  15.981  0.00  0.00    +0.000 A 
BRANCH   4   8
ATOM      8  C   UNL     1      52.403   4.314  18.174  0.00  0.00    +0.000 C 
ATOM      9  N   UNL     1      51.961   3.664  19.290  0.00  0.00    +0.000 N 
ATOM     10  O   UNL     1      53.575   4.204  17.830  0.00  0.00    +0.000 OA
ATOM     11  H   UNL     1      51.024   3.697  19.656  0.00  0.00    +0.000 HD
ATOM     12  H   UNL     1      52.646   3.110  19.788  0.00  0.00    +0.000 HD
ENDBRANCH   4   8
BRANCH   2  14
ATOM     13  C   UNL     1      47.551   3.657  16.823  0.00  0.00    +0.000 C 
ATOM     14  O   UNL     1      47.797   5.055  16.722  0.00  0.00    +0.000 OA
ENDBRANCH   2  14
ENDBRANCH   1   7
BRANCH   1  15
ATOM     15  C   UNL     1      48.748   7.341  13.821  0.00  0.00    +0.000 C 
BRANCH  15  16
ATOM     16  C   UNL     1      47.379   7.310  13.173  0.00  0.00    +0.000 A 
ATOM     17  C   UNL     1      46.563   8.447  13.250  0.00  0.00    +0.000 A 
ATOM     18  C   UNL     1      45.346   8.485  12.579  0.00  0.00    +0.000 A 
ATOM     19  C   UNL     1      44.950   7.397  11.804  0.00  0.00    +0.000 A 
ATOM     20  F   UNL     1      43.770   7.491  11.172  0.00  0.00    +0.000 F 
ATOM     21  C   UNL     1      45.747   6.248  11.666  0.00  0.00    +0.000 A 
ATOM     22  C   UNL     1      46.961   6.225  12.384  0.00  0.00    +0.000 A 
BRANCH  21  23
ATOM     23  C   UNL     1      45.372   5.135  10.768  0.00  0.00    +0.000 A 
ATOM     24  C   UNL     1      45.605   5.172   9.385  0.00  0.00    +0.000 A 
ATOM     25  C   UNL     1      45.198   4.119   8.565  0.00  0.00    +0.000 A 
ATOM     26  C   UNL     1      44.565   3.037   9.149  0.00  0.00    +0.000 A 
ATOM     27  N   UNL     1      44.313   2.947  10.469  0.00  0.00    +0.000 NA
ATOM     28  C   UNL     1      44.720   3.989  11.237  0.00  0.00    +0.000 A 
ENDBRANCH  21  23
ENDBRANCH  15  16
ENDBRANCH   1  15
TORSDOF 6
ENDMDL
MODEL 9
REMARK VINA RESULT:    -6.485      4.665      6.682
REMARK INTER + INTRA:          -9.397
REMARK INTER:                  -8.473
REMARK INTRA:                  -0.923
REMARK UNBOUND:                -0.638
REMARK  Name = 
REMARK  7 active torsions:
REMARK  status: ('A' for Active; 'I' for Inactive)
REMARK    1  A    between atoms: C_1  and  O_2
REMARK    2  A    between atoms: O_2  and  C_3
REMARK    3  A    between atoms: C_5  and  C_6
REMARK    4  A    between atoms: C_11  and  O_12
REMARK    5  A    between atoms: O_12  and  C_13
REMARK    6  A    between atoms: C_13  and  C_14
REMARK    7  A    between atoms: C_19  and  C_20
REMARK                            x       y       z     vdW  Elec       q    Type
REMARK                         _______ _______ _______ _____ _____    ______ ____
ROOT
ATOM      1  O   UNL     1      48.643   6.311  12.855  0.00  0.00    +0.000 OA
ENDROOT
BRANCH   1   7
ATOM      2  C   UNL     1      46.660   4.820  13.202  0.00  0.00    +0.000 A 
ATOM      3  C   UNL     1      45.322   4.595  12.846  0.00  0.00    +0.000 A 
ATOM      4  C   UNL     1      44.647   5.430  11.948  0.00  0.00    +0.000 A 
ATOM      5  C   UNL     1      45.324   6.524  11.404  0.00  0.00    +0.000 A 
ATOM      6  C   UNL     1      46.659   6.759  11.754  0.00  0.00    +0.000 A 
ATOM      7  C   UNL     1      47.340   5.919  12.648  0.00  0.00    +0.000 A 
BRANCH   4   8
ATOM      8  C   UNL     1      43.226   5.090  11.642  0.00  0.00    +0.000 C 
ATOM      9  N   UNL     1      42.275   6.062  11.763  0.00  0.00    +0.000 N 
ATOM     10  O   UNL     1      42.901   3.963  11.285  0.00  0.00    +0.000 OA
ATOM     11  H   UNL     1      42.440   7.011  12.054  0.00  0.00    +0.000 HD
ATOM     12  H   UNL     1      41.325   5.790  11.545  0.00  0.00    +0.000 HD
ENDBRANCH   4   8
BRANCH   2  14
ATOM     13  C   UNL     1      47.141   4.367  15.495  0.00  0.00    +0.000 C 
ATOM     14  O   UNL     1      47.301   4.032  14.121  0.00  0.00    +0.000 OA
ENDBRANCH   2  14
ENDBRANCH   1   7
BRANCH   1  15
ATOM     15  C   UNL     1      48.882   7.696  13.098  0.00  0.00    +0.000 C 
BRANCH  15  16
ATOM     16  C   UNL     1      49.914   8.268  12.147  0.00  0.00    +0.000 A 
ATOM     17  C   UNL     1      50.244   9.627  12.238  0.00  0.00    +0.000 A 
ATOM     18  C   UNL     1      51.260  10.157  11.450  0.00  0.00    +0.000 A 
ATOM     19  C   UNL     1      51.969   9.327  10.587  0.00  0.00    +0.000 A 
ATOM     20  F   UNL     1      52.944   9.890   9.856  0.00  0.00    +0.000 F 
ATOM     21  C   UNL     1      51.701   7.951  10.483  0.00  0.00    +0.000 A 
ATOM     22  C   UNL     1      50.645   7.447  11.271  0.00  0.00    +0.000 A 
BRANCH  21  23
ATOM     23  C   UNL     1      52.517   7.053   9.639  0.00  0.00    +0.000 A 
ATOM     24  C   UNL     1      52.343   6.962   8.250  0.00  0.00    +0.000 A 
ATOM     25  C   UNL     1      53.104   6.071   7.493  0.00  0.00    +0.000 A 
ATOM     26  C   UNL     1      54.037   5.284   8.144  0.00  0.00    +0.000 A 
ATOM     27  N   UNL     1      54.246   5.326   9.474  0.00  0.00    +0.000 NA
ATOM     28  C   UNL     1      53.487   6.202  10.180  0.00  0.00    +0.000 A 
ENDBRANCH  21  23
ENDBRANCH  15  16
ENDBRANCH   1  15
TORSDOF 6
ENDMDL
