MODEL 1
REMARK VINA RESULT:    -9.838      0.000      0.000
REMARK INTER + INTRA:         -14.212
REMARK INTER:                 -13.289
REMARK INTRA:                  -0.922
REMARK UNBOUND:                -0.922
REMARK  Name = 
REMARK  6 active torsions:
REMARK  status: ('A' for Active; 'I' for Inactive)
REMARK    1  A    between atoms: C_2  and  C_4
REMARK    2  A    between atoms: N_8  and  C_9
REMARK    3  A    between atoms: C_9  and  C_10
REMARK    4  A    between atoms: C_10  and  C_13
REMARK    5  A    between atoms: C_18  and  O_19
REMARK    6  A    between atoms: O_19  and  C_20
REMARK                            x       y       z     vdW  Elec       q    Type
REMARK                         _______ _______ _______ _____ _____    ______ ____
ROOT
ATOM      1  C   UNL     1      43.145   5.641  12.100  0.00  0.00    +0.000 C 
ATOM      2  F   UNL     1      42.387   6.715  11.738  0.00  0.00    +0.000 F 
ATOM      3  F   UNL     1      42.489   5.067  13.151  0.00  0.00    +0.000 F 
ENDROOT
BRANCH   1   4
ATOM      4  C   UNL     1      44.565   6.036  12.463  0.00  0.00    +0.000 A 
ATOM      5  C   UNL     1      45.118   7.241  12.008  0.00  0.00    +0.000 A 
ATOM      6  C   UNL     1      46.460   7.541  12.258  0.00  0.00    +0.000 A 
ATOM      7  C   UNL     1      47.256   6.648  12.982  0.00  0.00    +0.000 A 
ATOM      8 CL   UNL     1      48.921   7.037  13.218  0.00  0.00    +0.000 Cl
ATOM      9  C   UNL     1      46.706   5.463  13.478  0.00  0.00    +0.000 A 
ATOM     10  C   UNL     1      45.369   5.152  13.196  0.00  0.00    +0.000 A 
BRANCH   9  11
ATOM     11  O   UNL     1      47.517   4.571  14.143  0.00  0.00    +0.000 OA
BRANCH  11  12
ATOM     12  C   UNL     1      47.521   4.506  15.475  0.00  0.00    +0.000 A 
ATOM     13  C   UNL     1      48.156   5.201  16.484  0.00  0.00    +0.000 A 
ATOM     14  C   UNL     1      47.682   4.622  17.676  0.00  0.00    +0.000 A 
ATOM     15  N   UNL     1      46.825   3.625  17.451  0.00  0.00    +0.000 NA
ATOM     16  N   UNL     1      46.770   3.554  16.109  0.00  0.00    +0.000 N 
ATOM     17  H   UNL     1      46.175   2.855  15.681  0.00  0.00    +0.000 HD
ENDBRANCH  11  12
ENDBRANCH   9  11
ENDBRANCH   1   4
BRANCH   1  18
ATOM     18  C   UNL     1      43.190   4.629  10.928  0.00  0.00    +0.000 C 
BRANCH  18  23
ATOM     19  C   UNL     1      46.434   2.332   7.674  0.00  0.00    +0.000 A 
ATOM     20  C   UNL     1      45.689   1.823   8.730  0.00  0.00    +0.000 A 
ATOM     21  C   UNL     1      44.909   2.696   9.491  0.00  0.00    +0.000 A 
ATOM     22  C   UNL     1      44.883   4.054   9.183  0.00  0.00    +0.000 A 
ATOM     23  N   UNL     1      44.146   4.969   9.882  0.00  0.00    +0.000 N 
ATOM     24  N   UNL     1      45.614   4.556   8.172  0.00  0.00    +0.000 NA
ATOM     25  C   UNL     1      46.382   3.697   7.448  0.00  0.00    +0.000 A 
ATOM     26  H   UNL     1      44.180   5.912   9.507  0.00  0.00    +0.000 HD
BRANCH  19  28
ATOM     27  N   UNL     1      48.275   2.114   6.108  0.00  0.00    +0.000 N 
ATOM     28  C   UNL     1      47.284   1.487   6.812  0.00  0.00    +0.000 C 
ATOM     29  O   UNL     1      47.136   0.274   6.755  0.00  0.00    +0.000 OA
ATOM     30  H   UNL     1      48.917   1.512   5.607  0.00  0.00    +0.000 HD
ATOM     31  H   UNL     1      48.586   3.051   6.321  0.00  0.00    +0.000 HD
ENDBRANCH  19  28
ENDBRANCH  18  23
ENDBRANCH   1  18
TORSDOF 6
ENDMDL
MODEL 2
REMARK VINA RESULT:    -8.983      2.693      4.119
REMARK INTER + INTRA:         -13.056
REMARK INTER:                 -12.367
REMARK INTRA:                  -0.689
REMARK UNBOUND:                -0.922
REMARK  Name = 
REMARK  6 active torsions:
REMARK  status: ('A' for Active; 'I' for Inactive)
REMARK    1  A    between atoms: C_2  and  C_4
REMARK    2  A    between atoms: N_8  and  C_9
REMARK    3  A    between atoms: C_9  and  C_10
REMARK    4  A    between atoms: C_10  and  C_13
REMARK    5  A    between atoms: C_18  and  O_19
REMARK    6  A    between atoms: O_19  and  C_20
REMARK                            x       y       z     vdW  Elec       q    Type
REMARK                         _______ _______ _______ _____ _____    ______ ____
ROOT
ATOM      1  C   UNL     1      43.679   4.860  12.392  0.00  0.00    +0.000 C 
ATOM      2  F   UNL     1      42.684   5.403  13.150  0.00  0.00    +0.000 F 
ATOM      3  F   UNL     1      43.862   3.598  12.879  0.00  0.00    +0.000 F 
ENDROOT
BRANCH   1   4
ATOM      4  C   UNL     1      44.955   5.681  12.446  0.00  0.00    +0.000 A 
ATOM      5  C   UNL     1      46.180   5.090  12.786  0.00  0.00    +0.000 A 
ATOM      6  C   UNL     1      47.325   5.878  12.939  0.00  0.00    +0.000 A 
ATOM      7  C   UNL     1      47.260   7.259  12.734  0.00  0.00    +0.000 A 
ATOM      8 CL   UNL     1      48.687   8.195  12.989  0.00  0.00    +0.000 Cl
ATOM      9  C   UNL     1      46.055   7.854  12.353  0.00  0.00    +0.000 A 
ATOM     10  C   UNL     1      44.903   7.066  12.234  0.00  0.00    +0.000 A 
BRANCH   9  11
ATOM     11  O   UNL     1      45.996   9.222  12.207  0.00  0.00    +0.000 OA
BRANCH  11  12
ATOM     12  C   UNL     1      44.917   9.813  11.692  0.00  0.00    +0.000 A 
ATOM     13  C   UNL     1      44.453  10.054  10.416  0.00  0.00    +0.000 A 
ATOM     14  C   UNL     1      43.219  10.708  10.596  0.00  0.00    +0.000 A 
ATOM     15  N   UNL     1      42.923  10.888  11.885  0.00  0.00    +0.000 NA
ATOM     16  N   UNL     1      43.984  10.366  12.527  0.00  0.00    +0.000 N 
ATOM     17  H   UNL     1      44.000  10.386  13.540  0.00  0.00    +0.000 HD
ENDBRANCH  11  12
ENDBRANCH   9  11
ENDBRANCH   1   4
BRANCH   1  18
ATOM     18  C   UNL     1      43.207   4.764  10.920  0.00  0.00    +0.000 C 
BRANCH  18  23
ATOM     19  C   UNL     1      46.465   2.500   7.657  0.00  0.00    +0.000 A 
ATOM     20  C   UNL     1      45.646   1.967   8.644  0.00  0.00    +0.000 A 
ATOM     21  C   UNL     1      44.881   2.832   9.429  0.00  0.00    +0.000 A 
ATOM     22  C   UNL     1      44.943   4.207   9.213  0.00  0.00    +0.000 A 
ATOM     23  N   UNL     1      44.227   5.115   9.942  0.00  0.00    +0.000 N 
ATOM     24  N   UNL     1      45.746   4.730   8.270  0.00  0.00    +0.000 NA
ATOM     25  C   UNL     1      46.498   3.878   7.522  0.00  0.00    +0.000 A 
ATOM     26  H   UNL     1      44.329   6.077   9.633  0.00  0.00    +0.000 HD
BRANCH  19  28
ATOM     27  N   UNL     1      48.321   2.293   6.108  0.00  0.00    +0.000 N 
ATOM     28  C   UNL     1      47.306   1.666   6.776  0.00  0.00    +0.000 C 
ATOM     29  O   UNL     1      47.129   0.460   6.673  0.00  0.00    +0.000 OA
ATOM     30  H   UNL     1      48.955   1.693   5.594  0.00  0.00    +0.000 HD
ATOM     31  H   UNL     1      48.652   3.214   6.359  0.00  0.00    +0.000 HD
ENDBRANCH  19  28
ENDBRANCH  18  23
ENDBRANCH   1  18
TORSDOF 6
ENDMDL
MODEL 3
REMARK VINA RESULT:    -8.573      2.883      3.420
REMARK INTER + INTRA:         -12.502
REMARK INTER:                 -11.330
REMARK INTRA:                  -1.172
REMARK UNBOUND:                -0.922
REMARK  Name = 
REMARK  6 active torsions:
REMARK  status: ('A' for Active; 'I' for Inactive)
REMARK    1  A    between atoms: C_2  and  C_4
REMARK    2  A    between atoms: N_8  and  C_9
REMARK    3  A    between atoms: C_9  and  C_10
REMARK    4  A    between atoms: C_10  and  C_13
REMARK    5  A    between atoms: C_18  and  O_19
REMARK    6  A    between atoms: O_19  and  C_20
REMARK                            x       y       z     vdW  Elec       q    Type
REMARK                         _______ _______ _______ _____ _____    ______ ____
ROOT
ATOM      1  C   UNL     1      44.194   3.970  12.512  0.00  0.00    +0.000 C 
ATOM      2  F   UNL     1      43.431   3.712  13.612  0.00  0.00    +0.000 F 
ATOM      3  F   UNL     1      45.312   3.200  12.654  0.00  0.00    +0.000 F 
ENDROOT
BRANCH   1   4
ATOM      4  C   UNL     1      44.531   5.444  12.380  0.00  0.00    +0.000 A 
ATOM      5  C   UNL     1      43.824   6.271  11.496  0.00  0.00    +0.000 A 
ATOM      6  C   UNL     1      44.217   7.599  11.305  0.00  0.00    +0.000 A 
ATOM      7  C   UNL     1      45.306   8.118  12.010  0.00  0.00    +0.000 A 
ATOM      8 CL   UNL     1      45.787   9.746  11.698  0.00  0.00    +0.000 Cl
ATOM      9  C   UNL     1      45.993   7.316  12.926  0.00  0.00    +0.000 A 
ATOM     10  C   UNL     1      45.617   5.977  13.090  0.00  0.00    +0.000 A 
BRANCH   9  11
ATOM     11  O   UNL     1      47.097   7.827  13.572  0.00  0.00    +0.000 OA
BRANCH  11  12
ATOM     12  C   UNL     1      48.292   7.849  12.979  0.00  0.00    +0.000 A 
ATOM     13  C   UNL     1      48.782   7.433  11.759  0.00  0.00    +0.000 A 
ATOM     14  C   UNL     1      50.144   7.788  11.776  0.00  0.00    +0.000 A 
ATOM     15  N   UNL     1      50.504   8.370  12.922  0.00  0.00    +0.000 NA
ATOM     16  N   UNL     1      49.369   8.364  13.646  0.00  0.00    +0.000 N 
ATOM     17  H   UNL     1      49.384   8.757  14.580  0.00  0.00    +0.000 HD
ENDBRANCH  11  12
ENDBRANCH   9  11
ENDBRANCH   1   4
BRANCH   1  18
ATOM     18  C   UNL     1      43.432   3.514  11.243  0.00  0.00    +0.000 C 
BRANCH  18  23
ATOM     19  C   UNL     1      46.568   2.703   7.256  0.00  0.00    +0.000 A 
ATOM     20  C   UNL     1      45.943   3.860   7.705  0.00  0.00    +0.000 A 
ATOM     21  C   UNL     1      45.093   3.786   8.809  0.00  0.00    +0.000 A 
ATOM     22  C   UNL     1      44.884   2.565   9.446  0.00  0.00    +0.000 A 
ATOM     23  N   UNL     1      44.065   2.413  10.530  0.00  0.00    +0.000 N 
ATOM     24  N   UNL     1      45.472   1.438   9.007  0.00  0.00    +0.000 NA
ATOM     25  C   UNL     1      46.287   1.521   7.921  0.00  0.00    +0.000 A 
ATOM     26  H   UNL     1      44.055   1.477  10.923  0.00  0.00    +0.000 HD
BRANCH  19  28
ATOM     27  N   UNL     1      48.802   2.411   6.356  0.00  0.00    +0.000 N 
ATOM     28  C   UNL     1      47.487   2.684   6.101  0.00  0.00    +0.000 C 
ATOM     29  O   UNL     1      47.087   2.868   4.959  0.00  0.00    +0.000 OA
ATOM     30  H   UNL     1      49.399   2.294   5.547  0.00  0.00    +0.000 HD
ATOM     31  H   UNL     1      49.116   2.010   7.228  0.00  0.00    +0.000 HD
ENDBRANCH  19  28
ENDBRANCH  18  23
ENDBRANCH   1  18
TORSDOF 6
ENDMDL
MODEL 4
REMARK VINA RESULT:    -8.507      2.569      3.654
REMARK INTER + INTRA:         -12.413
REMARK INTER:                 -11.367
REMARK INTRA:                  -1.046
REMARK UNBOUND:                -0.922
REMARK  Name = 
REMARK  6 active torsions:
REMARK  status: ('A' for Active; 'I' for Inactive)
REMARK    1  A    between atoms: C_2  and  C_4
REMARK    2  A    between atoms: N_8  and  C_9
REMARK    3  A    between atoms: C_9  and  C_10
REMARK    4  A    between atoms: C_10  and  C_13
REMARK    5  A    between atoms: C_18  and  O_19
REMARK    6  A    between atoms: O_19  and  C_20
REMARK                            x       y       z     vdW  Elec       q    Type
REMARK                         _______ _______ _______ _____ _____    ______ ____
ROOT
ATOM      1  C   UNL     1      43.233   5.718  11.903  0.00  0.00    +0.000 C 
ATOM      2  F   UNL     1      42.626   6.885  11.543  0.00  0.00    +0.000 F 
ATOM      3  F   UNL     1      42.412   5.152  12.836  0.00  0.00    +0.000 F 
ENDROOT
BRANCH   1   4
ATOM      4  C   UNL     1      44.635   5.941  12.439  0.00  0.00    +0.000 A 
ATOM      5  C   UNL     1      45.458   4.859  12.782  0.00  0.00    +0.000 A 
ATOM      6  C   UNL     1      46.704   5.081  13.377  0.00  0.00    +0.000 A 
ATOM      7  C   UNL     1      47.147   6.385  13.614  0.00  0.00    +0.000 A 
ATOM      8 CL   UNL     1      48.667   6.606  14.400  0.00  0.00    +0.000 Cl
ATOM      9  C   UNL     1      46.355   7.473  13.237  0.00  0.00    +0.000 A 
ATOM     10  C   UNL     1      45.093   7.245  12.673  0.00  0.00    +0.000 A 
BRANCH   9  11
ATOM     11  O   UNL     1      46.782   8.750  13.527  0.00  0.00    +0.000 OA
BRANCH  11  12
ATOM     12  C   UNL     1      47.415   9.487  12.613  0.00  0.00    +0.000 A 
ATOM     13  C   UNL     1      48.486   9.284  11.767  0.00  0.00    +0.000 A 
ATOM     14  C   UNL     1      48.607  10.484  11.042  0.00  0.00    +0.000 A 
ATOM     15  N   UNL     1      47.699  11.392  11.406  0.00  0.00    +0.000 NA
ATOM     16  N   UNL     1      47.010  10.773  12.382  0.00  0.00    +0.000 N 
ATOM     17  H   UNL     1      46.250  11.269  12.833  0.00  0.00    +0.000 HD
ENDBRANCH  11  12
ENDBRANCH   9  11
ENDBRANCH   1   4
BRANCH   1  18
ATOM     18  C   UNL     1      43.308   4.781  10.672  0.00  0.00    +0.000 C 
BRANCH  18  23
ATOM     19  C   UNL     1      46.718   2.552   7.542  0.00  0.00    +0.000 A 
ATOM     20  C   UNL     1      45.894   2.015   8.523  0.00  0.00    +0.000 A 
ATOM     21  C   UNL     1      45.082   2.872   9.268  0.00  0.00    +0.000 A 
ATOM     22  C   UNL     1      45.103   4.243   9.019  0.00  0.00    +0.000 A 
ATOM     23  N   UNL     1      44.339   5.143   9.708  0.00  0.00    +0.000 N 
ATOM     24  N   UNL     1      45.910   4.771   8.083  0.00  0.00    +0.000 NA
ATOM     25  C   UNL     1      46.707   3.927   7.374  0.00  0.00    +0.000 A 
ATOM     26  H   UNL     1      44.417   6.100   9.379  0.00  0.00    +0.000 HD
BRANCH  19  28
ATOM     27  N   UNL     1      48.237   2.351   5.661  0.00  0.00    +0.000 N 
ATOM     28  C   UNL     1      47.607   1.726   6.701  0.00  0.00    +0.000 C 
ATOM     29  O   UNL     1      47.803   0.543   6.943  0.00  0.00    +0.000 OA
ATOM     30  H   UNL     1      48.926   1.801   5.160  0.00  0.00    +0.000 HD
ATOM     31  H   UNL     1      48.301   3.356   5.586  0.00  0.00    +0.000 HD
ENDBRANCH  19  28
ENDBRANCH  18  23
ENDBRANCH   1  18
TORSDOF 6
ENDMDL
MODEL 5
REMARK VINA RESULT:    -8.438      1.697      1.841
REMARK INTER + INTRA:         -12.320
REMARK INTER:                 -11.607
REMARK INTRA:                  -0.713
REMARK UNBOUND:                -0.922
REMARK  Name = 
REMARK  6 active torsions:
REMARK  status: ('A' for Active; 'I' for Inactive)
REMARK    1  A    between atoms: C_2  and  C_4
REMARK    2  A    between atoms: N_8  and  C_9
REMARK    3  A    between atoms: C_9  and  C_10
REMARK    4  A    between atoms: C_10  and  C_13
REMARK    5  A    between atoms: C_18  and  O_19
REMARK    6  A    between atoms: O_19  and  C_20
REMARK                            x       y       z     vdW  Elec       q    Type
REMARK                         _______ _______ _______ _____ _____    ______ ____
ROOT
ATOM      1  C   UNL     1      43.746   5.081  12.373  0.00  0.00    +0.000 C 
ATOM      2  F   UNL     1      42.653   5.304  13.157  0.00  0.00    +0.000 F 
ATOM      3  F   UNL     1      44.280   3.905  12.815  0.00  0.00    +0.000 F 
ENDROOT
BRANCH   1   4
ATOM      4  C   UNL     1      44.745   6.222  12.443  0.00  0.00    +0.000 A 
ATOM      5  C   UNL     1      44.475   7.458  11.839  0.00  0.00    +0.000 A 
ATOM      6  C   UNL     1      45.448   8.461  11.818  0.00  0.00    +0.000 A 
ATOM      7  C   UNL     1      46.693   8.245  12.417  0.00  0.00    +0.000 A 
ATOM      8 CL   UNL     1      47.880   9.492  12.317  0.00  0.00    +0.000 Cl
ATOM      9  C   UNL     1      46.959   7.033  13.060  0.00  0.00    +0.000 A 
ATOM     10  C   UNL     1      45.993   6.019  13.050  0.00  0.00    +0.000 A 
BRANCH   9  11
ATOM     11  O   UNL     1      48.208   6.817  13.599  0.00  0.00    +0.000 OA
BRANCH  11  12
ATOM     12  C   UNL     1      48.401   6.837  14.918  0.00  0.00    +0.000 A 
ATOM     13  C   UNL     1      48.577   5.877  15.893  0.00  0.00    +0.000 A 
ATOM     14  C   UNL     1      48.753   6.601  17.087  0.00  0.00    +0.000 A 
ATOM     15  N   UNL     1      48.679   7.920  16.898  0.00  0.00    +0.000 NA
ATOM     16  N   UNL     1      48.433   8.035  15.580  0.00  0.00    +0.000 N 
ATOM     17  H   UNL     1      48.328   8.960  15.181  0.00  0.00    +0.000 HD
ENDBRANCH  11  12
ENDBRANCH   9  11
ENDBRANCH   1   4
BRANCH   1  18
ATOM     18  C   UNL     1      43.292   4.901  10.903  0.00  0.00    +0.000 C 
BRANCH  18  23
ATOM     19  C   UNL     1      46.459   2.422   7.706  0.00  0.00    +0.000 A 
ATOM     20  C   UNL     1      45.615   1.949   8.703  0.00  0.00    +0.000 A 
ATOM     21  C   UNL     1      44.886   2.864   9.464  0.00  0.00    +0.000 A 
ATOM     22  C   UNL     1      45.008   4.229   9.216  0.00  0.00    +0.000 A 
ATOM     23  N   UNL     1      44.329   5.185   9.919  0.00  0.00    +0.000 N 
ATOM     24  N   UNL     1      45.835   4.695   8.263  0.00  0.00    +0.000 NA
ATOM     25  C   UNL     1      46.551   3.794   7.539  0.00  0.00    +0.000 A 
ATOM     26  H   UNL     1      44.474   6.134   9.588  0.00  0.00    +0.000 HD
BRANCH  19  28
ATOM     27  N   UNL     1      48.298   2.100   6.157  0.00  0.00    +0.000 N 
ATOM     28  C   UNL     1      47.265   1.531   6.848  0.00  0.00    +0.000 C 
ATOM     29  O   UNL     1      47.045   0.329   6.784  0.00  0.00    +0.000 OA
ATOM     30  H   UNL     1      48.909   1.463   5.660  0.00  0.00    +0.000 HD
ATOM     31  H   UNL     1      48.663   3.016   6.377  0.00  0.00    +0.000 HD
ENDBRANCH  19  28
ENDBRANCH  18  23
ENDBRANCH   1  18
TORSDOF 6
ENDMDL
MODEL 6
REMARK VINA RESULT:    -7.666      3.182      8.228
REMARK INTER + INTRA:         -11.278
REMARK INTER:                 -10.228
REMARK INTRA:                  -1.050
REMARK UNBOUND:                -0.922
REMARK  Name = 
REMARK  6 active torsions:
REMARK  status: ('A' for Active; 'I' for Inactive)
REMARK    1  A    between atoms: C_2  and  C_4
REMARK    2  A    between atoms: N_8  and  C_9
REMARK    3  A    between atoms: C_9  and  C_10
REMARK    4  A    between atoms: C_10  and  C_13
REMARK    5  A    between atoms: C_18  and  O_19
REMARK    6  A    between atoms: O_19  and  C_20
REMARK                            x       y       z     vdW  Elec       q    Type
REMARK                         _______ _______ _______ _____ _____    ______ ____
ROOT
ATOM      1  C   UNL     1      47.315   6.912  12.275  0.00  0.00    +0.000 C 
ATOM      2  F   UNL     1      46.890   8.077  12.840  0.00  0.00    +0.000 F 
ATOM      3  F   UNL     1      47.854   7.264  11.071  0.00  0.00    +0.000 F 
ENDROOT
BRANCH   1   4
ATOM      4  C   UNL     1      46.190   5.904  12.121  0.00  0.00    +0.000 A 
ATOM      5  C   UNL     1      45.596   5.307  13.242  0.00  0.00    +0.000 A 
ATOM      6  C   UNL     1      44.639   4.301  13.082  0.00  0.00    +0.000 A 
ATOM      7  C   UNL     1      44.252   3.897  11.801  0.00  0.00    +0.000 A 
ATOM      8 CL   UNL     1      43.107   2.614  11.655  0.00  0.00    +0.000 Cl
ATOM      9  C   UNL     1      44.804   4.515  10.675  0.00  0.00    +0.000 A 
ATOM     10  C   UNL     1      45.788   5.498  10.841  0.00  0.00    +0.000 A 
BRANCH   9  11
ATOM     11  O   UNL     1      44.451   4.068   9.421  0.00  0.00    +0.000 OA
BRANCH  11  12
ATOM     12  C   UNL     1      45.244   3.241   8.738  0.00  0.00    +0.000 A 
ATOM     13  C   UNL     1      46.101   3.375   7.665  0.00  0.00    +0.000 A 
ATOM     14  C   UNL     1      46.645   2.091   7.473  0.00  0.00    +0.000 A 
ATOM     15  N   UNL     1      46.163   1.199   8.342  0.00  0.00    +0.000 NA
ATOM     16  N   UNL     1      45.292   1.916   9.076  0.00  0.00    +0.000 N 
ATOM     17  H   UNL     1      44.782   1.452   9.818  0.00  0.00    +0.000 HD
ENDBRANCH  11  12
ENDBRANCH   9  11
ENDBRANCH   1   4
BRANCH   1  18
ATOM     18  C   UNL     1      48.427   6.292  13.157  0.00  0.00    +0.000 C 
BRANCH  18  23
ATOM     19  C   UNL     1      48.307   5.416  18.218  0.00  0.00    +0.000 A 
ATOM     20  C   UNL     1      47.906   4.628  17.146  0.00  0.00    +0.000 A 
ATOM     21  C   UNL     1      48.013   5.141  15.852  0.00  0.00    +0.000 A 
ATOM     22  C   UNL     1      48.519   6.422  15.650  0.00  0.00    +0.000 A 
ATOM     23  N   UNL     1      48.651   6.992  14.415  0.00  0.00    +0.000 N 
ATOM     24  N   UNL     1      48.894   7.196  16.684  0.00  0.00    +0.000 NA
ATOM     25  C   UNL     1      48.771   6.691  17.941  0.00  0.00    +0.000 A 
ATOM     26  H   UNL     1      49.089   7.909  14.419  0.00  0.00    +0.000 HD
BRANCH  19  28
ATOM     27  N   UNL     1      48.566   3.655  19.867  0.00  0.00    +0.000 N 
ATOM     28  C   UNL     1      48.236   4.959  19.620  0.00  0.00    +0.000 C 
ATOM     29  O   UNL     1      47.930   5.719  20.528  0.00  0.00    +0.000 OA
ATOM     30  H   UNL     1      48.619   3.384  20.842  0.00  0.00    +0.000 HD
ATOM     31  H   UNL     1      49.059   3.081  19.198  0.00  0.00    +0.000 HD
ENDBRANCH  19  28
ENDBRANCH  18  23
ENDBRANCH   1  18
TORSDOF 6
ENDMDL
MODEL 7
REMARK VINA RESULT:    -7.469      3.400      4.651
REMARK INTER + INTRA:         -11.012
REMARK INTER:                  -9.937
REMARK INTRA:                  -1.075
REMARK UNBOUND:                -0.922
REMARK  Name = 
REMARK  6 active torsions:
REMARK  status: ('A' for Active; 'I' for Inactive)
REMARK    1  A    between atoms: C_2  and  C_4
REMARK    2  A    between atoms: N_8  and  C_9
REMARK    3  A    between atoms: C_9  and  C_10
REMARK    4  A    between atoms: C_10  and  C_13
REMARK    5  A    between atoms: C_18  and  O_19
REMARK    6  A    between atoms: O_19  and  C_20
REMARK                            x       y       z     vdW  Elec       q    Type
REMARK                         _______ _______ _______ _____ _____    ______ ____
ROOT
ATOM      1  C   UNL     1      48.017   8.508  12.671  0.00  0.00    +0.000 C 
ATOM      2  F   UNL     1      48.419   7.480  11.872  0.00  0.00    +0.000 F 
ATOM      3  F   UNL     1      48.724   9.597  12.249  0.00  0.00    +0.000 F 
ENDROOT
BRANCH   1   4
ATOM      4  C   UNL     1      48.247   8.216  14.143  0.00  0.00    +0.000 A 
ATOM      5  C   UNL     1      48.119   9.223  15.109  0.00  0.00    +0.000 A 
ATOM      6  C   UNL     1      48.441   8.966  16.445  0.00  0.00    +0.000 A 
ATOM      7  C   UNL     1      48.874   7.694  16.830  0.00  0.00    +0.000 A 
ATOM      8 CL   UNL     1      49.312   7.440  18.480  0.00  0.00    +0.000 Cl
ATOM      9  C   UNL     1      48.965   6.668  15.885  0.00  0.00    +0.000 A 
ATOM     10  C   UNL     1      48.673   6.940  14.542  0.00  0.00    +0.000 A 
BRANCH   9  11
ATOM     11  O   UNL     1      49.444   5.437  16.271  0.00  0.00    +0.000 OA
BRANCH  11  12
ATOM     12  C   UNL     1      48.625   4.501  16.755  0.00  0.00    +0.000 A 
ATOM     13  C   UNL     1      48.771   3.412  17.588  0.00  0.00    +0.000 A 
ATOM     14  C   UNL     1      47.479   2.867  17.703  0.00  0.00    +0.000 A 
ATOM     15  N   UNL     1      46.577   3.542  16.988  0.00  0.00    +0.000 NA
ATOM     16  N   UNL     1      47.304   4.508  16.397  0.00  0.00    +0.000 N 
ATOM     17  H   UNL     1      46.836   5.165  15.784  0.00  0.00    +0.000 HD
ENDBRANCH  11  12
ENDBRANCH   9  11
ENDBRANCH   1   4
BRANCH   1  18
ATOM     18  C   UNL     1      46.508   8.774  12.443  0.00  0.00    +0.000 C 
BRANCH  18  23
ATOM     19  C   UNL     1      44.359   4.208  11.486  0.00  0.00    +0.000 A 
ATOM     20  C   UNL     1      45.078   5.067  10.665  0.00  0.00    +0.000 A 
ATOM     21  C   UNL     1      45.516   6.287  11.181  0.00  0.00    +0.000 A 
ATOM     22  C   UNL     1      45.235   6.626  12.503  0.00  0.00    +0.000 A 
ATOM     23  N   UNL     1      45.628   7.803  13.077  0.00  0.00    +0.000 N 
ATOM     24  N   UNL     1      44.525   5.806  13.298  0.00  0.00    +0.000 NA
ATOM     25  C   UNL     1      44.090   4.627  12.779  0.00  0.00    +0.000 A 
ATOM     26  H   UNL     1      45.400   7.886  14.063  0.00  0.00    +0.000 HD
BRANCH  19  28
ATOM     27  N   UNL     1      44.467   2.341   9.939  0.00  0.00    +0.000 N 
ATOM     28  C   UNL     1      43.858   2.895  11.031  0.00  0.00    +0.000 C 
ATOM     29  O   UNL     1      42.963   2.309  11.624  0.00  0.00    +0.000 OA
ATOM     30  H   UNL     1      44.189   1.396   9.704  0.00  0.00    +0.000 HD
ATOM     31  H   UNL     1      45.357   2.666   9.588  0.00  0.00    +0.000 HD
ENDBRANCH  19  28
ENDBRANCH  18  23
ENDBRANCH   1  18
TORSDOF 6
ENDMDL
MODEL 8
REMARK VINA RESULT:    -7.383      3.577      5.264
REMARK INTER + INTRA:         -10.895
REMARK INTER:                  -9.723
REMARK INTRA:                  -1.172
REMARK UNBOUND:                -0.922
REMARK  Name = 
REMARK  6 active torsions:
REMARK  status: ('A' for Active; 'I' for Inactive)
REMARK    1  A    between atoms: C_2  and  C_4
REMARK    2  A    between atoms: N_8  and  C_9
REMARK    3  A    between atoms: C_9  and  C_10
REMARK    4  A    between atoms: C_10  and  C_13
REMARK    5  A    between atoms: C_18  and  O_19
REMARK    6  A    between atoms: O_19  and  C_20
REMARK                            x       y       z     vdW  Elec       q    Type
REMARK                         _______ _______ _______ _____ _____    ______ ____
ROOT
ATOM      1  C   UNL     1      49.068   7.700  14.075  0.00  0.00    +0.000 C 
ATOM      2  F   UNL     1      49.361   6.579  13.356  0.00  0.00    +0.000 F 
ATOM      3  F   UNL     1      50.161   8.509  13.954  0.00  0.00    +0.000 F 
ENDROOT
BRANCH   1   4
ATOM      4  C   UNL     1      48.753   7.384  15.526  0.00  0.00    +0.000 A 
ATOM      5  C   UNL     1      48.785   8.385  16.507  0.00  0.00    +0.000 A 
ATOM      6  C   UNL     1      48.601   8.060  17.854  0.00  0.00    +0.000 A 
ATOM      7  C   UNL     1      48.362   6.735  18.230  0.00  0.00    +0.000 A 
ATOM      8 CL   UNL     1      48.196   6.375  19.910  0.00  0.00    +0.000 Cl
ATOM      9  C   UNL     1      48.285   5.734  17.258  0.00  0.00    +0.000 A 
ATOM     10  C   UNL     1      48.504   6.059  15.913  0.00  0.00    +0.000 A 
BRANCH   9  11
ATOM     11  O   UNL     1      48.103   4.426  17.651  0.00  0.00    +0.000 OA
BRANCH  11  12
ATOM     12  C   UNL     1      48.995   3.485  17.340  0.00  0.00    +0.000 A 
ATOM     13  C   UNL     1      50.294   3.211  17.713  0.00  0.00    +0.000 A 
ATOM     14  C   UNL     1      50.632   2.036  17.014  0.00  0.00    +0.000 A 
ATOM     15  N   UNL     1      49.635   1.600  16.241  0.00  0.00    +0.000 NA
ATOM     16  N   UNL     1      48.667   2.515  16.432  0.00  0.00    +0.000 N 
ATOM     17  H   UNL     1      47.788   2.406  15.940  0.00  0.00    +0.000 HD
ENDBRANCH  11  12
ENDBRANCH   9  11
ENDBRANCH   1   4
BRANCH   1  18
ATOM     18  C   UNL     1      47.847   8.410  13.439  0.00  0.00    +0.000 C 
BRANCH  18  23
ATOM     19  C   UNL     1      44.753   5.117  10.997  0.00  0.00    +0.000 A 
ATOM     20  C   UNL     1      45.885   5.796  10.565  0.00  0.00    +0.000 A 
ATOM     21  C   UNL     1      46.519   6.680  11.440  0.00  0.00    +0.000 A 
ATOM     22  C   UNL     1      46.018   6.866  12.726  0.00  0.00    +0.000 A 
ATOM     23  N   UNL     1      46.582   7.715  13.636  0.00  0.00    +0.000 N 
ATOM     24  N   UNL     1      44.913   6.224  13.145  0.00  0.00    +0.000 NA
ATOM     25  C   UNL     1      44.296   5.377  12.278  0.00  0.00    +0.000 A 
ATOM     26  H   UNL     1      46.142   7.704  14.551  0.00  0.00    +0.000 HD
BRANCH  19  28
ATOM     27  N   UNL     1      44.103   4.338   8.793  0.00  0.00    +0.000 N 
ATOM     28  C   UNL     1      44.019   4.159  10.146  0.00  0.00    +0.000 C 
ATOM     29  O   UNL     1      43.391   3.225  10.625  0.00  0.00    +0.000 OA
ATOM     30  H   UNL     1      43.686   3.614   8.220  0.00  0.00    +0.000 HD
ATOM     31  H   UNL     1      44.802   4.926   8.363  0.00  0.00    +0.000 HD
ENDBRANCH  19  28
ENDBRANCH  18  23
ENDBRANCH   1  18
TORSDOF 6
ENDMDL
