MODEL 1
REMARK VINA RESULT:    -9.542      0.000      0.000
REMARK INTER + INTRA:         -11.806
REMARK INTER:                 -11.773
REMARK INTRA:                  -0.033
REMARK UNBOUND:                -0.033
REMARK  Name = 
REMARK  4 active torsions:
REMARK  status: ('A' for Active; 'I' for Inactive)
REMARK    1  A    between atoms: C_2  and  C_4
REMARK    2  A    between atoms: N_8  and  C_9
REMARK    3  A    between atoms: C_9  and  C_10
REMARK    4  A    between atoms: C_12  and  C_13
REMARK                            x       y       z     vdW  Elec       q    Type
REMARK                         _______ _______ _______ _____ _____    ______ ____
ROOT
ATOM      1  C   UNL     1      43.881   4.727  11.596  0.00  0.00    +0.000 C 
ATOM      2  C   UNL     1      42.554   5.141  12.208  0.00  0.00    +0.000 C 
ATOM      3  C   UNL     1      43.069   5.881  11.017  0.00  0.00    +0.000 C 
ENDROOT
BRANCH   1   8
ATOM      4  C   UNL     1      46.431   2.767   7.575  0.00  0.00    +0.000 A 
ATOM      5  C   UNL     1      46.068   4.082   7.851  0.00  0.00    +0.000 A 
ATOM      6  C   UNL     1      45.222   4.342   8.933  0.00  0.00    +0.000 A 
ATOM      7  C   UNL     1      44.773   3.287   9.724  0.00  0.00    +0.000 A 
ATOM      8  N   UNL     1      43.945   3.467  10.834  0.00  0.00    +0.000 N 
ATOM      9  N   UNL     1      45.097   2.006   9.447  0.00  0.00    +0.000 NA
ATOM     10  C   UNL     1      45.905   1.770   8.382  0.00  0.00    +0.000 A 
ATOM     11  H   UNL     1      43.861   2.578  11.316  0.00  0.00    +0.000 HD
BRANCH   4  13
ATOM     12  N   UNL     1      47.339   3.196   5.364  0.00  0.00    +0.000 N 
ATOM     13  C   UNL     1      47.331   2.388   6.467  0.00  0.00    +0.000 C 
ATOM     14  O   UNL     1      48.070   1.416   6.545  0.00  0.00    +0.000 OA
ATOM     15  H   UNL     1      48.036   2.990   4.659  0.00  0.00    +0.000 HD
ATOM     16  H   UNL     1      46.939   4.124   5.366  0.00  0.00    +0.000 HD
ENDBRANCH   4  13
ENDBRANCH   1   8
BRANCH   1  17
ATOM     17  C   UNL     1      45.204   5.151  12.258  0.00  0.00    +0.000 A 
ATOM     18  C   UNL     1      45.612   4.538  13.449  0.00  0.00    +0.000 A 
ATOM     19  C   UNL     1      46.849   4.841  14.037  0.00  0.00    +0.000 A 
ATOM     20  C   UNL     1      47.653   5.767  13.368  0.00  0.00    +0.000 A 
ATOM     21  C   UNL     1      47.188   6.352  12.204  0.00  0.00    +0.000 A 
ATOM     22  N   UNL     1      45.989   6.077  11.650  0.00  0.00    +0.000 NA
BRANCH  19  23
ATOM     23  C   UNL     1      47.305   4.196  15.285  0.00  0.00    +0.000 A 
ATOM     24  C   UNL     1      47.155   4.779  16.545  0.00  0.00    +0.000 A 
ATOM     25  C   UNL     1      47.601   4.095  17.674  0.00  0.00    +0.000 A 
ATOM     26  C   UNL     1      48.191   2.848  17.527  0.00  0.00    +0.000 A 
ATOM     27  C   UNL     1      48.314   2.337  16.247  0.00  0.00    +0.000 A 
ATOM     28  N   UNL     1      47.893   2.981  15.136  0.00  0.00    +0.000 NA
ENDBRANCH  19  23
ENDBRANCH   1  17
TORSDOF 4
ENDMDL
MODEL 2
REMARK VINA RESULT:    -9.230      1.700      3.769
REMARK INTER + INTRA:         -11.422
REMARK INTER:                 -11.383
REMARK INTRA:                  -0.039
REMARK UNBOUND:                -0.033
REMARK  Name = 
REMARK  4 active torsions:
REMARK  status: ('A' for Active; 'I' for Inactive)
REMARK    1  A    between atoms: C_2  and  C_4
REMARK    2  A    between atoms: N_8  and  C_9
REMARK    3  A    between atoms: C_9  and  C_10
REMARK    4  A    between atoms: C_12  and  C_13
REMARK                            x       y       z     vdW  Elec       q    Type
REMARK                         _______ _______ _______ _____ _____    ______ ____
ROOT
ATOM      1  C   UNL     1      43.902   4.678  11.638  0.00  0.00    +0.000 C 
ATOM      2  C   UNL     1      42.588   5.142  12.239  0.00  0.00    +0.000 C 
ATOM      3  C   UNL     1      43.169   5.897  11.088  0.00  0.00    +0.000 C 
ENDROOT
BRANCH   1   8
ATOM      4  C   UNL     1      46.411   2.742   7.578  0.00  0.00    +0.000 A 
ATOM      5  C   UNL     1      46.112   4.064   7.900  0.00  0.00    +0.000 A 
ATOM      6  C   UNL     1      45.264   4.325   8.979  0.00  0.00    +0.000 A 
ATOM      7  C   UNL     1      44.747   3.266   9.723  0.00  0.00    +0.000 A 
ATOM      8  N   UNL     1      43.913   3.446  10.828  0.00  0.00    +0.000 N 
ATOM      9  N   UNL     1      45.010   1.982   9.400  0.00  0.00    +0.000 NA
ATOM     10  C   UNL     1      45.820   1.745   8.338  0.00  0.00    +0.000 A 
ATOM     11  H   UNL     1      43.776   2.545  11.272  0.00  0.00    +0.000 HD
BRANCH   4  13
ATOM     12  N   UNL     1      47.319   3.170   5.366  0.00  0.00    +0.000 N 
ATOM     13  C   UNL     1      47.307   2.360   6.468  0.00  0.00    +0.000 C 
ATOM     14  O   UNL     1      48.040   1.383   6.543  0.00  0.00    +0.000 OA
ATOM     15  H   UNL     1      48.014   2.961   4.661  0.00  0.00    +0.000 HD
ATOM     16  H   UNL     1      46.926   4.101   5.371  0.00  0.00    +0.000 HD
ENDBRANCH   4  13
ENDBRANCH   1   8
BRANCH   1  17
ATOM     17  C   UNL     1      45.232   5.000  12.341  0.00  0.00    +0.000 A 
ATOM     18  C   UNL     1      45.981   6.111  11.934  0.00  0.00    +0.000 A 
ATOM     19  C   UNL     1      47.156   6.482  12.604  0.00  0.00    +0.000 A 
ATOM     20  C   UNL     1      47.528   5.701  13.701  0.00  0.00    +0.000 A 
ATOM     21  C   UNL     1      46.756   4.606  14.045  0.00  0.00    +0.000 A 
ATOM     22  N   UNL     1      45.638   4.235  13.388  0.00  0.00    +0.000 NA
BRANCH  19  23
ATOM     23  C   UNL     1      47.954   7.658  12.200  0.00  0.00    +0.000 A 
ATOM     24  C   UNL     1      49.305   7.581  11.854  0.00  0.00    +0.000 A 
ATOM     25  C   UNL     1      49.980   8.739  11.470  0.00  0.00    +0.000 A 
ATOM     26  C   UNL     1      49.299   9.947  11.442  0.00  0.00    +0.000 A 
ATOM     27  C   UNL     1      47.965   9.948  11.806  0.00  0.00    +0.000 A 
ATOM     28  N   UNL     1      47.288   8.841  12.185  0.00  0.00    +0.000 NA
ENDBRANCH  19  23
ENDBRANCH   1  17
TORSDOF 4
ENDMDL
MODEL 3
REMARK VINA RESULT:    -7.763      3.105      7.615
REMARK INTER + INTRA:          -9.611
REMARK INTER:                  -9.198
REMARK INTRA:                  -0.413
REMARK UNBOUND:                -0.033
REMARK  Name = 
REMARK  4 active torsions:
REMARK  status: ('A' for Active; 'I' for Inactive)
REMARK    1  A    between atoms: C_2  and  C_4
REMARK    2  A    between atoms: N_8  and  C_9
REMARK    3  A    between atoms: C_9  and  C_10
REMARK    4  A    between atoms: C_12  and  C_13
REMARK                            x       y       z     vdW  Elec       q    Type
REMARK                         _______ _______ _______ _____ _____    ______ ____
ROOT
ATOM      1  C   UNL     1      48.520   7.766  12.799  0.00  0.00    +0.000 C 
ATOM      2  C   UNL     1      49.749   7.321  12.024  0.00  0.00    +0.000 C 
ATOM      3  C   UNL     1      49.393   8.771  12.055  0.00  0.00    +0.000 C 
ENDROOT
BRANCH   1   8
ATOM      4  C   UNL     1      47.885   4.418  16.660  0.00  0.00    +0.000 A 
ATOM      5  C   UNL     1      47.302   4.449  15.396  0.00  0.00    +0.000 A 
ATOM      6  C   UNL     1      47.506   5.565  14.580  0.00  0.00    +0.000 A 
ATOM      7  C   UNL     1      48.300   6.616  15.035  0.00  0.00    +0.000 A 
ATOM      8  N   UNL     1      48.570   7.753  14.272  0.00  0.00    +0.000 N 
ATOM      9  N   UNL     1      48.846   6.606  16.270  0.00  0.00    +0.000 NA
ATOM     10  C   UNL     1      48.623   5.523  17.057  0.00  0.00    +0.000 A 
ATOM     11  H   UNL     1      49.265   8.307  14.761  0.00  0.00    +0.000 HD
BRANCH   4  13
ATOM     12  N   UNL     1      48.788   3.033  18.440  0.00  0.00    +0.000 N 
ATOM     13  C   UNL     1      47.744   3.281  17.592  0.00  0.00    +0.000 C 
ATOM     14  O   UNL     1      46.720   2.612  17.636  0.00  0.00    +0.000 OA
ATOM     15  H   UNL     1      48.637   2.324  19.146  0.00  0.00    +0.000 HD
ATOM     16  H   UNL     1      49.527   3.703  18.603  0.00  0.00    +0.000 HD
ENDBRANCH   4  13
ENDBRANCH   1   8
BRANCH   1  17
ATOM     17  C   UNL     1      47.117   7.577  12.198  0.00  0.00    +0.000 A 
ATOM     18  C   UNL     1      46.825   6.419  11.465  0.00  0.00    +0.000 A 
ATOM     19  C   UNL     1      45.535   6.175  10.971  0.00  0.00    +0.000 A 
ATOM     20  C   UNL     1      44.560   7.133  11.261  0.00  0.00    +0.000 A 
ATOM     21  C   UNL     1      44.912   8.264  11.974  0.00  0.00    +0.000 A 
ATOM     22  N   UNL     1      46.158   8.510  12.430  0.00  0.00    +0.000 NA
BRANCH  19  23
ATOM     23  C   UNL     1      45.203   4.955  10.209  0.00  0.00    +0.000 A 
ATOM     24  C   UNL     1      45.562   4.768   8.872  0.00  0.00    +0.000 A 
ATOM     25  C   UNL     1      45.220   3.579   8.231  0.00  0.00    +0.000 A 
ATOM     26  C   UNL     1      44.527   2.602   8.931  0.00  0.00    +0.000 A 
ATOM     27  C   UNL     1      44.198   2.860  10.249  0.00  0.00    +0.000 A 
ATOM     28  N   UNL     1      44.513   4.006  10.893  0.00  0.00    +0.000 NA
ENDBRANCH  19  23
ENDBRANCH   1  17
TORSDOF 4
ENDMDL
MODEL 4
REMARK VINA RESULT:    -7.461      3.521      7.258
REMARK INTER + INTRA:          -9.238
REMARK INTER:                  -9.259
REMARK INTRA:                   0.021
REMARK UNBOUND:                -0.033
REMARK  Name = 
REMARK  4 active torsions:
REMARK  status: ('A' for Active; 'I' for Inactive)
REMARK    1  A    between atoms: C_2  and  C_4
REMARK    2  A    between atoms: N_8  and  C_9
REMARK    3  A    between atoms: C_9  and  C_10
REMARK    4  A    between atoms: C_12  and  C_13
REMARK                            x       y       z     vdW  Elec       q    Type
REMARK                         _______ _______ _______ _____ _____    ______ ____
ROOT
ATOM      1  C   UNL     1      45.423   6.122  12.126  0.00  0.00    +0.000 C 
ATOM      2  C   UNL     1      45.255   7.495  11.501  0.00  0.00    +0.000 C 
ATOM      3  C   UNL     1      44.327   7.073  12.593  0.00  0.00    +0.000 C 
ENDROOT
BRANCH   1   8
ATOM      4  C   UNL     1      50.168   7.973  12.891  0.00  0.00    +0.000 A 
ATOM      5  C   UNL     1      49.414   7.894  11.723  0.00  0.00    +0.000 A 
ATOM      6  C   UNL     1      48.208   7.188  11.737  0.00  0.00    +0.000 A 
ATOM      7  C   UNL     1      47.774   6.590  12.918  0.00  0.00    +0.000 A 
ATOM      8  N   UNL     1      46.572   5.887  13.020  0.00  0.00    +0.000 N 
ATOM      9  N   UNL     1      48.512   6.637  14.048  0.00  0.00    +0.000 NA
ATOM     10  C   UNL     1      49.689   7.313  14.012  0.00  0.00    +0.000 A 
ATOM     11  H   UNL     1      46.417   5.661  13.997  0.00  0.00    +0.000 HD
BRANCH   4  13
ATOM     12  N   UNL     1      52.593   7.964  13.014  0.00  0.00    +0.000 N 
ATOM     13  C   UNL     1      51.446   8.707  12.985  0.00  0.00    +0.000 C 
ATOM     14  O   UNL     1      51.483   9.930  12.994  0.00  0.00    +0.000 OA
ATOM     15  H   UNL     1      53.464   8.478  12.967  0.00  0.00    +0.000 HD
ATOM     16  H   UNL     1      52.615   6.986  12.760  0.00  0.00    +0.000 HD
ENDBRANCH   4  13
ENDBRANCH   1   8
BRANCH   1  17
ATOM     17  C   UNL     1      44.908   4.870  11.394  0.00  0.00    +0.000 A 
ATOM     18  C   UNL     1      45.552   4.433  10.229  0.00  0.00    +0.000 A 
ATOM     19  C   UNL     1      45.161   3.253   9.581  0.00  0.00    +0.000 A 
ATOM     20  C   UNL     1      44.115   2.532  10.163  0.00  0.00    +0.000 A 
ATOM     21  C   UNL     1      43.507   3.023  11.304  0.00  0.00    +0.000 A 
ATOM     22  N   UNL     1      43.868   4.170  11.916  0.00  0.00    +0.000 NA
BRANCH  19  23
ATOM     23  C   UNL     1      45.835   2.766   8.360  0.00  0.00    +0.000 A 
ATOM     24  C   UNL     1      46.006   3.551   7.217  0.00  0.00    +0.000 A 
ATOM     25  C   UNL     1      46.666   3.018   6.112  0.00  0.00    +0.000 A 
ATOM     26  C   UNL     1      47.141   1.715   6.165  0.00  0.00    +0.000 A 
ATOM     27  C   UNL     1      46.928   0.995   7.326  0.00  0.00    +0.000 A 
ATOM     28  N   UNL     1      46.287   1.487   8.410  0.00  0.00    +0.000 NA
ENDBRANCH  19  23
ENDBRANCH   1  17
TORSDOF 4
ENDMDL
MODEL 5
REMARK VINA RESULT:    -7.285      4.274      8.722
REMARK INTER + INTRA:          -9.022
REMARK INTER:                  -8.787
REMARK INTRA:                  -0.235
REMARK UNBOUND:                -0.033
REMARK  Name = 
REMARK  4 active torsions:
REMARK  status: ('A' for Active; 'I' for Inactive)
REMARK    1  A    between atoms: C_2  and  C_4
REMARK    2  A    between atoms: N_8  and  C_9
REMARK    3  A    between atoms: C_9  and  C_10
REMARK    4  A    between atoms: C_12  and  C_13
REMARK                            x       y       z     vdW  Elec       q    Type
REMARK                         _______ _______ _______ _____ _____    ______ ____
ROOT
ATOM      1  C   UNL     1      48.237   3.342  16.936  0.00  0.00    +0.000 C 
ATOM      2  C   UNL     1      48.070   3.783  18.380  0.00  0.00    +0.000 C 
ATOM      3  C   UNL     1      47.000   2.959  17.741  0.00  0.00    +0.000 C 
ENDROOT
BRANCH   1   8
ATOM      4  C   UNL     1      53.065   2.076  18.203  0.00  0.00    +0.000 A 
ATOM      5  C   UNL     1      52.457   3.326  18.129  0.00  0.00    +0.000 A 
ATOM      6  C   UNL     1      51.171   3.426  17.591  0.00  0.00    +0.000 A 
ATOM      7  C   UNL     1      50.515   2.277  17.155  0.00  0.00    +0.000 A 
ATOM      8  N   UNL     1      49.223   2.291  16.627  0.00  0.00    +0.000 N 
ATOM      9  N   UNL     1      51.108   1.065  17.197  0.00  0.00    +0.000 NA
ATOM     10  C   UNL     1      52.365   0.988  17.706  0.00  0.00    +0.000 A 
ATOM     11  H   UNL     1      48.919   1.330  16.504  0.00  0.00    +0.000 HD
BRANCH   4  13
ATOM     12  N   UNL     1      55.481   2.145  17.963  0.00  0.00    +0.000 N 
ATOM     13  C   UNL     1      54.413   1.861  18.768  0.00  0.00    +0.000 C 
ATOM     14  O   UNL     1      54.572   1.483  19.921  0.00  0.00    +0.000 OA
ATOM     15  H   UNL     1      56.396   2.100  18.395  0.00  0.00    +0.000 HD
ATOM     16  H   UNL     1      55.394   2.686  17.114  0.00  0.00    +0.000 HD
ENDBRANCH   4  13
ENDBRANCH   1   8
BRANCH   1  17
ATOM     17  C   UNL     1      47.967   4.331  15.789  0.00  0.00    +0.000 A 
ATOM     18  C   UNL     1      46.996   4.028  14.826  0.00  0.00    +0.000 A 
ATOM     19  C   UNL     1      46.666   4.941  13.813  0.00  0.00    +0.000 A 
ATOM     20  C   UNL     1      47.340   6.165  13.825  0.00  0.00    +0.000 A 
ATOM     21  C   UNL     1      48.300   6.400  14.792  0.00  0.00    +0.000 A 
ATOM     22  N   UNL     1      48.634   5.514  15.754  0.00  0.00    +0.000 NA
BRANCH  19  23
ATOM     23  C   UNL     1      45.636   4.648  12.795  0.00  0.00    +0.000 A 
ATOM     24  C   UNL     1      45.550   5.327  11.578  0.00  0.00    +0.000 A 
ATOM     25  C   UNL     1      44.555   4.978  10.667  0.00  0.00    +0.000 A 
ATOM     26  C   UNL     1      43.665   3.962  10.987  0.00  0.00    +0.000 A 
ATOM     27  C   UNL     1      43.806   3.340  12.214  0.00  0.00    +0.000 A 
ATOM     28  N   UNL     1      44.759   3.661  13.116  0.00  0.00    +0.000 NA
ENDBRANCH  19  23
ENDBRANCH   1  17
TORSDOF 4
ENDMDL
MODEL 6
REMARK VINA RESULT:    -6.731      4.015      7.405
REMARK INTER + INTRA:          -8.338
REMARK INTER:                  -7.966
REMARK INTRA:                  -0.372
REMARK UNBOUND:                -0.033
REMARK  Name = 
REMARK  4 active torsions:
REMARK  status: ('A' for Active; 'I' for Inactive)
REMARK    1  A    between atoms: C_2  and  C_4
REMARK    2  A    between atoms: N_8  and  C_9
REMARK    3  A    between atoms: C_9  and  C_10
REMARK    4  A    between atoms: C_12  and  C_13
REMARK                            x       y       z     vdW  Elec       q    Type
REMARK                         _______ _______ _______ _____ _____    ______ ____
ROOT
ATOM      1  C   UNL     1      45.741   4.571  12.886  0.00  0.00    +0.000 C 
ATOM      2  C   UNL     1      44.302   4.141  13.105  0.00  0.00    +0.000 C 
ATOM      3  C   UNL     1      44.905   4.000  11.746  0.00  0.00    +0.000 C 
ENDROOT
BRANCH   1   8
ATOM      4  C   UNL     1      48.204   3.926  17.363  0.00  0.00    +0.000 A 
ATOM      5  C   UNL     1      47.610   5.064  16.822  0.00  0.00    +0.000 A 
ATOM      6  C   UNL     1      47.149   5.030  15.503  0.00  0.00    +0.000 A 
ATOM      7  C   UNL     1      47.276   3.859  14.760  0.00  0.00    +0.000 A 
ATOM      8  N   UNL     1      46.821   3.738  13.445  0.00  0.00    +0.000 N 
ATOM      9  N   UNL     1      47.876   2.760  15.266  0.00  0.00    +0.000 NA
ATOM     10  C   UNL     1      48.334   2.817  16.543  0.00  0.00    +0.000 A 
ATOM     11  H   UNL     1      46.909   2.766  13.166  0.00  0.00    +0.000 HD
BRANCH   4  13
ATOM     12  N   UNL     1      48.198   2.870  19.550  0.00  0.00    +0.000 N 
ATOM     13  C   UNL     1      48.708   3.854  18.749  0.00  0.00    +0.000 C 
ATOM     14  O   UNL     1      49.577   4.614  19.155  0.00  0.00    +0.000 OA
ATOM     15  H   UNL     1      48.629   2.760  20.459  0.00  0.00    +0.000 HD
ATOM     16  H   UNL     1      47.678   2.085  19.183  0.00  0.00    +0.000 HD
ENDBRANCH   4  13
ENDBRANCH   1   8
BRANCH   1  17
ATOM     17  C   UNL     1      46.089   6.062  12.733  0.00  0.00    +0.000 A 
ATOM     18  C   UNL     1      47.380   6.437  12.341  0.00  0.00    +0.000 A 
ATOM     19  C   UNL     1      47.710   7.782  12.114  0.00  0.00    +0.000 A 
ATOM     20  C   UNL     1      46.687   8.718  12.283  0.00  0.00    +0.000 A 
ATOM     21  C   UNL     1      45.436   8.288  12.688  0.00  0.00    +0.000 A 
ATOM     22  N   UNL     1      45.124   6.998  12.928  0.00  0.00    +0.000 NA
BRANCH  19  23
ATOM     23  C   UNL     1      49.061   8.198  11.686  0.00  0.00    +0.000 A 
ATOM     24  C   UNL     1      50.056   7.293  11.310  0.00  0.00    +0.000 A 
ATOM     25  C   UNL     1      51.301   7.773  10.906  0.00  0.00    +0.000 A 
ATOM     26  C   UNL     1      51.531   9.141  10.886  0.00  0.00    +0.000 A 
ATOM     27  C   UNL     1      50.501   9.976  11.280  0.00  0.00    +0.000 A 
ATOM     28  N   UNL     1      49.287   9.538  11.680  0.00  0.00    +0.000 NA
ENDBRANCH  19  23
ENDBRANCH   1  17
TORSDOF 4
ENDMDL
MODEL 7
REMARK VINA RESULT:    -6.562      3.234      5.259
REMARK INTER + INTRA:          -8.129
REMARK INTER:                  -7.707
REMARK INTRA:                  -0.422
REMARK UNBOUND:                -0.033
REMARK  Name = 
REMARK  4 active torsions:
REMARK  status: ('A' for Active; 'I' for Inactive)
REMARK    1  A    between atoms: C_2  and  C_4
REMARK    2  A    between atoms: N_8  and  C_9
REMARK    3  A    between atoms: C_9  and  C_10
REMARK    4  A    between atoms: C_12  and  C_13
REMARK                            x       y       z     vdW  Elec       q    Type
REMARK                         _______ _______ _______ _____ _____    ______ ____
ROOT
ATOM      1  C   UNL     1      48.575   8.509  12.639  0.00  0.00    +0.000 C 
ATOM      2  C   UNL     1      48.235   9.868  12.055  0.00  0.00    +0.000 C 
ATOM      3  C   UNL     1      49.654   9.402  12.036  0.00  0.00    +0.000 C 
ENDROOT
BRANCH   1   8
ATOM      4  C   UNL     1      44.301   5.802  11.676  0.00  0.00    +0.000 A 
ATOM      5  C   UNL     1      44.643   6.573  12.784  0.00  0.00    +0.000 A 
ATOM      6  C   UNL     1      45.942   7.077  12.888  0.00  0.00    +0.000 A 
ATOM      7  C   UNL     1      46.865   6.814  11.878  0.00  0.00    +0.000 A 
ATOM      8  N   UNL     1      48.174   7.299  11.897  0.00  0.00    +0.000 N 
ATOM      9  N   UNL     1      46.551   6.044  10.815  0.00  0.00    +0.000 NA
ATOM     10  C   UNL     1      45.290   5.548  10.739  0.00  0.00    +0.000 A 
ATOM     11  H   UNL     1      48.606   7.085  11.005  0.00  0.00    +0.000 HD
BRANCH   4  13
ATOM     12  N   UNL     1      41.887   6.066  11.678  0.00  0.00    +0.000 N 
ATOM     13  C   UNL     1      42.953   5.237  11.465  0.00  0.00    +0.000 C 
ATOM     14  O   UNL     1      42.793   4.089  11.074  0.00  0.00    +0.000 OA
ATOM     15  H   UNL     1      40.976   5.704  11.425  0.00  0.00    +0.000 HD
ATOM     16  H   UNL     1      41.984   7.069  11.754  0.00  0.00    +0.000 HD
ENDBRANCH   4  13
ENDBRANCH   1   8
BRANCH   1  17
ATOM     17  C   UNL     1      48.681   8.326  14.163  0.00  0.00    +0.000 A 
ATOM     18  C   UNL     1      48.950   7.058  14.694  0.00  0.00    +0.000 A 
ATOM     19  C   UNL     1      49.132   6.869  16.071  0.00  0.00    +0.000 A 
ATOM     20  C   UNL     1      49.049   8.006  16.879  0.00  0.00    +0.000 A 
ATOM     21  C   UNL     1      48.764   9.229  16.299  0.00  0.00    +0.000 A 
ATOM     22  N   UNL     1      48.566   9.408  14.976  0.00  0.00    +0.000 NA
BRANCH  19  23
ATOM     23  C   UNL     1      49.431   5.543  16.651  0.00  0.00    +0.000 A 
ATOM     24  C   UNL     1      50.620   5.254  17.323  0.00  0.00    +0.000 A 
ATOM     25  C   UNL     1      50.816   3.980  17.852  0.00  0.00    +0.000 A 
ATOM     26  C   UNL     1      49.826   3.019  17.699  0.00  0.00    +0.000 A 
ATOM     27  C   UNL     1      48.678   3.376  17.015  0.00  0.00    +0.000 A 
ATOM     28  N   UNL     1      48.465   4.602  16.489  0.00  0.00    +0.000 NA
ENDBRANCH  19  23
ENDBRANCH   1  17
TORSDOF 4
ENDMDL
