MODEL 1
REMARK VINA RESULT:    -8.763      0.000      0.000
REMARK INTER + INTRA:         -14.968
REMARK INTER:                 -13.630
REMARK INTRA:                  -1.338
REMARK UNBOUND:                -1.338
REMARK  Name = 
REMARK  11 active torsions:
REMARK  status: ('A' for Active; 'I' for Inactive)
REMARK    1  A    between atoms: C_1  and  C_2
REMARK    2  A    between atoms: C_2  and  C_3
REMARK    3  A    between atoms: C_2  and  N_26
REMARK    4  A    between atoms: C_3  and  C_4
REMARK    5  A    between atoms: C_7  and  C_8
REMARK    6  A    between atoms: C_8  and  O_9
REMARK    7  A    between atoms: C_8  and  C_10
REMARK    8  A    between atoms: C_10  and  N_11
REMARK    9  A    between atoms: C_12  and  C_14
REMARK   10  A    between atoms: N_26  and  C_27
REMARK   11  A    between atoms: C_31  and  C_32
REMARK                            x       y       z     vdW  Elec       q    Type
REMARK                         _______ _______ _______ _____ _____    ______ ____
ROOT
ATOM      1  C   UNL     1      45.917   4.843  12.803  0.00  0.00    +0.000 A 
ATOM      2  C   UNL     1      46.493   5.952  12.175  0.00  0.00    +0.000 A 
ATOM      3  C   UNL     1      47.528   6.654  12.799  0.00  0.00    +0.000 A 
ATOM      4  C   UNL     1      47.988   6.283  14.074  0.00  0.00    +0.000 A 
ATOM      5  C   UNL     1      47.489   5.102  14.639  0.00  0.00    +0.000 A 
ATOM      6  C   UNL     1      46.465   4.391  14.010  0.00  0.00    +0.000 A 
ENDROOT
BRANCH   1   7
ATOM      7  C   UNL     1      44.681   4.179  12.242  0.00  0.00    +0.000 C 
BRANCH   7   9
ATOM      8  C   UNL     1      42.637   5.331  11.409  0.00  0.00    +0.000 C 
ATOM      9  C   UNL     1      44.017   4.800  10.994  0.00  0.00    +0.000 C 
BRANCH   9  10
ATOM     10  N   UNL     1      43.834   3.808   9.929  0.00  0.00    +0.000 N 
ATOM     11  H   UNL     1      42.899   3.765   9.529  0.00  0.00    +0.000 HD
BRANCH  10  12
ATOM     12  C   UNL     1      44.828   3.504   9.000  0.00  0.00    +0.000 A 
ATOM     13  C   UNL     1      45.608   4.461   8.344  0.00  0.00    +0.000 A 
ATOM     14  C   UNL     1      46.650   4.103   7.484  0.00  0.00    +0.000 A 
ATOM     15  C   UNL     1      46.951   2.762   7.283  0.00  0.00    +0.000 A 
ATOM     16  C   UNL     1      46.212   1.782   7.948  0.00  0.00    +0.000 A 
ATOM     17  C   UNL     1      45.155   2.154   8.793  0.00  0.00    +0.000 A 
BRANCH  16  18
ATOM     18  C   UNL     1      46.557   0.401   7.787  0.00  0.00    +0.000 C 
ATOM     19  N   UNL     1      46.843  -0.715   7.647  0.00  0.00    +0.000 NA
ENDBRANCH  16  18
ENDBRANCH  10  12
ENDBRANCH   9  10
ENDBRANCH   7   9
ENDBRANCH   1   7
BRANCH   4  20
ATOM     20  C   UNL     1      48.935   7.208  14.821  0.00  0.00    +0.000 C 
BRANCH  20  21
ATOM     21  O   UNL     1      50.295   7.001  14.408  0.00  0.00    +0.000 OA
ATOM     22  H   UNL     1      50.297   6.234  13.809  0.00  0.00    +0.000 HD
ENDBRANCH  20  21
BRANCH  20  23
ATOM     23  C   UNL     1      48.834   6.948  16.343  0.00  0.00    +0.000 C 
BRANCH  23  24
ATOM     24  N   UNL     1      49.970   6.222  16.874  0.00  0.00    +0.000 N 
ATOM     25  C   UNL     1      49.843   5.031  17.536  0.00  0.00    +0.000 C 
ATOM     26  O   UNL     1      48.739   4.531  17.745  0.00  0.00    +0.000 OA
ATOM     27  H   UNL     1      50.868   6.699  16.850  0.00  0.00    +0.000 HD
BRANCH  25  28
ATOM     28  C   UNL     1      51.084   4.359  17.949  0.00  0.00    +0.000 A 
ATOM     29  C   UNL     1      52.036   5.075  18.663  0.00  0.00    +0.000 A 
ATOM     30  S   UNL     1      53.388   4.150  19.130  0.00  0.00    +0.000 S 
ATOM     31  C   UNL     1      52.751   2.754  18.396  0.00  0.00    +0.000 A 
ATOM     32  N   UNL     1      53.424   1.574  18.453  0.00  0.00    +0.000 NA
ATOM     33  C   UNL     1      52.832   0.588  17.872  0.00  0.00    +0.000 A 
ATOM     34  N   UNL     1      51.629   0.678  17.220  0.00  0.00    +0.000 N 
ATOM     35  C   UNL     1      50.930   1.858  17.104  0.00  0.00    +0.000 A 
ATOM     36  O   UNL     1      49.884   1.907  16.462  0.00  0.00    +0.000 OA
ATOM     37  C   UNL     1      51.535   2.994  17.779  0.00  0.00    +0.000 A 
ATOM     38  H   UNL     1      51.225  -0.124  16.762  0.00  0.00    +0.000 HD
ENDBRANCH  25  28
ENDBRANCH  23  24
ENDBRANCH  20  23
ENDBRANCH   4  20
TORSDOF 10
ENDMDL
MODEL 2
REMARK VINA RESULT:    -8.203      2.855      3.436
REMARK INTER + INTRA:         -14.096
REMARK INTER:                 -12.464
REMARK INTRA:                  -1.632
REMARK UNBOUND:                -1.338
REMARK  Name = 
REMARK  11 active torsions:
REMARK  status: ('A' for Active; 'I' for Inactive)
REMARK    1  A    between atoms: C_1  and  C_2
REMARK    2  A    between atoms: C_2  and  C_3
REMARK    3  A    between atoms: C_2  and  N_26
REMARK    4  A    between atoms: C_3  and  C_4
REMARK    5  A    between atoms: C_7  and  C_8
REMARK    6  A    between atoms: C_8  and  O_9
REMARK    7  A    between atoms: C_8  and  C_10
REMARK    8  A    between atoms: C_10  and  N_11
REMARK    9  A    between atoms: C_12  and  C_14
REMARK   10  A    between atoms: N_26  and  C_27
REMARK   11  A    between atoms: C_31  and  C_32
REMARK                            x       y       z     vdW  Elec       q    Type
REMARK                         _______ _______ _______ _____ _____    ______ ____
ROOT
ATOM      1  C   UNL     1      45.796   6.551  12.024  0.00  0.00    +0.000 A 
ATOM      2  C   UNL     1      45.154   7.624  12.649  0.00  0.00    +0.000 A 
ATOM      3  C   UNL     1      45.844   8.818  12.881  0.00  0.00    +0.000 A 
ATOM      4  C   UNL     1      47.196   8.953  12.522  0.00  0.00    +0.000 A 
ATOM      5  C   UNL     1      47.792   7.918  11.789  0.00  0.00    +0.000 A 
ATOM      6  C   UNL     1      47.099   6.731  11.544  0.00  0.00    +0.000 A 
ENDROOT
BRANCH   1   7
ATOM      7  C   UNL     1      45.139   5.194  11.926  0.00  0.00    +0.000 C 
BRANCH   7   9
ATOM      8  C   UNL     1      42.656   5.092  11.773  0.00  0.00    +0.000 C 
ATOM      9  C   UNL     1      43.952   5.022  10.953  0.00  0.00    +0.000 C 
BRANCH   9  10
ATOM     10  N   UNL     1      44.000   3.727  10.265  0.00  0.00    +0.000 N 
ATOM     11  H   UNL     1      43.102   3.263  10.147  0.00  0.00    +0.000 HD
BRANCH  10  12
ATOM     12  C   UNL     1      44.884   3.456   9.222  0.00  0.00    +0.000 A 
ATOM     13  C   UNL     1      45.557   4.440   8.489  0.00  0.00    +0.000 A 
ATOM     14  C   UNL     1      46.498   4.116   7.509  0.00  0.00    +0.000 A 
ATOM     15  C   UNL     1      46.808   2.785   7.259  0.00  0.00    +0.000 A 
ATOM     16  C   UNL     1      46.177   1.781   7.995  0.00  0.00    +0.000 A 
ATOM     17  C   UNL     1      45.219   2.118   8.963  0.00  0.00    +0.000 A 
BRANCH  16  18
ATOM     18  C   UNL     1      46.535   0.411   7.779  0.00  0.00    +0.000 C 
ATOM     19  N   UNL     1      46.836  -0.697   7.606  0.00  0.00    +0.000 NA
ENDBRANCH  16  18
ENDBRANCH  10  12
ENDBRANCH   9  10
ENDBRANCH   7   9
ENDBRANCH   1   7
BRANCH   4  20
ATOM     20  C   UNL     1      47.977  10.164  13.006  0.00  0.00    +0.000 C 
BRANCH  20  21
ATOM     21  O   UNL     1      48.356  11.009  11.908  0.00  0.00    +0.000 OA
ATOM     22  H   UNL     1      47.787  11.797  11.945  0.00  0.00    +0.000 HD
ENDBRANCH  20  21
BRANCH  20  23
ATOM     23  C   UNL     1      49.257   9.705  13.744  0.00  0.00    +0.000 C 
BRANCH  23  24
ATOM     24  N   UNL     1      48.983   8.852  14.883  0.00  0.00    +0.000 N 
ATOM     25  C   UNL     1      49.444   7.566  14.970  0.00  0.00    +0.000 C 
ATOM     26  O   UNL     1      50.090   7.055  14.058  0.00  0.00    +0.000 OA
ATOM     27  H   UNL     1      48.321   9.204  15.569  0.00  0.00    +0.000 HD
BRANCH  25  28
ATOM     28  C   UNL     1      49.166   6.839  16.218  0.00  0.00    +0.000 A 
ATOM     29  C   UNL     1      49.643   7.348  17.419  0.00  0.00    +0.000 A 
ATOM     30  S   UNL     1      49.187   6.438  18.784  0.00  0.00    +0.000 S 
ATOM     31  C   UNL     1      48.332   5.326  17.821  0.00  0.00    +0.000 A 
ATOM     32  N   UNL     1      47.669   4.283  18.390  0.00  0.00    +0.000 NA
ATOM     33  C   UNL     1      47.050   3.521  17.557  0.00  0.00    +0.000 A 
ATOM     34  N   UNL     1      47.044   3.696  16.197  0.00  0.00    +0.000 N 
ATOM     35  C   UNL     1      47.729   4.714  15.574  0.00  0.00    +0.000 A 
ATOM     36  O   UNL     1      47.745   4.801  14.349  0.00  0.00    +0.000 OA
ATOM     37  C   UNL     1      48.413   5.629  16.473  0.00  0.00    +0.000 A 
ATOM     38  H   UNL     1      46.559   3.052  15.593  0.00  0.00    +0.000 HD
ENDBRANCH  25  28
ENDBRANCH  23  24
ENDBRANCH  20  23
ENDBRANCH   4  20
TORSDOF 10
ENDMDL
MODEL 3
REMARK VINA RESULT:    -7.657      3.032      3.901
REMARK INTER + INTRA:         -13.249
REMARK INTER:                 -11.728
REMARK INTRA:                  -1.521
REMARK UNBOUND:                -1.338
REMARK  Name = 
REMARK  11 active torsions:
REMARK  status: ('A' for Active; 'I' for Inactive)
REMARK    1  A    between atoms: C_1  and  C_2
REMARK    2  A    between atoms: C_2  and  C_3
REMARK    3  A    between atoms: C_2  and  N_26
REMARK    4  A    between atoms: C_3  and  C_4
REMARK    5  A    between atoms: C_7  and  C_8
REMARK    6  A    between atoms: C_8  and  O_9
REMARK    7  A    between atoms: C_8  and  C_10
REMARK    8  A    between atoms: C_10  and  N_11
REMARK    9  A    between atoms: C_12  and  C_14
REMARK   10  A    between atoms: N_26  and  C_27
REMARK   11  A    between atoms: C_31  and  C_32
REMARK                            x       y       z     vdW  Elec       q    Type
REMARK                         _______ _______ _______ _____ _____    ______ ____
ROOT
ATOM      1  C   UNL     1      45.871   5.824  12.576  0.00  0.00    +0.000 A 
ATOM      2  C   UNL     1      47.097   5.420  13.114  0.00  0.00    +0.000 A 
ATOM      3  C   UNL     1      48.208   6.265  13.046  0.00  0.00    +0.000 A 
ATOM      4  C   UNL     1      48.127   7.517  12.414  0.00  0.00    +0.000 A 
ATOM      5  C   UNL     1      46.868   7.962  11.988  0.00  0.00    +0.000 A 
ATOM      6  C   UNL     1      45.755   7.124  12.068  0.00  0.00    +0.000 A 
ENDROOT
BRANCH   1   7
ATOM      7  C   UNL     1      44.708   4.867  12.470  0.00  0.00    +0.000 C 
BRANCH   7   9
ATOM      8  C   UNL     1      42.349   5.192  11.744  0.00  0.00    +0.000 C 
ATOM      9  C   UNL     1      43.782   4.970  11.239  0.00  0.00    +0.000 C 
BRANCH   9  10
ATOM     10  N   UNL     1      43.809   3.743  10.436  0.00  0.00    +0.000 N 
ATOM     11  H   UNL     1      42.901   3.320  10.254  0.00  0.00    +0.000 HD
BRANCH  10  12
ATOM     12  C   UNL     1      44.712   3.540   9.394  0.00  0.00    +0.000 A 
ATOM     13  C   UNL     1      45.355   4.572   8.702  0.00  0.00    +0.000 A 
ATOM     14  C   UNL     1      46.316   4.316   7.720  0.00  0.00    +0.000 A 
ATOM     15  C   UNL     1      46.676   3.007   7.428  0.00  0.00    +0.000 A 
ATOM     16  C   UNL     1      46.075   1.956   8.123  0.00  0.00    +0.000 A 
ATOM     17  C   UNL     1      45.097   2.224   9.092  0.00  0.00    +0.000 A 
BRANCH  16  18
ATOM     18  C   UNL     1      46.485   0.608   7.863  0.00  0.00    +0.000 C 
ATOM     19  N   UNL     1      46.822  -0.481   7.642  0.00  0.00    +0.000 NA
ENDBRANCH  16  18
ENDBRANCH  10  12
ENDBRANCH   9  10
ENDBRANCH   7   9
ENDBRANCH   1   7
BRANCH   4  20
ATOM     20  C   UNL     1      49.403   8.299  12.143  0.00  0.00    +0.000 C 
BRANCH  20  21
ATOM     21  O   UNL     1      50.539   7.424  12.068  0.00  0.00    +0.000 OA
ATOM     22  H   UNL     1      50.323   6.630  12.587  0.00  0.00    +0.000 HD
ENDBRANCH  20  21
BRANCH  20  23
ATOM     23  C   UNL     1      49.641   9.325  13.276  0.00  0.00    +0.000 C 
BRANCH  23  24
ATOM     24  N   UNL     1      49.093   8.906  14.550  0.00  0.00    +0.000 N 
ATOM     25  C   UNL     1      49.640   9.278  15.748  0.00  0.00    +0.000 C 
ATOM     26  O   UNL     1      50.658   9.966  15.799  0.00  0.00    +0.000 OA
ATOM     27  H   UNL     1      48.352   8.211  14.522  0.00  0.00    +0.000 HD
BRANCH  25  28
ATOM     28  C   UNL     1      48.936   8.853  16.966  0.00  0.00    +0.000 A 
ATOM     29  C   UNL     1      48.378   9.816  17.798  0.00  0.00    +0.000 A 
ATOM     30  S   UNL     1      47.538   9.173  19.132  0.00  0.00    +0.000 S 
ATOM     31  C   UNL     1      47.887   7.580  18.650  0.00  0.00    +0.000 A 
ATOM     32  N   UNL     1      47.424   6.522  19.369  0.00  0.00    +0.000 NA
ATOM     33  C   UNL     1      47.744   5.368  18.894  0.00  0.00    +0.000 A 
ATOM     34  N   UNL     1      48.501   5.172  17.768  0.00  0.00    +0.000 N 
ATOM     35  C   UNL     1      49.021   6.210  17.029  0.00  0.00    +0.000 A 
ATOM     36  O   UNL     1      49.743   5.991  16.060  0.00  0.00    +0.000 OA
ATOM     37  C   UNL     1      48.656   7.536  17.500  0.00  0.00    +0.000 A 
ATOM     38  H   UNL     1      48.739   4.243  17.457  0.00  0.00    +0.000 HD
ENDBRANCH  25  28
ENDBRANCH  23  24
ENDBRANCH  20  23
ENDBRANCH   4  20
TORSDOF 10
ENDMDL
MODEL 4
REMARK VINA RESULT:    -7.627      3.469      8.863
REMARK INTER + INTRA:         -13.201
REMARK INTER:                 -11.125
REMARK INTRA:                  -2.076
REMARK UNBOUND:                -1.338
REMARK  Name = 
REMARK  11 active torsions:
REMARK  status: ('A' for Active; 'I' for Inactive)
REMARK    1  A    between atoms: C_1  and  C_2
REMARK    2  A    between atoms: C_2  and  C_3
REMARK    3  A    between atoms: C_2  and  N_26
REMARK    4  A    between atoms: C_3  and  C_4
REMARK    5  A    between atoms: C_7  and  C_8
REMARK    6  A    between atoms: C_8  and  O_9
REMARK    7  A    between atoms: C_8  and  C_10
REMARK    8  A    between atoms: C_10  and  N_11
REMARK    9  A    between atoms: C_12  and  C_14
REMARK   10  A    between atoms: N_26  and  C_27
REMARK   11  A    between atoms: C_31  and  C_32
REMARK                            x       y       z     vdW  Elec       q    Type
REMARK                         _______ _______ _______ _____ _____    ______ ____
ROOT
ATOM      1  C   UNL     1      49.109   7.623  17.409  0.00  0.00    +0.000 A 
ATOM      2  C   UNL     1      49.807   6.810  16.510  0.00  0.00    +0.000 A 
ATOM      3  C   UNL     1      49.690   7.021  15.134  0.00  0.00    +0.000 A 
ATOM      4  C   UNL     1      48.851   8.027  14.625  0.00  0.00    +0.000 A 
ATOM      5  C   UNL     1      48.253   8.911  15.533  0.00  0.00    +0.000 A 
ATOM      6  C   UNL     1      48.381   8.709  16.909  0.00  0.00    +0.000 A 
ENDROOT
BRANCH   1   7
ATOM      7  C   UNL     1      49.070   7.305  18.885  0.00  0.00    +0.000 C 
BRANCH   7   9
ATOM      8  C   UNL     1      47.573   7.300  20.874  0.00  0.00    +0.000 C 
ATOM      9  C   UNL     1      47.774   6.706  19.473  0.00  0.00    +0.000 C 
BRANCH   9  10
ATOM     10  N   UNL     1      47.859   5.246  19.593  0.00  0.00    +0.000 N 
ATOM     11  H   UNL     1      47.299   4.837  20.339  0.00  0.00    +0.000 HD
BRANCH  10  12
ATOM     12  C   UNL     1      47.981   4.402  18.491  0.00  0.00    +0.000 A 
ATOM     13  C   UNL     1      47.140   4.444  17.374  0.00  0.00    +0.000 A 
ATOM     14  C   UNL     1      47.355   3.634  16.256  0.00  0.00    +0.000 A 
ATOM     15  C   UNL     1      48.446   2.774  16.224  0.00  0.00    +0.000 A 
ATOM     16  C   UNL     1      49.322   2.732  17.310  0.00  0.00    +0.000 A 
ATOM     17  C   UNL     1      49.084   3.535  18.435  0.00  0.00    +0.000 A 
BRANCH  16  18
ATOM     18  C   UNL     1      50.479   1.887  17.256  0.00  0.00    +0.000 C 
ATOM     19  N   UNL     1      51.419   1.208  17.202  0.00  0.00    +0.000 NA
ENDBRANCH  16  18
ENDBRANCH  10  12
ENDBRANCH   9  10
ENDBRANCH   7   9
ENDBRANCH   1   7
BRANCH   4  20
ATOM     20  C   UNL     1      48.559   8.069  13.134  0.00  0.00    +0.000 C 
BRANCH  20  21
ATOM     21  O   UNL     1      49.207   9.189  12.510  0.00  0.00    +0.000 OA
ATOM     22  H   UNL     1      49.692   9.662  13.209  0.00  0.00    +0.000 HD
ENDBRANCH  20  21
BRANCH  20  23
ATOM     23  C   UNL     1      47.034   8.185  12.899  0.00  0.00    +0.000 C 
BRANCH  23  24
ATOM     24  N   UNL     1      46.391   6.904  12.683  0.00  0.00    +0.000 N 
ATOM     25  C   UNL     1      45.366   6.733  11.793  0.00  0.00    +0.000 C 
ATOM     26  O   UNL     1      44.911   7.679  11.153  0.00  0.00    +0.000 OA
ATOM     27  H   UNL     1      46.647   6.152  13.317  0.00  0.00    +0.000 HD
BRANCH  25  28
ATOM     28  C   UNL     1      44.861   5.364  11.610  0.00  0.00    +0.000 A 
ATOM     29  C   UNL     1      44.176   4.750  12.650  0.00  0.00    +0.000 A 
ATOM     30  S   UNL     1      43.592   3.196  12.270  0.00  0.00    +0.000 S 
ATOM     31  C   UNL     1      44.234   3.283  10.697  0.00  0.00    +0.000 A 
ATOM     32  N   UNL     1      44.061   2.258   9.821  0.00  0.00    +0.000 NA
ATOM     33  C   UNL     1      44.581   2.450   8.658  0.00  0.00    +0.000 A 
ATOM     34  N   UNL     1      45.276   3.574   8.293  0.00  0.00    +0.000 N 
ATOM     35  C   UNL     1      45.509   4.621   9.156  0.00  0.00    +0.000 A 
ATOM     36  O   UNL     1      46.186   5.584   8.806  0.00  0.00    +0.000 OA
ATOM     37  C   UNL     1      44.907   4.472  10.470  0.00  0.00    +0.000 A 
ATOM     38  H   UNL     1      45.682   3.658   7.374  0.00  0.00    +0.000 HD
ENDBRANCH  25  28
ENDBRANCH  23  24
ENDBRANCH  20  23
ENDBRANCH   4  20
TORSDOF 10
ENDMDL
MODEL 5
REMARK VINA RESULT:    -7.626      3.742      8.424
REMARK INTER + INTRA:         -13.199
REMARK INTER:                 -11.070
REMARK INTRA:                  -2.129
REMARK UNBOUND:                -1.338
REMARK  Name = 
REMARK  11 active torsions:
REMARK  status: ('A' for Active; 'I' for Inactive)
REMARK    1  A    between atoms: C_1  and  C_2
REMARK    2  A    between atoms: C_2  and  C_3
REMARK    3  A    between atoms: C_2  and  N_26
REMARK    4  A    between atoms: C_3  and  C_4
REMARK    5  A    between atoms: C_7  and  C_8
REMARK    6  A    between atoms: C_8  and  O_9
REMARK    7  A    between atoms: C_8  and  C_10
REMARK    8  A    between atoms: C_10  and  N_11
REMARK    9  A    between atoms: C_12  and  C_14
REMARK   10  A    between atoms: N_26  and  C_27
REMARK   11  A    between atoms: C_31  and  C_32
REMARK                            x       y       z     vdW  Elec       q    Type
REMARK                         _______ _______ _______ _____ _____    ______ ____
ROOT
ATOM      1  C   UNL     1      49.063   7.963  17.553  0.00  0.00    +0.000 A 
ATOM      2  C   UNL     1      48.201   8.792  16.829  0.00  0.00    +0.000 A 
ATOM      3  C   UNL     1      48.380   8.961  15.452  0.00  0.00    +0.000 A 
ATOM      4  C   UNL     1      49.439   8.331  14.778  0.00  0.00    +0.000 A 
ATOM      5  C   UNL     1      50.219   7.409  15.487  0.00  0.00    +0.000 A 
ATOM      6  C   UNL     1      50.033   7.229  16.859  0.00  0.00    +0.000 A 
ENDROOT
BRANCH   1   7
ATOM      7  C   UNL     1      49.010   7.905  19.061  0.00  0.00    +0.000 C 
BRANCH   7   9
ATOM      8  C   UNL     1      47.669   7.616  21.139  0.00  0.00    +0.000 C 
ATOM      9  C   UNL     1      47.899   7.063  19.725  0.00  0.00    +0.000 C 
BRANCH   9  10
ATOM     10  N   UNL     1      48.282   5.651  19.833  0.00  0.00    +0.000 N 
ATOM     11  H   UNL     1      48.090   5.215  20.733  0.00  0.00    +0.000 HD
BRANCH  10  12
ATOM     12  C   UNL     1      48.177   4.755  18.771  0.00  0.00    +0.000 A 
ATOM     13  C   UNL     1      47.152   4.784  17.819  0.00  0.00    +0.000 A 
ATOM     14  C   UNL     1      47.137   3.917  16.723  0.00  0.00    +0.000 A 
ATOM     15  C   UNL     1      48.174   3.011  16.543  0.00  0.00    +0.000 A 
ATOM     16  C   UNL     1      49.227   2.978  17.458  0.00  0.00    +0.000 A 
ATOM     17  C   UNL     1      49.221   3.840  18.565  0.00  0.00    +0.000 A 
BRANCH  16  18
ATOM     18  C   UNL     1      50.325   2.083  17.244  0.00  0.00    +0.000 C 
ATOM     19  N   UNL     1      51.213   1.358  17.059  0.00  0.00    +0.000 NA
ENDBRANCH  16  18
ENDBRANCH  10  12
ENDBRANCH   9  10
ENDBRANCH   7   9
ENDBRANCH   1   7
BRANCH   4  20
ATOM     20  C   UNL     1      49.748   8.727  13.343  0.00  0.00    +0.000 C 
BRANCH  20  21
ATOM     21  O   UNL     1      48.825   9.721  12.870  0.00  0.00    +0.000 OA
ATOM     22  H   UNL     1      48.400  10.111  13.654  0.00  0.00    +0.000 HD
ENDBRANCH  20  21
BRANCH  20  23
ATOM     23  C   UNL     1      49.655   7.487  12.423  0.00  0.00    +0.000 C 
BRANCH  23  24
ATOM     24  N   UNL     1      48.293   7.134  12.077  0.00  0.00    +0.000 N 
ATOM     25  C   UNL     1      47.592   6.160  12.734  0.00  0.00    +0.000 C 
ATOM     26  O   UNL     1      48.106   5.505  13.639  0.00  0.00    +0.000 OA
ATOM     27  H   UNL     1      47.912   7.554  11.233  0.00  0.00    +0.000 HD
BRANCH  25  28
ATOM     28  C   UNL     1      46.190   5.961  12.338  0.00  0.00    +0.000 A 
ATOM     29  C   UNL     1      45.465   7.039  11.847  0.00  0.00    +0.000 A 
ATOM     30  S   UNL     1      43.880   6.644  11.367  0.00  0.00    +0.000 S 
ATOM     31  C   UNL     1      44.101   5.013  11.797  0.00  0.00    +0.000 A 
ATOM     32  N   UNL     1      43.104   4.107  11.612  0.00  0.00    +0.000 NA
ATOM     33  C   UNL     1      43.399   2.903  11.965  0.00  0.00    +0.000 A 
ATOM     34  N   UNL     1      44.600   2.522  12.503  0.00  0.00    +0.000 N 
ATOM     35  C   UNL     1      45.625   3.409  12.743  0.00  0.00    +0.000 A 
ATOM     36  O   UNL     1      46.665   3.036  13.280  0.00  0.00    +0.000 OA
ATOM     37  C   UNL     1      45.359   4.776  12.325  0.00  0.00    +0.000 A 
ATOM     38  H   UNL     1      44.765   1.568  12.782  0.00  0.00    +0.000 HD
ENDBRANCH  25  28
ENDBRANCH  23  24
ENDBRANCH  20  23
ENDBRANCH   4  20
TORSDOF 10
ENDMDL
MODEL 6
REMARK VINA RESULT:    -7.455      3.242      4.586
REMARK INTER + INTRA:         -12.933
REMARK INTER:                 -10.381
REMARK INTRA:                  -2.553
REMARK UNBOUND:                -1.338
REMARK  Name = 
REMARK  11 active torsions:
REMARK  status: ('A' for Active; 'I' for Inactive)
REMARK    1  A    between atoms: C_1  and  C_2
REMARK    2  A    between atoms: C_2  and  C_3
REMARK    3  A    between atoms: C_2  and  N_26
REMARK    4  A    between atoms: C_3  and  C_4
REMARK    5  A    between atoms: C_7  and  C_8
REMARK    6  A    between atoms: C_8  and  O_9
REMARK    7  A    between atoms: C_8  and  C_10
REMARK    8  A    between atoms: C_10  and  N_11
REMARK    9  A    between atoms: C_12  and  C_14
REMARK   10  A    between atoms: N_26  and  C_27
REMARK   11  A    between atoms: C_31  and  C_32
REMARK                            x       y       z     vdW  Elec       q    Type
REMARK                         _______ _______ _______ _____ _____    ______ ____
ROOT
ATOM      1  C   UNL     1      46.956   8.761  12.431  0.00  0.00    +0.000 A 
ATOM      2  C   UNL     1      47.534   7.591  11.929  0.00  0.00    +0.000 A 
ATOM      3  C   UNL     1      48.918   7.509  11.755  0.00  0.00    +0.000 A 
ATOM      4  C   UNL     1      49.750   8.602  12.048  0.00  0.00    +0.000 A 
ATOM      5  C   UNL     1      49.177   9.723  12.663  0.00  0.00    +0.000 A 
ATOM      6  C   UNL     1      47.795   9.800  12.851  0.00  0.00    +0.000 A 
ENDROOT
BRANCH   1   7
ATOM      7  C   UNL     1      45.457   8.946  12.457  0.00  0.00    +0.000 C 
BRANCH   7   9
ATOM      8  C   UNL     1      43.690   9.326  10.745  0.00  0.00    +0.000 C 
ATOM      9  C   UNL     1      44.614   8.264  11.358  0.00  0.00    +0.000 C 
BRANCH   9  10
ATOM     10  N   UNL     1      43.785   7.184  11.904  0.00  0.00    +0.000 N 
ATOM     11  H   UNL     1      42.780   7.310  11.799  0.00  0.00    +0.000 HD
BRANCH  10  12
ATOM     12  C   UNL     1      44.164   5.843  11.860  0.00  0.00    +0.000 A 
ATOM     13  C   UNL     1      43.745   4.942  10.875  0.00  0.00    +0.000 A 
ATOM     14  C   UNL     1      44.220   3.629  10.825  0.00  0.00    +0.000 A 
ATOM     15  C   UNL     1      45.155   3.195  11.756  0.00  0.00    +0.000 A 
ATOM     16  C   UNL     1      45.616   4.079  12.732  0.00  0.00    +0.000 A 
ATOM     17  C   UNL     1      45.117   5.389  12.785  0.00  0.00    +0.000 A 
BRANCH  16  18
ATOM     18  C   UNL     1      46.622   3.651  13.659  0.00  0.00    +0.000 C 
ATOM     19  N   UNL     1      47.445   3.304  14.401  0.00  0.00    +0.000 NA
ENDBRANCH  16  18
ENDBRANCH  10  12
ENDBRANCH   9  10
ENDBRANCH   7   9
ENDBRANCH   1   7
BRANCH   4  20
ATOM     20  C   UNL     1      51.208   8.564  11.618  0.00  0.00    +0.000 C 
BRANCH  20  21
ATOM     21  O   UNL     1      51.541   7.299  11.027  0.00  0.00    +0.000 OA
ATOM     22  H   UNL     1      51.645   7.449  10.071  0.00  0.00    +0.000 HD
ENDBRANCH  20  21
BRANCH  20  23
ATOM     23  C   UNL     1      52.124   8.795  12.844  0.00  0.00    +0.000 C 
BRANCH  23  24
ATOM     24  N   UNL     1      51.988   7.769  13.858  0.00  0.00    +0.000 N 
ATOM     25  C   UNL     1      51.545   8.036  15.125  0.00  0.00    +0.000 C 
ATOM     26  O   UNL     1      51.271   9.182  15.477  0.00  0.00    +0.000 OA
ATOM     27  H   UNL     1      52.360   6.851  13.631  0.00  0.00    +0.000 HD
BRANCH  25  28
ATOM     28  C   UNL     1      51.374   6.890  16.030  0.00  0.00    +0.000 A 
ATOM     29  C   UNL     1      52.488   6.352  16.659  0.00  0.00    +0.000 A 
ATOM     30  S   UNL     1      52.129   5.075  17.727  0.00  0.00    +0.000 S 
ATOM     31  C   UNL     1      50.466   5.192  17.390  0.00  0.00    +0.000 A 
ATOM     32  N   UNL     1      49.574   4.375  18.011  0.00  0.00    +0.000 NA
ATOM     33  C   UNL     1      48.344   4.571  17.682  0.00  0.00    +0.000 A 
ATOM     34  N   UNL     1      47.922   5.505  16.771  0.00  0.00    +0.000 N 
ATOM     35  C   UNL     1      48.790   6.328  16.090  0.00  0.00    +0.000 A 
ATOM     36  O   UNL     1      48.375   7.111  15.240  0.00  0.00    +0.000 OA
ATOM     37  C   UNL     1      50.188   6.176  16.456  0.00  0.00    +0.000 A 
ATOM     38  H   UNL     1      46.946   5.596  16.535  0.00  0.00    +0.000 HD
ENDBRANCH  25  28
ENDBRANCH  23  24
ENDBRANCH  20  23
ENDBRANCH   4  20
TORSDOF 10
ENDMDL
MODEL 7
REMARK VINA RESULT:    -7.415      3.830      9.136
REMARK INTER + INTRA:         -12.872
REMARK INTER:                 -10.914
REMARK INTRA:                  -1.958
REMARK UNBOUND:                -1.338
REMARK  Name = 
REMARK  11 active torsions:
REMARK  status: ('A' for Active; 'I' for Inactive)
REMARK    1  A    between atoms: C_1  and  C_2
REMARK    2  A    between atoms: C_2  and  C_3
REMARK    3  A    between atoms: C_2  and  N_26
REMARK    4  A    between atoms: C_3  and  C_4
REMARK    5  A    between atoms: C_7  and  C_8
REMARK    6  A    between atoms: C_8  and  O_9
REMARK    7  A    between atoms: C_8  and  C_10
REMARK    8  A    between atoms: C_10  and  N_11
REMARK    9  A    between atoms: C_12  and  C_14
REMARK   10  A    between atoms: N_26  and  C_27
REMARK   11  A    between atoms: C_31  and  C_32
REMARK                            x       y       z     vdW  Elec       q    Type
REMARK                         _______ _______ _______ _____ _____    ______ ____
ROOT
ATOM      1  C   UNL     1      50.748   7.569  18.805  0.00  0.00    +0.000 A 
ATOM      2  C   UNL     1      51.412   8.121  17.706  0.00  0.00    +0.000 A 
ATOM      3  C   UNL     1      50.698   8.472  16.557  0.00  0.00    +0.000 A 
ATOM      4  C   UNL     1      49.313   8.250  16.470  0.00  0.00    +0.000 A 
ATOM      5  C   UNL     1      48.641   7.811  17.618  0.00  0.00    +0.000 A 
ATOM      6  C   UNL     1      49.352   7.474  18.771  0.00  0.00    +0.000 A 
ENDROOT
BRANCH   1   7
ATOM      7  C   UNL     1      51.513   7.013  19.983  0.00  0.00    +0.000 C 
BRANCH   7   9
ATOM      8  C   UNL     1      52.823   5.217  21.104  0.00  0.00    +0.000 C 
ATOM      9  C   UNL     1      51.722   5.485  20.068  0.00  0.00    +0.000 C 
BRANCH   9  10
ATOM     10  N   UNL     1      52.147   4.925  18.780  0.00  0.00    +0.000 N 
ATOM     11  H   UNL     1      53.153   4.876  18.637  0.00  0.00    +0.000 HD
BRANCH  10  12
ATOM     12  C   UNL     1      51.464   3.891  18.143  0.00  0.00    +0.000 A 
ATOM     13  C   UNL     1      52.038   2.659  17.812  0.00  0.00    +0.000 A 
ATOM     14  C   UNL     1      51.289   1.622  17.250  0.00  0.00    +0.000 A 
ATOM     15  C   UNL     1      49.928   1.790  17.032  0.00  0.00    +0.000 A 
ATOM     16  C   UNL     1      49.318   2.996  17.381  0.00  0.00    +0.000 A 
ATOM     17  C   UNL     1      50.085   4.038  17.925  0.00  0.00    +0.000 A 
BRANCH  16  18
ATOM     18  C   UNL     1      47.905   3.153  17.208  0.00  0.00    +0.000 C 
ATOM     19  N   UNL     1      46.758   3.279  17.080  0.00  0.00    +0.000 NA
ENDBRANCH  16  18
ENDBRANCH  10  12
ENDBRANCH   9  10
ENDBRANCH   7   9
ENDBRANCH   1   7
BRANCH   4  20
ATOM     20  C   UNL     1      48.616   8.413  15.128  0.00  0.00    +0.000 C 
BRANCH  20  21
ATOM     21  O   UNL     1      47.260   8.853  15.299  0.00  0.00    +0.000 OA
ATOM     22  H   UNL     1      46.777   8.610  14.490  0.00  0.00    +0.000 HD
ENDBRANCH  20  21
BRANCH  20  23
ATOM     23  C   UNL     1      48.607   7.063  14.373  0.00  0.00    +0.000 C 
BRANCH  23  24
ATOM     24  N   UNL     1      47.300   6.705  13.859  0.00  0.00    +0.000 N 
ATOM     25  C   UNL     1      47.010   6.696  12.522  0.00  0.00    +0.000 C 
ATOM     26  O   UNL     1      47.845   7.031  11.684  0.00  0.00    +0.000 OA
ATOM     27  H   UNL     1      46.559   6.582  14.543  0.00  0.00    +0.000 HD
BRANCH  25  28
ATOM     28  C   UNL     1      45.670   6.232  12.131  0.00  0.00    +0.000 A 
ATOM     29  C   UNL     1      44.783   7.132  11.555  0.00  0.00    +0.000 A 
ATOM     30  S   UNL     1      43.298   6.438  11.094  0.00  0.00    +0.000 S 
ATOM     31  C   UNL     1      43.783   4.905  11.648  0.00  0.00    +0.000 A 
ATOM     32  N   UNL     1      42.958   3.831  11.524  0.00  0.00    +0.000 NA
ATOM     33  C   UNL     1      43.446   2.724  11.968  0.00  0.00    +0.000 A 
ATOM     34  N   UNL     1      44.683   2.594  12.542  0.00  0.00    +0.000 N 
ATOM     35  C   UNL     1      45.538   3.658  12.722  0.00  0.00    +0.000 A 
ATOM     36  O   UNL     1      46.615   3.508  13.294  0.00  0.00    +0.000 OA
ATOM     37  C   UNL     1      45.052   4.925  12.201  0.00  0.00    +0.000 A 
ATOM     38  H   UNL     1      45.002   1.704  12.894  0.00  0.00    +0.000 HD
ENDBRANCH  25  28
ENDBRANCH  23  24
ENDBRANCH  20  23
ENDBRANCH   4  20
TORSDOF 10
ENDMDL
MODEL 8
REMARK VINA RESULT:    -7.223      3.272      9.484
REMARK INTER + INTRA:         -12.573
REMARK INTER:                 -10.829
REMARK INTRA:                  -1.744
REMARK UNBOUND:                -1.338
REMARK  Name = 
REMARK  11 active torsions:
REMARK  status: ('A' for Active; 'I' for Inactive)
REMARK    1  A    between atoms: C_1  and  C_2
REMARK    2  A    between atoms: C_2  and  C_3
REMARK    3  A    between atoms: C_2  and  N_26
REMARK    4  A    between atoms: C_3  and  C_4
REMARK    5  A    between atoms: C_7  and  C_8
REMARK    6  A    between atoms: C_8  and  O_9
REMARK    7  A    between atoms: C_8  and  C_10
REMARK    8  A    between atoms: C_10  and  N_11
REMARK    9  A    between atoms: C_12  and  C_14
REMARK   10  A    between atoms: N_26  and  C_27
REMARK   11  A    between atoms: C_31  and  C_32
REMARK                            x       y       z     vdW  Elec       q    Type
REMARK                         _______ _______ _______ _____ _____    ______ ____
ROOT
ATOM      1  C   UNL     1      52.048   6.718  18.458  0.00  0.00    +0.000 A 
ATOM      2  C   UNL     1      51.626   6.604  17.130  0.00  0.00    +0.000 A 
ATOM      3  C   UNL     1      50.285   6.339  16.838  0.00  0.00    +0.000 A 
ATOM      4  C   UNL     1      49.345   6.153  17.865  0.00  0.00    +0.000 A 
ATOM      5  C   UNL     1      49.751   6.389  19.184  0.00  0.00    +0.000 A 
ATOM      6  C   UNL     1      51.088   6.667  19.476  0.00  0.00    +0.000 A 
ENDROOT
BRANCH   1   7
ATOM      7  C   UNL     1      53.513   6.819  18.809  0.00  0.00    +0.000 C 
BRANCH   7   9
ATOM      8  C   UNL     1      54.834   5.095  17.592  0.00  0.00    +0.000 C 
ATOM      9  C   UNL     1      54.320   5.514  18.977  0.00  0.00    +0.000 C 
BRANCH   9  10
ATOM     10  N   UNL     1      53.489   4.430  19.513  0.00  0.00    +0.000 N 
ATOM     11  H   UNL     1      52.681   4.728  20.055  0.00  0.00    +0.000 HD
BRANCH  10  12
ATOM     12  C   UNL     1      53.263   3.239  18.825  0.00  0.00    +0.000 A 
ATOM     13  C   UNL     1      54.101   2.121  18.896  0.00  0.00    +0.000 A 
ATOM     14  C   UNL     1      53.786   0.920  18.254  0.00  0.00    +0.000 A 
ATOM     15  C   UNL     1      52.599   0.806  17.542  0.00  0.00    +0.000 A 
ATOM     16  C   UNL     1      51.726   1.894  17.479  0.00  0.00    +0.000 A 
ATOM     17  C   UNL     1      52.063   3.100  18.111  0.00  0.00    +0.000 A 
BRANCH  16  18
ATOM     18  C   UNL     1      50.475   1.761  16.793  0.00  0.00    +0.000 C 
ATOM     19  N   UNL     1      49.459   1.665  16.240  0.00  0.00    +0.000 NA
ENDBRANCH  16  18
ENDBRANCH  10  12
ENDBRANCH   9  10
ENDBRANCH   7   9
ENDBRANCH   1   7
BRANCH   4  20
ATOM     20  C   UNL     1      47.960   5.628  17.519  0.00  0.00    +0.000 C 
BRANCH  20  21
ATOM     21  O   UNL     1      47.397   4.890  18.615  0.00  0.00    +0.000 OA
ATOM     22  H   UNL     1      48.101   4.316  18.964  0.00  0.00    +0.000 HD
ENDBRANCH  20  21
BRANCH  20  23
ATOM     23  C   UNL     1      48.043   4.697  16.286  0.00  0.00    +0.000 C 
BRANCH  23  24
ATOM     24  N   UNL     1      47.071   5.020  15.261  0.00  0.00    +0.000 N 
ATOM     25  C   UNL     1      47.406   5.666  14.103  0.00  0.00    +0.000 C 
ATOM     26  O   UNL     1      48.558   6.040  13.890  0.00  0.00    +0.000 OA
ATOM     27  H   UNL     1      46.094   4.861  15.492  0.00  0.00    +0.000 HD
BRANCH  25  28
ATOM     28  C   UNL     1      46.338   5.857  13.110  0.00  0.00    +0.000 A 
ATOM     29  C   UNL     1      46.002   7.146  12.716  0.00  0.00    +0.000 A 
ATOM     30  S   UNL     1      44.798   7.208  11.513  0.00  0.00    +0.000 S 
ATOM     31  C   UNL     1      44.678   5.512  11.472  0.00  0.00    +0.000 A 
ATOM     32  N   UNL     1      43.820   4.899  10.613  0.00  0.00    +0.000 NA
ATOM     33  C   UNL     1      43.833   3.612  10.668  0.00  0.00    +0.000 A 
ATOM     34  N   UNL     1      44.617   2.877  11.518  0.00  0.00    +0.000 N 
ATOM     35  C   UNL     1      45.473   3.452  12.429  0.00  0.00    +0.000 A 
ATOM     36  O   UNL     1      46.115   2.758  13.213  0.00  0.00    +0.000 OA
ATOM     37  C   UNL     1      45.527   4.904  12.381  0.00  0.00    +0.000 A 
ATOM     38  H   UNL     1      44.566   1.870  11.531  0.00  0.00    +0.000 HD
ENDBRANCH  25  28
ENDBRANCH  23  24
ENDBRANCH  20  23
ENDBRANCH   4  20
TORSDOF 10
ENDMDL
MODEL 9
REMARK VINA RESULT:    -6.901      3.813      8.800
REMARK INTER + INTRA:         -12.072
REMARK INTER:                  -9.415
REMARK INTRA:                  -2.656
REMARK UNBOUND:                -1.338
REMARK  Name = 
REMARK  11 active torsions:
REMARK  status: ('A' for Active; 'I' for Inactive)
REMARK    1  A    between atoms: C_1  and  C_2
REMARK    2  A    between atoms: C_2  and  C_3
REMARK    3  A    between atoms: C_2  and  N_26
REMARK    4  A    between atoms: C_3  and  C_4
REMARK    5  A    between atoms: C_7  and  C_8
REMARK    6  A    between atoms: C_8  and  O_9
REMARK    7  A    between atoms: C_8  and  C_10
REMARK    8  A    between atoms: C_10  and  N_11
REMARK    9  A    between atoms: C_12  and  C_14
REMARK   10  A    between atoms: N_26  and  C_27
REMARK   11  A    between atoms: C_31  and  C_32
REMARK                            x       y       z     vdW  Elec       q    Type
REMARK                         _______ _______ _______ _____ _____    ______ ____
ROOT
ATOM      1  C   UNL     1      51.997   6.510  17.652  0.00  0.00    +0.000 A 
ATOM      2  C   UNL     1      51.491   6.683  16.360  0.00  0.00    +0.000 A 
ATOM      3  C   UNL     1      50.474   7.612  16.122  0.00  0.00    +0.000 A 
ATOM      4  C   UNL     1      49.922   8.365  17.171  0.00  0.00    +0.000 A 
ATOM      5  C   UNL     1      50.518   8.273  18.436  0.00  0.00    +0.000 A 
ATOM      6  C   UNL     1      51.543   7.355  18.672  0.00  0.00    +0.000 A 
ENDROOT
BRANCH   1   7
ATOM      7  C   UNL     1      52.960   5.391  17.972  0.00  0.00    +0.000 C 
BRANCH   7   9
ATOM      8  C   UNL     1      53.734   3.805  19.728  0.00  0.00    +0.000 C 
ATOM      9  C   UNL     1      52.502   4.286  18.948  0.00  0.00    +0.000 C 
BRANCH   9  10
ATOM     10  N   UNL     1      51.924   3.140  18.236  0.00  0.00    +0.000 N 
ATOM     11  H   UNL     1      52.226   2.226  18.564  0.00  0.00    +0.000 HD
BRANCH  10  12
ATOM     12  C   UNL     1      50.617   3.131  17.753  0.00  0.00    +0.000 A 
ATOM     13  C   UNL     1      50.098   2.139  16.914  0.00  0.00    +0.000 A 
ATOM     14  C   UNL     1      48.756   2.129  16.525  0.00  0.00    +0.000 A 
ATOM     15  C   UNL     1      47.891   3.108  16.996  0.00  0.00    +0.000 A 
ATOM     16  C   UNL     1      48.371   4.094  17.860  0.00  0.00    +0.000 A 
ATOM     17  C   UNL     1      49.725   4.105  18.227  0.00  0.00    +0.000 A 
BRANCH  16  18
ATOM     18  C   UNL     1      47.469   5.072  18.391  0.00  0.00    +0.000 C 
ATOM     19  N   UNL     1      46.739   5.871  18.812  0.00  0.00    +0.000 NA
ENDBRANCH  16  18
ENDBRANCH  10  12
ENDBRANCH   9  10
ENDBRANCH   7   9
ENDBRANCH   1   7
BRANCH   4  20
ATOM     20  C   UNL     1      48.662   9.179  16.921  0.00  0.00    +0.000 C 
BRANCH  20  21
ATOM     21  O   UNL     1      47.494   8.480  17.378  0.00  0.00    +0.000 OA
ATOM     22  H   UNL     1      47.032   9.071  17.998  0.00  0.00    +0.000 HD
ENDBRANCH  20  21
BRANCH  20  23
ATOM     23  C   UNL     1      48.510   9.461  15.407  0.00  0.00    +0.000 C 
BRANCH  23  24
ATOM     24  N   UNL     1      47.518   8.621  14.767  0.00  0.00    +0.000 N 
ATOM     25  C   UNL     1      47.369   8.558  13.409  0.00  0.00    +0.000 C 
ATOM     26  O   UNL     1      48.057   9.247  12.658  0.00  0.00    +0.000 OA
ATOM     27  H   UNL     1      46.840   8.170  15.376  0.00  0.00    +0.000 HD
BRANCH  25  28
ATOM     28  C   UNL     1      46.381   7.602  12.888  0.00  0.00    +0.000 A 
ATOM     29  C   UNL     1      45.356   8.064  12.072  0.00  0.00    +0.000 A 
ATOM     30  S   UNL     1      44.329   6.837  11.490  0.00  0.00    +0.000 S 
ATOM     31  C   UNL     1      45.216   5.637  12.308  0.00  0.00    +0.000 A 
ATOM     32  N   UNL     1      44.865   4.326  12.205  0.00  0.00    +0.000 NA
ATOM     33  C   UNL     1      45.622   3.514  12.859  0.00  0.00    +0.000 A 
ATOM     34  N   UNL     1      46.695   3.895  13.623  0.00  0.00    +0.000 N 
ATOM     35  C   UNL     1      47.065   5.211  13.787  0.00  0.00    +0.000 A 
ATOM     36  O   UNL     1      47.997   5.513  14.527  0.00  0.00    +0.000 OA
ATOM     37  C   UNL     1      46.267   6.166  13.036  0.00  0.00    +0.000 A 
ATOM     38  H   UNL     1      47.237   3.215  14.133  0.00  0.00    +0.000 HD
ENDBRANCH  25  28
ENDBRANCH  23  24
ENDBRANCH  20  23
ENDBRANCH   4  20
TORSDOF 10
ENDMDL
