MODEL 1
REMARK VINA RESULT:    -7.499      0.000      0.000
REMARK INTER + INTRA:         -10.594
REMARK INTER:                 -10.130
REMARK INTRA:                  -0.465
REMARK UNBOUND:                -0.465
REMARK  Name = 
REMARK  7 active torsions:
REMARK  status: ('A' for Active; 'I' for Inactive)
REMARK    1  A    between atoms: C_1  and  O_2
REMARK    2  A    between atoms: O_2  and  C_3
REMARK    3  A    between atoms: C_3  and  C_4
REMARK    4  A    between atoms: C_7  and  C_8
REMARK    5  A    between atoms: C_8  and  N_9
REMARK    6  A    between atoms: N_9  and  C_10
REMARK    7  A    between atoms: C_13  and  C_14
REMARK                            x       y       z     vdW  Elec       q    Type
REMARK                         _______ _______ _______ _____ _____    ______ ____
ROOT
ATOM      1  N   UNL     1      43.741   4.443  10.285  0.00  0.00    +0.000 N 
ATOM      2  H   UNL     1      42.824   4.574   9.864  0.00  0.00    +0.000 HD
ENDROOT
BRANCH   1   3
ATOM      3  C   UNL     1      44.594   3.693   9.464  0.00  0.00    +0.000 A 
ATOM      4  C   UNL     1      45.350   4.325   8.478  0.00  0.00    +0.000 A 
ATOM      5  C   UNL     1      46.232   3.580   7.696  0.00  0.00    +0.000 A 
ATOM      6  C   UNL     1      46.284   2.207   7.880  0.00  0.00    +0.000 A 
ATOM      7  N   UNL     1      45.507   1.534   8.767  0.00  0.00    +0.000 NA
ATOM      8  C   UNL     1      44.673   2.299   9.514  0.00  0.00    +0.000 A 
BRANCH   6   9
ATOM      9  C   UNL     1      47.270   1.398   7.112  0.00  0.00    +0.000 C 
ATOM     10  N   UNL     1      48.351   2.091   6.617  0.00  0.00    +0.000 N 
ATOM     11  O   UNL     1      47.137   0.201   6.913  0.00  0.00    +0.000 OA
ATOM     12  H   UNL     1      48.427   3.089   6.777  0.00  0.00    +0.000 HD
ATOM     13  H   UNL     1      49.038   1.598   6.066  0.00  0.00    +0.000 HD
ENDBRANCH   6   9
ENDBRANCH   1   3
BRANCH   1  14
ATOM     14  C   UNL     1      44.299   5.693  10.809  0.00  0.00    +0.000 C 
BRANCH  14  18
ATOM     15  C   UNL     1      46.880   4.682  13.385  0.00  0.00    +0.000 C 
ATOM     16  C   UNL     1      45.843   3.726  12.774  0.00  0.00    +0.000 C 
ATOM     17  C   UNL     1      44.414   4.260  12.896  0.00  0.00    +0.000 C 
ATOM     18  C   UNL     1      44.253   5.687  12.342  0.00  0.00    +0.000 C 
ATOM     19  C   UNL     1      45.312   6.633  12.931  0.00  0.00    +0.000 C 
ATOM     20  C   UNL     1      46.732   6.088  12.783  0.00  0.00    +0.000 C 
BRANCH  15  21
ATOM     21  C   UNL     1      46.767   4.701  14.919  0.00  0.00    +0.000 C 
BRANCH  21  23
ATOM     22  C   UNL     1      47.413   3.513  16.845  0.00  0.00    +0.000 C 
ATOM     23  O   UNL     1      47.231   3.454  15.440  0.00  0.00    +0.000 OA
ENDBRANCH  21  23
ENDBRANCH  15  21
ENDBRANCH  14  18
ENDBRANCH   1  14
TORSDOF 6
ENDMDL
MODEL 2
REMARK VINA RESULT:    -7.247      1.738      2.058
REMARK INTER + INTRA:         -10.254
REMARK INTER:                  -9.860
REMARK INTRA:                  -0.394
REMARK UNBOUND:                -0.465
REMARK  Name = 
REMARK  7 active torsions:
REMARK  status: ('A' for Active; 'I' for Inactive)
REMARK    1  A    between atoms: C_1  and  O_2
REMARK    2  A    between atoms: O_2  and  C_3
REMARK    3  A    between atoms: C_3  and  C_4
REMARK    4  A    between atoms: C_7  and  C_8
REMARK    5  A    between atoms: C_8  and  N_9
REMARK    6  A    between atoms: N_9  and  C_10
REMARK    7  A    between atoms: C_13  and  C_14
REMARK                            x       y       z     vdW  Elec       q    Type
REMARK                         _______ _______ _______ _____ _____    ______ ____
ROOT
ATOM      1  N   UNL     1      43.783   4.848   9.645  0.00  0.00    +0.000 N 
ATOM      2  H   UNL     1      44.104   5.793   9.445  0.00  0.00    +0.000 HD
ENDROOT
BRANCH   1   3
ATOM      3  C   UNL     1      44.597   3.879   9.042  0.00  0.00    +0.000 A 
ATOM      4  C   UNL     1      45.498   4.245   8.043  0.00  0.00    +0.000 A 
ATOM      5  C   UNL     1      46.338   3.285   7.481  0.00  0.00    +0.000 A 
ATOM      6  C   UNL     1      46.206   1.967   7.890  0.00  0.00    +0.000 A 
ATOM      7  N   UNL     1      45.288   1.545   8.797  0.00  0.00    +0.000 NA
ATOM      8  C   UNL     1      44.499   2.515   9.326  0.00  0.00    +0.000 A 
BRANCH   6   9
ATOM      9  C   UNL     1      47.141   0.934   7.362  0.00  0.00    +0.000 C 
ATOM     10  N   UNL     1      46.839  -0.367   7.694  0.00  0.00    +0.000 N 
ATOM     11  O   UNL     1      48.123   1.208   6.691  0.00  0.00    +0.000 OA
ATOM     12  H   UNL     1      46.030  -0.565   8.271  0.00  0.00    +0.000 HD
ATOM     13  H   UNL     1      47.453  -1.106   7.385  0.00  0.00    +0.000 HD
ENDBRANCH   6   9
ENDBRANCH   1   3
BRANCH   1  14
ATOM     14  C   UNL     1      43.497   4.643  11.068  0.00  0.00    +0.000 C 
BRANCH  14  18
ATOM     15  C   UNL     1      46.736   5.897  12.571  0.00  0.00    +0.000 C 
ATOM     16  C   UNL     1      45.725   5.003  13.309  0.00  0.00    +0.000 C 
ATOM     17  C   UNL     1      44.308   5.579  13.279  0.00  0.00    +0.000 C 
ATOM     18  C   UNL     1      43.823   5.917  11.857  0.00  0.00    +0.000 C 
ATOM     19  C   UNL     1      44.851   6.784  11.112  0.00  0.00    +0.000 C 
ATOM     20  C   UNL     1      46.255   6.181  11.140  0.00  0.00    +0.000 C 
BRANCH  15  21
ATOM     21  C   UNL     1      46.994   7.193  13.357  0.00  0.00    +0.000 C 
BRANCH  21  23
ATOM     22  C   UNL     1      49.331   7.241  13.091  0.00  0.00    +0.000 C 
ATOM     23  O   UNL     1      48.261   7.103  14.011  0.00  0.00    +0.000 OA
ENDBRANCH  21  23
ENDBRANCH  15  21
ENDBRANCH  14  18
ENDBRANCH   1  14
TORSDOF 6
ENDMDL
MODEL 3
REMARK VINA RESULT:    -6.542      1.780      2.244
REMARK INTER + INTRA:          -9.301
REMARK INTER:                  -8.624
REMARK INTRA:                  -0.677
REMARK UNBOUND:                -0.465
REMARK  Name = 
REMARK  7 active torsions:
REMARK  status: ('A' for Active; 'I' for Inactive)
REMARK    1  A    between atoms: C_1  and  O_2
REMARK    2  A    between atoms: O_2  and  C_3
REMARK    3  A    between atoms: C_3  and  C_4
REMARK    4  A    between atoms: C_7  and  C_8
REMARK    5  A    between atoms: C_8  and  N_9
REMARK    6  A    between atoms: N_9  and  C_10
REMARK    7  A    between atoms: C_13  and  C_14
REMARK                            x       y       z     vdW  Elec       q    Type
REMARK                         _______ _______ _______ _____ _____    ______ ____
ROOT
ATOM      1  N   UNL     1      44.241   4.673  10.523  0.00  0.00    +0.000 N 
ATOM      2  H   UNL     1      43.241   4.609  10.343  0.00  0.00    +0.000 HD
ENDROOT
BRANCH   1   3
ATOM      3  C   UNL     1      44.991   3.957   9.580  0.00  0.00    +0.000 A 
ATOM      4  C   UNL     1      45.718   4.635   8.602  0.00  0.00    +0.000 A 
ATOM      5  C   UNL     1      46.499   3.918   7.697  0.00  0.00    +0.000 A 
ATOM      6  C   UNL     1      46.480   2.533   7.756  0.00  0.00    +0.000 A 
ATOM      7  N   UNL     1      45.724   1.824   8.633  0.00  0.00    +0.000 NA
ATOM      8  C   UNL     1      44.988   2.562   9.502  0.00  0.00    +0.000 A 
BRANCH   6   9
ATOM      9  C   UNL     1      47.363   1.745   6.851  0.00  0.00    +0.000 C 
ATOM     10  N   UNL     1      48.430   2.431   6.317  0.00  0.00    +0.000 N 
ATOM     11  O   UNL     1      47.159   0.573   6.579  0.00  0.00    +0.000 OA
ATOM     12  H   UNL     1      48.564   3.410   6.541  0.00  0.00    +0.000 HD
ATOM     13  H   UNL     1      49.047   1.954   5.676  0.00  0.00    +0.000 HD
ENDBRANCH   6   9
ENDBRANCH   1   3
BRANCH   1  14
ATOM     14  C   UNL     1      44.677   6.051  10.769  0.00  0.00    +0.000 C 
BRANCH  14  18
ATOM     15  C   UNL     1      47.381   8.171  12.356  0.00  0.00    +0.000 C 
ATOM     16  C   UNL     1      47.591   6.736  11.843  0.00  0.00    +0.000 C 
ATOM     17  C   UNL     1      46.571   5.754  12.426  0.00  0.00    +0.000 C 
ATOM     18  C   UNL     1      45.114   6.210  12.231  0.00  0.00    +0.000 C 
ATOM     19  C   UNL     1      44.916   7.656  12.713  0.00  0.00    +0.000 C 
ATOM     20  C   UNL     1      45.933   8.622  12.107  0.00  0.00    +0.000 C 
BRANCH  15  21
ATOM     21  C   UNL     1      47.769   8.283  13.839  0.00  0.00    +0.000 C 
BRANCH  21  23
ATOM     22  C   UNL     1      49.075   6.955  15.278  0.00  0.00    +0.000 C 
ATOM     23  O   UNL     1      49.035   7.652  14.044  0.00  0.00    +0.000 OA
ENDBRANCH  21  23
ENDBRANCH  15  21
ENDBRANCH  14  18
ENDBRANCH   1  14
TORSDOF 6
ENDMDL
MODEL 4
REMARK VINA RESULT:    -5.820      2.806      6.534
REMARK INTER + INTRA:          -8.326
REMARK INTER:                  -8.099
REMARK INTRA:                  -0.226
REMARK UNBOUND:                -0.465
REMARK  Name = 
REMARK  7 active torsions:
REMARK  status: ('A' for Active; 'I' for Inactive)
REMARK    1  A    between atoms: C_1  and  O_2
REMARK    2  A    between atoms: O_2  and  C_3
REMARK    3  A    between atoms: C_3  and  C_4
REMARK    4  A    between atoms: C_7  and  C_8
REMARK    5  A    between atoms: C_8  and  N_9
REMARK    6  A    between atoms: N_9  and  C_10
REMARK    7  A    between atoms: C_13  and  C_14
REMARK                            x       y       z     vdW  Elec       q    Type
REMARK                         _______ _______ _______ _____ _____    ______ ____
ROOT
ATOM      1  N   UNL     1      43.892   5.830  12.300  0.00  0.00    +0.000 N 
ATOM      2  H   UNL     1      43.318   5.346  12.989  0.00  0.00    +0.000 HD
ENDROOT
BRANCH   1   3
ATOM      3  C   UNL     1      45.179   6.100  12.786  0.00  0.00    +0.000 A 
ATOM      4  C   UNL     1      45.831   5.169  13.593  0.00  0.00    +0.000 A 
ATOM      5  C   UNL     1      47.129   5.424  14.035  0.00  0.00    +0.000 A 
ATOM      6  C   UNL     1      47.715   6.637  13.707  0.00  0.00    +0.000 A 
ATOM      7  N   UNL     1      47.091   7.610  12.996  0.00  0.00    +0.000 NA
ATOM      8  C   UNL     1      45.834   7.316  12.579  0.00  0.00    +0.000 A 
BRANCH   6   9
ATOM      9  C   UNL     1      49.127   6.902  14.101  0.00  0.00    +0.000 C 
ATOM     10  N   UNL     1      49.930   7.428  13.114  0.00  0.00    +0.000 N 
ATOM     11  O   UNL     1      49.563   6.662  15.215  0.00  0.00    +0.000 OA
ATOM     12  H   UNL     1      49.549   7.599  12.191  0.00  0.00    +0.000 HD
ATOM     13  H   UNL     1      50.903   7.604  13.317  0.00  0.00    +0.000 HD
ENDBRANCH   6   9
ENDBRANCH   1   3
BRANCH   1  14
ATOM     14  C   UNL     1      43.829   5.201  10.979  0.00  0.00    +0.000 C 
BRANCH  14  18
ATOM     15  C   UNL     1      44.733   2.589   8.392  0.00  0.00    +0.000 C 
ATOM     16  C   UNL     1      44.226   2.270   9.809  0.00  0.00    +0.000 C 
ATOM     17  C   UNL     1      45.043   2.978  10.893  0.00  0.00    +0.000 C 
ATOM     18  C   UNL     1      45.156   4.496  10.669  0.00  0.00    +0.000 C 
ATOM     19  C   UNL     1      45.631   4.813   9.241  0.00  0.00    +0.000 C 
ATOM     20  C   UNL     1      44.792   4.109   8.175  0.00  0.00    +0.000 C 
BRANCH  15  21
ATOM     21  C   UNL     1      46.093   1.920   8.135  0.00  0.00    +0.000 C 
BRANCH  21  23
ATOM     22  C   UNL     1      47.940   2.460   6.781  0.00  0.00    +0.000 C 
ATOM     23  O   UNL     1      46.538   2.251   6.818  0.00  0.00    +0.000 OA
ENDBRANCH  21  23
ENDBRANCH  15  21
ENDBRANCH  14  18
ENDBRANCH   1  14
TORSDOF 6
ENDMDL
MODEL 5
REMARK VINA RESULT:    -5.655      2.961      5.119
REMARK INTER + INTRA:          -8.104
REMARK INTER:                  -7.704
REMARK INTRA:                  -0.399
REMARK UNBOUND:                -0.465
REMARK  Name = 
REMARK  7 active torsions:
REMARK  status: ('A' for Active; 'I' for Inactive)
REMARK    1  A    between atoms: C_1  and  O_2
REMARK    2  A    between atoms: O_2  and  C_3
REMARK    3  A    between atoms: C_3  and  C_4
REMARK    4  A    between atoms: C_7  and  C_8
REMARK    5  A    between atoms: C_8  and  N_9
REMARK    6  A    between atoms: N_9  and  C_10
REMARK    7  A    between atoms: C_13  and  C_14
REMARK                            x       y       z     vdW  Elec       q    Type
REMARK                         _______ _______ _______ _____ _____    ______ ____
ROOT
ATOM      1  N   UNL     1      46.761   5.289  14.704  0.00  0.00    +0.000 N 
ATOM      2  H   UNL     1      47.453   6.022  14.846  0.00  0.00    +0.000 HD
ENDROOT
BRANCH   1   3
ATOM      3  C   UNL     1      46.348   5.209  13.367  0.00  0.00    +0.000 A 
ATOM      4  C   UNL     1      46.580   6.275  12.498  0.00  0.00    +0.000 A 
ATOM      5  C   UNL     1      46.208   6.170  11.158  0.00  0.00    +0.000 A 
ATOM      6  C   UNL     1      45.555   5.021  10.738  0.00  0.00    +0.000 A 
ATOM      7  N   UNL     1      45.231   3.992  11.563  0.00  0.00    +0.000 NA
ATOM      8  C   UNL     1      45.620   4.132  12.855  0.00  0.00    +0.000 A 
BRANCH   6   9
ATOM      9  C   UNL     1      45.216   4.851   9.298  0.00  0.00    +0.000 C 
ATOM     10  N   UNL     1      43.934   4.427   9.035  0.00  0.00    +0.000 N 
ATOM     11  O   UNL     1      46.016   5.056   8.399  0.00  0.00    +0.000 OA
ATOM     12  H   UNL     1      43.296   4.243   9.801  0.00  0.00    +0.000 HD
ATOM     13  H   UNL     1      43.657   4.269   8.077  0.00  0.00    +0.000 HD
ENDBRANCH   6   9
ENDBRANCH   1   3
BRANCH   1  14
ATOM     14  C   UNL     1      47.153   4.022  15.326  0.00  0.00    +0.000 C 
BRANCH  14  18
ATOM     15  C   UNL     1      50.076   4.150  17.727  0.00  0.00    +0.000 C 
ATOM     16  C   UNL     1      49.355   2.859  17.306  0.00  0.00    +0.000 C 
ATOM     17  C   UNL     1      47.840   2.944  17.514  0.00  0.00    +0.000 C 
ATOM     18  C   UNL     1      47.207   4.180  16.851  0.00  0.00    +0.000 C 
ATOM     19  C   UNL     1      47.952   5.465  17.248  0.00  0.00    +0.000 C 
ATOM     20  C   UNL     1      49.459   5.365  17.016  0.00  0.00    +0.000 C 
BRANCH  15  21
ATOM     21  C   UNL     1      50.059   4.311  19.256  0.00  0.00    +0.000 C 
BRANCH  21  23
ATOM     22  C   UNL     1      52.378   4.047  18.960  0.00  0.00    +0.000 C 
ATOM     23  O   UNL     1      51.360   4.696  19.703  0.00  0.00    +0.000 OA
ENDBRANCH  21  23
ENDBRANCH  15  21
ENDBRANCH  14  18
ENDBRANCH   1  14
TORSDOF 6
ENDMDL
MODEL 6
REMARK VINA RESULT:    -5.565      3.321      6.108
REMARK INTER + INTRA:          -7.982
REMARK INTER:                  -7.874
REMARK INTRA:                  -0.108
REMARK UNBOUND:                -0.465
REMARK  Name = 
REMARK  7 active torsions:
REMARK  status: ('A' for Active; 'I' for Inactive)
REMARK    1  A    between atoms: C_1  and  O_2
REMARK    2  A    between atoms: O_2  and  C_3
REMARK    3  A    between atoms: C_3  and  C_4
REMARK    4  A    between atoms: C_7  and  C_8
REMARK    5  A    between atoms: C_8  and  N_9
REMARK    6  A    between atoms: N_9  and  C_10
REMARK    7  A    between atoms: C_13  and  C_14
REMARK                            x       y       z     vdW  Elec       q    Type
REMARK                         _______ _______ _______ _____ _____    ______ ____
ROOT
ATOM      1  N   UNL     1      45.158   5.140  13.576  0.00  0.00    +0.000 N 
ATOM      2  H   UNL     1      45.228   4.130  13.468  0.00  0.00    +0.000 HD
ENDROOT
BRANCH   1   3
ATOM      3  C   UNL     1      46.371   5.784  13.298  0.00  0.00    +0.000 A 
ATOM      4  C   UNL     1      46.506   6.557  12.145  0.00  0.00    +0.000 A 
ATOM      5  C   UNL     1      47.700   7.232  11.899  0.00  0.00    +0.000 A 
ATOM      6  C   UNL     1      48.753   7.062  12.785  0.00  0.00    +0.000 A 
ATOM      7  N   UNL     1      48.701   6.255  13.875  0.00  0.00    +0.000 NA
ATOM      8  C   UNL     1      47.517   5.626  14.081  0.00  0.00    +0.000 A 
BRANCH   6   9
ATOM      9  C   UNL     1      50.013   7.832  12.587  0.00  0.00    +0.000 C 
ATOM     10  N   UNL     1      50.938   7.729  13.601  0.00  0.00    +0.000 N 
ATOM     11  O   UNL     1      50.222   8.523  11.603  0.00  0.00    +0.000 OA
ATOM     12  H   UNL     1      50.731   7.166  14.418  0.00  0.00    +0.000 HD
ATOM     13  H   UNL     1      51.799   8.250  13.532  0.00  0.00    +0.000 HD
ENDBRANCH   6   9
ENDBRANCH   1   3
BRANCH   1  14
ATOM     14  C   UNL     1      43.977   5.692  12.907  0.00  0.00    +0.000 C 
BRANCH  14  18
ATOM     15  C   UNL     1      45.193   3.298  10.239  0.00  0.00    +0.000 C 
ATOM     16  C   UNL     1      44.604   4.690   9.954  0.00  0.00    +0.000 C 
ATOM     17  C   UNL     1      43.240   4.892  10.617  0.00  0.00    +0.000 C 
ATOM     18  C   UNL     1      43.251   4.589  12.126  0.00  0.00    +0.000 C 
ATOM     19  C   UNL     1      43.870   3.211  12.410  0.00  0.00    +0.000 C 
ATOM     20  C   UNL     1      45.239   3.036  11.753  0.00  0.00    +0.000 C 
BRANCH  15  21
ATOM     21  C   UNL     1      44.405   2.208   9.493  0.00  0.00    +0.000 C 
BRANCH  21  23
ATOM     22  C   UNL     1      46.272   1.977   8.080  0.00  0.00    +0.000 C 
ATOM     23  O   UNL     1      45.323   1.298   8.885  0.00  0.00    +0.000 OA
ENDBRANCH  21  23
ENDBRANCH  15  21
ENDBRANCH  14  18
ENDBRANCH   1  14
TORSDOF 6
ENDMDL
MODEL 7
REMARK VINA RESULT:    -5.564      3.708      6.976
REMARK INTER + INTRA:          -7.980
REMARK INTER:                  -7.493
REMARK INTRA:                  -0.487
REMARK UNBOUND:                -0.465
REMARK  Name = 
REMARK  7 active torsions:
REMARK  status: ('A' for Active; 'I' for Inactive)
REMARK    1  A    between atoms: C_1  and  O_2
REMARK    2  A    between atoms: O_2  and  C_3
REMARK    3  A    between atoms: C_3  and  C_4
REMARK    4  A    between atoms: C_7  and  C_8
REMARK    5  A    between atoms: C_8  and  N_9
REMARK    6  A    between atoms: N_9  and  C_10
REMARK    7  A    between atoms: C_13  and  C_14
REMARK                            x       y       z     vdW  Elec       q    Type
REMARK                         _______ _______ _______ _____ _____    ______ ____
ROOT
ATOM      1  N   UNL     1      44.351   6.584  12.663  0.00  0.00    +0.000 N 
ATOM      2  H   UNL     1      44.553   6.005  13.476  0.00  0.00    +0.000 HD
ENDROOT
BRANCH   1   3
ATOM      3  C   UNL     1      45.294   7.608  12.500  0.00  0.00    +0.000 A 
ATOM      4  C   UNL     1      46.571   7.477  13.046  0.00  0.00    +0.000 A 
ATOM      5  C   UNL     1      47.518   8.479  12.841  0.00  0.00    +0.000 A 
ATOM      6  C   UNL     1      47.140   9.618  12.147  0.00  0.00    +0.000 A 
ATOM      7  N   UNL     1      45.887   9.831  11.669  0.00  0.00    +0.000 NA
ATOM      8  C   UNL     1      45.001   8.826  11.882  0.00  0.00    +0.000 A 
BRANCH   6   9
ATOM      9  C   UNL     1      48.153  10.669  11.848  0.00  0.00    +0.000 C 
ATOM     10  N   UNL     1      48.850  11.149  12.933  0.00  0.00    +0.000 N 
ATOM     11  O   UNL     1      48.353  11.097  10.723  0.00  0.00    +0.000 OA
ATOM     12  H   UNL     1      48.648  10.791  13.860  0.00  0.00    +0.000 HD
ATOM     13  H   UNL     1      49.530  11.880  12.793  0.00  0.00    +0.000 HD
ENDBRANCH   6   9
ENDBRANCH   1   3
BRANCH   1  14
ATOM     14  C   UNL     1      44.064   5.787  11.467  0.00  0.00    +0.000 C 
BRANCH  14  18
ATOM     15  C   UNL     1      44.421   2.816   9.150  0.00  0.00    +0.000 C 
ATOM     16  C   UNL     1      44.056   2.715  10.640  0.00  0.00    +0.000 C 
ATOM     17  C   UNL     1      45.053   3.455  11.535  0.00  0.00    +0.000 C 
ATOM     18  C   UNL     1      45.277   4.917  11.112  0.00  0.00    +0.000 C 
ATOM     19  C   UNL     1      45.609   5.016   9.614  0.00  0.00    +0.000 C 
ATOM     20  C   UNL     1      44.592   4.286   8.738  0.00  0.00    +0.000 C 
BRANCH  15  21
ATOM     21  C   UNL     1      45.676   1.984   8.838  0.00  0.00    +0.000 C 
BRANCH  21  23
ATOM     22  C   UNL     1      47.298   1.568   7.185  0.00  0.00    +0.000 C 
ATOM     23  O   UNL     1      46.192   2.371   7.563  0.00  0.00    +0.000 OA
ENDBRANCH  21  23
ENDBRANCH  15  21
ENDBRANCH  14  18
ENDBRANCH   1  14
TORSDOF 6
ENDMDL
MODEL 8
REMARK VINA RESULT:    -5.461      4.423      7.799
REMARK INTER + INTRA:          -7.841
REMARK INTER:                  -7.282
REMARK INTRA:                  -0.558
REMARK UNBOUND:                -0.465
REMARK  Name = 
REMARK  7 active torsions:
REMARK  status: ('A' for Active; 'I' for Inactive)
REMARK    1  A    between atoms: C_1  and  O_2
REMARK    2  A    between atoms: O_2  and  C_3
REMARK    3  A    between atoms: C_3  and  C_4
REMARK    4  A    between atoms: C_7  and  C_8
REMARK    5  A    between atoms: C_8  and  N_9
REMARK    6  A    between atoms: N_9  and  C_10
REMARK    7  A    between atoms: C_13  and  C_14
REMARK                            x       y       z     vdW  Elec       q    Type
REMARK                         _______ _______ _______ _____ _____    ______ ____
ROOT
ATOM      1  N   UNL     1      47.416   5.095  15.941  0.00  0.00    +0.000 N 
ATOM      2  H   UNL     1      46.977   5.652  16.672  0.00  0.00    +0.000 HD
ENDROOT
BRANCH   1   3
ATOM      3  C   UNL     1      48.470   4.316  16.437  0.00  0.00    +0.000 A 
ATOM      4  C   UNL     1      48.304   2.942  16.609  0.00  0.00    +0.000 A 
ATOM      5  C   UNL     1      49.371   2.166  17.058  0.00  0.00    +0.000 A 
ATOM      6  C   UNL     1      50.560   2.799  17.386  0.00  0.00    +0.000 A 
ATOM      7  N   UNL     1      50.745   4.142  17.318  0.00  0.00    +0.000 NA
ATOM      8  C   UNL     1      49.685   4.857  16.866  0.00  0.00    +0.000 A 
BRANCH   6   9
ATOM      9  C   UNL     1      51.739   1.985  17.796  0.00  0.00    +0.000 C 
ATOM     10  N   UNL     1      51.514   0.633  17.923  0.00  0.00    +0.000 N 
ATOM     11  O   UNL     1      52.836   2.471  18.022  0.00  0.00    +0.000 OA
ATOM     12  H   UNL     1      50.588   0.258  17.750  0.00  0.00    +0.000 HD
ATOM     13  H   UNL     1      52.270   0.037  18.223  0.00  0.00    +0.000 HD
ENDBRANCH   6   9
ENDBRANCH   1   3
BRANCH   1  14
ATOM     14  C   UNL     1      46.436   4.387  15.113  0.00  0.00    +0.000 C 
BRANCH  14  18
ATOM     15  C   UNL     1      44.451   5.302  12.023  0.00  0.00    +0.000 C 
ATOM     16  C   UNL     1      44.584   3.874  12.578  0.00  0.00    +0.000 C 
ATOM     17  C   UNL     1      46.043   3.463  12.786  0.00  0.00    +0.000 C 
ATOM     18  C   UNL     1      46.840   4.470  13.635  0.00  0.00    +0.000 C 
ATOM     19  C   UNL     1      46.678   5.900  13.096  0.00  0.00    +0.000 C 
ATOM     20  C   UNL     1      45.214   6.296  12.913  0.00  0.00    +0.000 C 
BRANCH  15  21
ATOM     21  C   UNL     1      44.922   5.365  10.560  0.00  0.00    +0.000 C 
BRANCH  21  23
ATOM     22  C   UNL     1      44.788   3.968   8.671  0.00  0.00    +0.000 C 
ATOM     23  O   UNL     1      44.078   4.536   9.758  0.00  0.00    +0.000 OA
ENDBRANCH  21  23
ENDBRANCH  15  21
ENDBRANCH  14  18
ENDBRANCH   1  14
TORSDOF 6
ENDMDL
MODEL 9
REMARK VINA RESULT:    -5.428      3.660      5.015
REMARK INTER + INTRA:          -7.797
REMARK INTER:                  -7.043
REMARK INTRA:                  -0.754
REMARK UNBOUND:                -0.465
REMARK  Name = 
REMARK  7 active torsions:
REMARK  status: ('A' for Active; 'I' for Inactive)
REMARK    1  A    between atoms: C_1  and  O_2
REMARK    2  A    between atoms: O_2  and  C_3
REMARK    3  A    between atoms: C_3  and  C_4
REMARK    4  A    between atoms: C_7  and  C_8
REMARK    5  A    between atoms: C_8  and  N_9
REMARK    6  A    between atoms: N_9  and  C_10
REMARK    7  A    between atoms: C_13  and  C_14
REMARK                            x       y       z     vdW  Elec       q    Type
REMARK                         _______ _______ _______ _____ _____    ______ ____
ROOT
ATOM      1  N   UNL     1      46.123   6.133  13.516  0.00  0.00    +0.000 N 
ATOM      2  H   UNL     1      45.493   6.041  14.311  0.00  0.00    +0.000 HD
ENDROOT
BRANCH   1   3
ATOM      3  C   UNL     1      45.706   5.361  12.423  0.00  0.00    +0.000 A 
ATOM      4  C   UNL     1      45.709   5.906  11.140  0.00  0.00    +0.000 A 
ATOM      5  C   UNL     1      45.337   5.118  10.051  0.00  0.00    +0.000 A 
ATOM      6  C   UNL     1      44.911   3.820  10.287  0.00  0.00    +0.000 A 
ATOM      7  N   UNL     1      44.809   3.270  11.524  0.00  0.00    +0.000 NA
ATOM      8  C   UNL     1      45.190   4.069  12.553  0.00  0.00    +0.000 A 
BRANCH   6   9
ATOM      9  C   UNL     1      44.581   2.932   9.136  0.00  0.00    +0.000 C 
ATOM     10  N   UNL     1      44.327   3.573   7.945  0.00  0.00    +0.000 N 
ATOM     11  O   UNL     1      44.522   1.717   9.231  0.00  0.00    +0.000 OA
ATOM     12  H   UNL     1      44.362   4.585   7.899  0.00  0.00    +0.000 HD
ATOM     13  H   UNL     1      44.073   3.023   7.138  0.00  0.00    +0.000 HD
ENDBRANCH   6   9
ENDBRANCH   1   3
BRANCH   1  14
ATOM     14  C   UNL     1      46.450   7.531  13.220  0.00  0.00    +0.000 C 
BRANCH  14  18
ATOM     15  C   UNL     1      49.334   9.223  11.448  0.00  0.00    +0.000 C 
ATOM     16  C   UNL     1      49.059   7.710  11.410  0.00  0.00    +0.000 C 
ATOM     17  C   UNL     1      48.915   7.110  12.811  0.00  0.00    +0.000 C 
ATOM     18  C   UNL     1      47.879   7.845  13.680  0.00  0.00    +0.000 C 
ATOM     19  C   UNL     1      48.137   9.360  13.688  0.00  0.00    +0.000 C 
ATOM     20  C   UNL     1      48.261   9.942  12.280  0.00  0.00    +0.000 C 
BRANCH  15  21
ATOM     21  C   UNL     1      50.751   9.507  11.971  0.00  0.00    +0.000 C 
BRANCH  21  23
ATOM     22  C   UNL     1      52.393   9.512  10.286  0.00  0.00    +0.000 C 
ATOM     23  O   UNL     1      51.691   8.724  11.233  0.00  0.00    +0.000 OA
ENDBRANCH  21  23
ENDBRANCH  15  21
ENDBRANCH  14  18
ENDBRANCH   1  14
TORSDOF 6
ENDMDL
