MODEL 1
REMARK VINA RESULT:    -7.748      0.000      0.000
REMARK INTER + INTRA:         -11.152
REMARK INTER:                 -10.466
REMARK INTRA:                  -0.686
REMARK UNBOUND:                -0.686
REMARK  Name = 
REMARK  7 active torsions:
REMARK  status: ('A' for Active; 'I' for Inactive)
REMARK    1  A    between atoms: C_1  and  C_2
REMARK    2  A    between atoms: C_2  and  C_3
REMARK    3  A    between atoms: C_2  and  C_14
REMARK    4  A    between atoms: C_3  and  N_4
REMARK    5  A    between atoms: N_4  and  C_5
REMARK    6  A    between atoms: C_8  and  C_9
REMARK    7  A    between atoms: C_18  and  C_19
REMARK                            x       y       z     vdW  Elec       q    Type
REMARK                         _______ _______ _______ _____ _____    ______ ____
ROOT
ATOM      1  N   UNL     1      43.879   4.942   9.866  0.00  0.00    +0.000 N 
ATOM      2  H   UNL     1      44.148   5.883   9.583  0.00  0.00    +0.000 HD
ENDROOT
BRANCH   1   3
ATOM      3  C   UNL     1      44.692   3.972   9.259  0.00  0.00    +0.000 A 
ATOM      4  C   UNL     1      45.667   4.363   8.335  0.00  0.00    +0.000 A 
ATOM      5  C   UNL     1      46.459   3.405   7.698  0.00  0.00    +0.000 A 
ATOM      6  C   UNL     1      46.227   2.066   7.980  0.00  0.00    +0.000 A 
ATOM      7  N   UNL     1      45.259   1.630   8.826  0.00  0.00    +0.000 NA
ATOM      8  C   UNL     1      44.515   2.592   9.418  0.00  0.00    +0.000 A 
BRANCH   6   9
ATOM      9  C   UNL     1      47.070   1.008   7.334  0.00  0.00    +0.000 C 
ATOM     10  N   UNL     1      46.759  -0.281   7.677  0.00  0.00    +0.000 N 
ATOM     11  O   UNL     1      47.979   1.270   6.560  0.00  0.00    +0.000 OA
ATOM     12  H   UNL     1      45.998  -0.458   8.324  0.00  0.00    +0.000 HD
ATOM     13  H   UNL     1      47.291  -1.042   7.283  0.00  0.00    +0.000 HD
ENDBRANCH   6   9
ENDBRANCH   1   3
BRANCH   1  14
ATOM     14  C   UNL     1      43.728   4.839  11.315  0.00  0.00    +0.000 C 
BRANCH  14  16
ATOM     15  C   UNL     1      45.600   3.833  12.766  0.00  0.00    +0.000 C 
ATOM     16  C   UNL     1      45.087   4.961  11.926  0.00  0.00    +0.000 C 
BRANCH  16  17
ATOM     17  C   UNL     1      45.733   6.276  11.992  0.00  0.00    +0.000 A 
ATOM     18  C   UNL     1      47.128   6.406  12.031  0.00  0.00    +0.000 A 
ATOM     19  C   UNL     1      47.723   7.669  12.074  0.00  0.00    +0.000 A 
ATOM     20  C   UNL     1      46.928   8.814  12.073  0.00  0.00    +0.000 A 
ATOM     21  C   UNL     1      45.538   8.696  12.030  0.00  0.00    +0.000 A 
ATOM     22  C   UNL     1      44.945   7.432  11.994  0.00  0.00    +0.000 A 
BRANCH  21  23
ATOM     23  C   UNL     1      44.713   9.867  12.008  0.00  0.00    +0.000 C 
ATOM     24  N   UNL     1      44.046  10.814  12.005  0.00  0.00    +0.000 NA
ENDBRANCH  21  23
ENDBRANCH  16  17
ENDBRANCH  14  16
ENDBRANCH   1  14
TORSDOF 6
ENDMDL
MODEL 2
REMARK VINA RESULT:    -7.673      1.535      2.109
REMARK INTER + INTRA:         -11.051
REMARK INTER:                 -10.278
REMARK INTRA:                  -0.773
REMARK UNBOUND:                -0.686
REMARK  Name = 
REMARK  7 active torsions:
REMARK  status: ('A' for Active; 'I' for Inactive)
REMARK    1  A    between atoms: C_1  and  C_2
REMARK    2  A    between atoms: C_2  and  C_3
REMARK    3  A    between atoms: C_2  and  C_14
REMARK    4  A    between atoms: C_3  and  N_4
REMARK    5  A    between atoms: N_4  and  C_5
REMARK    6  A    between atoms: C_8  and  C_9
REMARK    7  A    between atoms: C_18  and  C_19
REMARK                            x       y       z     vdW  Elec       q    Type
REMARK                         _______ _______ _______ _____ _____    ______ ____
ROOT
ATOM      1  N   UNL     1      43.821   4.912   9.886  0.00  0.00    +0.000 N 
ATOM      2  H   UNL     1      44.075   5.859   9.609  0.00  0.00    +0.000 HD
ENDROOT
BRANCH   1   3
ATOM      3  C   UNL     1      44.649   3.960   9.273  0.00  0.00    +0.000 A 
ATOM      4  C   UNL     1      45.597   4.368   8.330  0.00  0.00    +0.000 A 
ATOM      5  C   UNL     1      46.403   3.426   7.687  0.00  0.00    +0.000 A 
ATOM      6  C   UNL     1      46.210   2.083   7.983  0.00  0.00    +0.000 A 
ATOM      7  N   UNL     1      45.268   1.629   8.848  0.00  0.00    +0.000 NA
ATOM      8  C   UNL     1      44.509   2.577   9.445  0.00  0.00    +0.000 A 
BRANCH   6   9
ATOM      9  C   UNL     1      47.069   1.042   7.331  0.00  0.00    +0.000 C 
ATOM     10  N   UNL     1      46.785  -0.253   7.674  0.00  0.00    +0.000 N 
ATOM     11  O   UNL     1      47.969   1.322   6.552  0.00  0.00    +0.000 OA
ATOM     12  H   UNL     1      46.031  -0.445   8.325  0.00  0.00    +0.000 HD
ATOM     13  H   UNL     1      47.329  -1.004   7.276  0.00  0.00    +0.000 HD
ENDBRANCH   6   9
ENDBRANCH   1   3
BRANCH   1  14
ATOM     14  C   UNL     1      43.672   4.799  11.335  0.00  0.00    +0.000 C 
BRANCH  14  16
ATOM     15  C   UNL     1      45.565   3.790  12.758  0.00  0.00    +0.000 C 
ATOM     16  C   UNL     1      45.030   4.930  11.945  0.00  0.00    +0.000 C 
BRANCH  16  17
ATOM     17  C   UNL     1      45.654   6.254  12.041  0.00  0.00    +0.000 A 
ATOM     18  C   UNL     1      44.916   7.386  12.408  0.00  0.00    +0.000 A 
ATOM     19  C   UNL     1      45.535   8.634  12.512  0.00  0.00    +0.000 A 
ATOM     20  C   UNL     1      46.900   8.759  12.254  0.00  0.00    +0.000 A 
ATOM     21  C   UNL     1      47.645   7.636  11.892  0.00  0.00    +0.000 A 
ATOM     22  C   UNL     1      47.022   6.391  11.781  0.00  0.00    +0.000 A 
BRANCH  21  23
ATOM     23  C   UNL     1      49.051   7.749  11.644  0.00  0.00    +0.000 C 
ATOM     24  N   UNL     1      50.191   7.833  11.455  0.00  0.00    +0.000 NA
ENDBRANCH  21  23
ENDBRANCH  16  17
ENDBRANCH  14  16
ENDBRANCH   1  14
TORSDOF 6
ENDMDL
MODEL 3
REMARK VINA RESULT:    -7.600      2.328      3.018
REMARK INTER + INTRA:         -10.952
REMARK INTER:                 -10.086
REMARK INTRA:                  -0.867
REMARK UNBOUND:                -0.686
REMARK  Name = 
REMARK  7 active torsions:
REMARK  status: ('A' for Active; 'I' for Inactive)
REMARK    1  A    between atoms: C_1  and  C_2
REMARK    2  A    between atoms: C_2  and  C_3
REMARK    3  A    between atoms: C_2  and  C_14
REMARK    4  A    between atoms: C_3  and  N_4
REMARK    5  A    between atoms: N_4  and  C_5
REMARK    6  A    between atoms: C_8  and  C_9
REMARK    7  A    between atoms: C_18  and  C_19
REMARK                            x       y       z     vdW  Elec       q    Type
REMARK                         _______ _______ _______ _____ _____    ______ ____
ROOT
ATOM      1  N   UNL     1      43.517   3.320  10.345  0.00  0.00    +0.000 N 
ATOM      2  H   UNL     1      43.017   4.183  10.137  0.00  0.00    +0.000 HD
ENDROOT
BRANCH   1   3
ATOM      3  C   UNL     1      44.541   3.084   9.415  0.00  0.00    +0.000 A 
ATOM      4  C   UNL     1      44.979   4.121   8.586  0.00  0.00    +0.000 A 
ATOM      5  C   UNL     1      45.973   3.890   7.633  0.00  0.00    +0.000 A 
ATOM      6  C   UNL     1      46.482   2.604   7.511  0.00  0.00    +0.000 A 
ATOM      7  N   UNL     1      46.055   1.551   8.253  0.00  0.00    +0.000 NA
ATOM      8  C   UNL     1      45.089   1.821   9.161  0.00  0.00    +0.000 A 
BRANCH   6   9
ATOM      9  C   UNL     1      47.566   2.319   6.516  0.00  0.00    +0.000 C 
ATOM     10  N   UNL     1      47.562   3.113   5.400  0.00  0.00    +0.000 N 
ATOM     11  O   UNL     1      48.396   1.436   6.678  0.00  0.00    +0.000 OA
ATOM     12  H   UNL     1      46.856   3.835   5.301  0.00  0.00    +0.000 HD
ATOM     13  H   UNL     1      48.261   2.972   4.686  0.00  0.00    +0.000 HD
ENDBRANCH   6   9
ENDBRANCH   1   3
BRANCH   1  14
ATOM     14  C   UNL     1      43.896   3.245  11.753  0.00  0.00    +0.000 C 
BRANCH  14  16
ATOM     15  C   UNL     1      42.730   5.489  12.234  0.00  0.00    +0.000 C 
ATOM     16  C   UNL     1      43.964   4.642  12.283  0.00  0.00    +0.000 C 
BRANCH  16  17
ATOM     17  C   UNL     1      45.273   5.266  12.506  0.00  0.00    +0.000 A 
ATOM     18  C   UNL     1      45.830   6.152  11.574  0.00  0.00    +0.000 A 
ATOM     19  C   UNL     1      47.069   6.750  11.816  0.00  0.00    +0.000 A 
ATOM     20  C   UNL     1      47.759   6.471  12.995  0.00  0.00    +0.000 A 
ATOM     21  C   UNL     1      47.211   5.593  13.932  0.00  0.00    +0.000 A 
ATOM     22  C   UNL     1      45.976   4.991  13.684  0.00  0.00    +0.000 A 
BRANCH  21  23
ATOM     23  C   UNL     1      47.903   5.315  15.155  0.00  0.00    +0.000 C 
ATOM     24  N   UNL     1      48.469   5.080  16.137  0.00  0.00    +0.000 NA
ENDBRANCH  21  23
ENDBRANCH  16  17
ENDBRANCH  14  16
ENDBRANCH   1  14
TORSDOF 6
ENDMDL
MODEL 4
REMARK VINA RESULT:    -7.547      2.921      6.602
REMARK INTER + INTRA:         -10.880
REMARK INTER:                  -9.899
REMARK INTRA:                  -0.981
REMARK UNBOUND:                -0.686
REMARK  Name = 
REMARK  7 active torsions:
REMARK  status: ('A' for Active; 'I' for Inactive)
REMARK    1  A    between atoms: C_1  and  C_2
REMARK    2  A    between atoms: C_2  and  C_3
REMARK    3  A    between atoms: C_2  and  C_14
REMARK    4  A    between atoms: C_3  and  N_4
REMARK    5  A    between atoms: N_4  and  C_5
REMARK    6  A    between atoms: C_8  and  C_9
REMARK    7  A    between atoms: C_18  and  C_19
REMARK                            x       y       z     vdW  Elec       q    Type
REMARK                         _______ _______ _______ _____ _____    ______ ____
ROOT
ATOM      1  N   UNL     1      43.439   5.263  12.542  0.00  0.00    +0.000 N 
ATOM      2  H   UNL     1      43.211   4.481  13.153  0.00  0.00    +0.000 HD
ENDROOT
BRANCH   1   3
ATOM      3  C   UNL     1      44.753   5.710  12.748  0.00  0.00    +0.000 A 
ATOM      4  C   UNL     1      45.223   6.828  12.053  0.00  0.00    +0.000 A 
ATOM      5  C   UNL     1      46.540   7.262  12.224  0.00  0.00    +0.000 A 
ATOM      6  C   UNL     1      47.369   6.536  13.067  0.00  0.00    +0.000 A 
ATOM      7  N   UNL     1      46.979   5.413  13.724  0.00  0.00    +0.000 NA
ATOM      8  C   UNL     1      45.697   5.028  13.526  0.00  0.00    +0.000 A 
BRANCH   6   9
ATOM      9  C   UNL     1      48.781   6.981  13.295  0.00  0.00    +0.000 C 
ATOM     10  N   UNL     1      49.302   7.799  12.328  0.00  0.00    +0.000 N 
ATOM     11  O   UNL     1      49.434   6.635  14.270  0.00  0.00    +0.000 OA
ATOM     12  H   UNL     1      48.729   8.063  11.533  0.00  0.00    +0.000 HD
ATOM     13  H   UNL     1      50.250   8.132  12.416  0.00  0.00    +0.000 HD
ENDBRANCH   6   9
ENDBRANCH   1   3
BRANCH   1  14
ATOM     14  C   UNL     1      43.062   4.989  11.157  0.00  0.00    +0.000 C 
BRANCH  14  16
ATOM     15  C   UNL     1      43.415   2.513  11.768  0.00  0.00    +0.000 C 
ATOM     16  C   UNL     1      43.596   3.639  10.797  0.00  0.00    +0.000 C 
BRANCH  16  17
ATOM     17  C   UNL     1      44.567   3.515   9.705  0.00  0.00    +0.000 A 
ATOM     18  C   UNL     1      45.075   4.641   9.044  0.00  0.00    +0.000 A 
ATOM     19  C   UNL     1      46.013   4.500   8.019  0.00  0.00    +0.000 A 
ATOM     20  C   UNL     1      46.456   3.231   7.649  0.00  0.00    +0.000 A 
ATOM     21  C   UNL     1      45.960   2.102   8.304  0.00  0.00    +0.000 A 
ATOM     22  C   UNL     1      45.016   2.246   9.323  0.00  0.00    +0.000 A 
BRANCH  21  23
ATOM     23  C   UNL     1      46.422   0.795   7.945  0.00  0.00    +0.000 C 
ATOM     24  N   UNL     1      46.784  -0.265   7.649  0.00  0.00    +0.000 NA
ENDBRANCH  21  23
ENDBRANCH  16  17
ENDBRANCH  14  16
ENDBRANCH   1  14
TORSDOF 6
ENDMDL
MODEL 5
REMARK VINA RESULT:    -7.426      2.094      2.565
REMARK INTER + INTRA:         -10.717
REMARK INTER:                  -9.898
REMARK INTRA:                  -0.819
REMARK UNBOUND:                -0.686
REMARK  Name = 
REMARK  7 active torsions:
REMARK  status: ('A' for Active; 'I' for Inactive)
REMARK    1  A    between atoms: C_1  and  C_2
REMARK    2  A    between atoms: C_2  and  C_3
REMARK    3  A    between atoms: C_2  and  C_14
REMARK    4  A    between atoms: C_3  and  N_4
REMARK    5  A    between atoms: N_4  and  C_5
REMARK    6  A    between atoms: C_8  and  C_9
REMARK    7  A    between atoms: C_18  and  C_19
REMARK                            x       y       z     vdW  Elec       q    Type
REMARK                         _______ _______ _______ _____ _____    ______ ____
ROOT
ATOM      1  N   UNL     1      43.626   4.608   9.990  0.00  0.00    +0.000 N 
ATOM      2  H   UNL     1      42.860   4.968   9.423  0.00  0.00    +0.000 HD
ENDROOT
BRANCH   1   3
ATOM      3  C   UNL     1      44.567   3.924   9.205  0.00  0.00    +0.000 A 
ATOM      4  C   UNL     1      44.700   2.538   9.330  0.00  0.00    +0.000 A 
ATOM      5  C   UNL     1      45.658   1.851   8.579  0.00  0.00    +0.000 A 
ATOM      6  C   UNL     1      46.488   2.584   7.742  0.00  0.00    +0.000 A 
ATOM      7  N   UNL     1      46.438   3.935   7.624  0.00  0.00    +0.000 NA
ATOM      8  C   UNL     1      45.498   4.558   8.372  0.00  0.00    +0.000 A 
BRANCH   6   9
ATOM      9  C   UNL     1      47.513   1.882   6.904  0.00  0.00    +0.000 C 
ATOM     10  N   UNL     1      48.563   2.658   6.489  0.00  0.00    +0.000 N 
ATOM     11  O   UNL     1      47.421   0.701   6.600  0.00  0.00    +0.000 OA
ATOM     12  H   UNL     1      48.603   3.634   6.761  0.00  0.00    +0.000 HD
ATOM     13  H   UNL     1      49.287   2.250   5.916  0.00  0.00    +0.000 HD
ENDBRANCH   6   9
ENDBRANCH   1   3
BRANCH   1  14
ATOM     14  C   UNL     1      44.157   5.631  10.887  0.00  0.00    +0.000 C 
BRANCH  14  16
ATOM     15  C   UNL     1      43.764   4.010  12.848  0.00  0.00    +0.000 C 
ATOM     16  C   UNL     1      44.675   4.942  12.109  0.00  0.00    +0.000 C 
BRANCH  16  17
ATOM     17  C   UNL     1      45.896   5.436  12.754  0.00  0.00    +0.000 A 
ATOM     18  C   UNL     1      46.332   4.927  13.984  0.00  0.00    +0.000 A 
ATOM     19  C   UNL     1      47.509   5.398  14.570  0.00  0.00    +0.000 A 
ATOM     20  C   UNL     1      48.263   6.379  13.929  0.00  0.00    +0.000 A 
ATOM     21  C   UNL     1      47.840   6.891  12.701  0.00  0.00    +0.000 A 
ATOM     22  C   UNL     1      46.659   6.423  12.120  0.00  0.00    +0.000 A 
BRANCH  21  23
ATOM     23  C   UNL     1      48.617   7.885  12.024  0.00  0.00    +0.000 C 
ATOM     24  N   UNL     1      49.257   8.682  11.480  0.00  0.00    +0.000 NA
ENDBRANCH  21  23
ENDBRANCH  16  17
ENDBRANCH  14  16
ENDBRANCH   1  14
TORSDOF 6
ENDMDL
MODEL 6
REMARK VINA RESULT:    -6.457      3.954      6.785
REMARK INTER + INTRA:          -9.408
REMARK INTER:                  -8.819
REMARK INTRA:                  -0.588
REMARK UNBOUND:                -0.686
REMARK  Name = 
REMARK  7 active torsions:
REMARK  status: ('A' for Active; 'I' for Inactive)
REMARK    1  A    between atoms: C_1  and  C_2
REMARK    2  A    between atoms: C_2  and  C_3
REMARK    3  A    between atoms: C_2  and  C_14
REMARK    4  A    between atoms: C_3  and  N_4
REMARK    5  A    between atoms: N_4  and  C_5
REMARK    6  A    between atoms: C_8  and  C_9
REMARK    7  A    between atoms: C_18  and  C_19
REMARK                            x       y       z     vdW  Elec       q    Type
REMARK                         _______ _______ _______ _____ _____    ______ ____
ROOT
ATOM      1  N   UNL     1      46.547   6.701  13.114  0.00  0.00    +0.000 N 
ATOM      2  H   UNL     1      45.578   6.955  13.299  0.00  0.00    +0.000 HD
ENDROOT
BRANCH   1   3
ATOM      3  C   UNL     1      46.985   5.686  13.978  0.00  0.00    +0.000 A 
ATOM      4  C   UNL     1      47.733   6.015  15.113  0.00  0.00    +0.000 A 
ATOM      5  C   UNL     1      48.204   5.012  15.962  0.00  0.00    +0.000 A 
ATOM      6  C   UNL     1      47.942   3.690  15.629  0.00  0.00    +0.000 A 
ATOM      7  N   UNL     1      47.268   3.313  14.512  0.00  0.00    +0.000 NA
ATOM      8  C   UNL     1      46.833   4.318  13.718  0.00  0.00    +0.000 A 
BRANCH   6   9
ATOM      9  C   UNL     1      48.411   2.585  16.526  0.00  0.00    +0.000 C 
ATOM     10  N   UNL     1      47.824   2.542  17.762  0.00  0.00    +0.000 N 
ATOM     11  O   UNL     1      49.265   1.777  16.187  0.00  0.00    +0.000 OA
ATOM     12  H   UNL     1      47.120   3.230  18.007  0.00  0.00    +0.000 HD
ATOM     13  H   UNL     1      48.098   1.826  18.419  0.00  0.00    +0.000 HD
ENDBRANCH   6   9
ENDBRANCH   1   3
BRANCH   1  14
ATOM     14  C   UNL     1      46.781   6.478  11.689  0.00  0.00    +0.000 C 
BRANCH  14  16
ATOM     15  C   UNL     1      44.315   7.161  11.409  0.00  0.00    +0.000 C 
ATOM     16  C   UNL     1      45.453   6.261  11.037  0.00  0.00    +0.000 C 
BRANCH  16  17
ATOM     17  C   UNL     1      45.190   4.999  10.338  0.00  0.00    +0.000 A 
ATOM     18  C   UNL     1      44.365   4.012  10.893  0.00  0.00    +0.000 A 
ATOM     19  C   UNL     1      44.112   2.826  10.200  0.00  0.00    +0.000 A 
ATOM     20  C   UNL     1      44.679   2.618   8.943  0.00  0.00    +0.000 A 
ATOM     21  C   UNL     1      45.499   3.597   8.379  0.00  0.00    +0.000 A 
ATOM     22  C   UNL     1      45.756   4.779   9.077  0.00  0.00    +0.000 A 
BRANCH  21  23
ATOM     23  C   UNL     1      46.070   3.402   7.081  0.00  0.00    +0.000 C 
ATOM     24  N   UNL     1      46.525   3.255   6.025  0.00  0.00    +0.000 NA
ENDBRANCH  21  23
ENDBRANCH  16  17
ENDBRANCH  14  16
ENDBRANCH   1  14
TORSDOF 6
ENDMDL
MODEL 7
REMARK VINA RESULT:    -6.126      4.327      7.009
REMARK INTER + INTRA:          -8.960
REMARK INTER:                  -8.354
REMARK INTRA:                  -0.606
REMARK UNBOUND:                -0.686
REMARK  Name = 
REMARK  7 active torsions:
REMARK  status: ('A' for Active; 'I' for Inactive)
REMARK    1  A    between atoms: C_1  and  C_2
REMARK    2  A    between atoms: C_2  and  C_3
REMARK    3  A    between atoms: C_2  and  C_14
REMARK    4  A    between atoms: C_3  and  N_4
REMARK    5  A    between atoms: N_4  and  C_5
REMARK    6  A    between atoms: C_8  and  C_9
REMARK    7  A    between atoms: C_18  and  C_19
REMARK                            x       y       z     vdW  Elec       q    Type
REMARK                         _______ _______ _______ _____ _____    ______ ____
ROOT
ATOM      1  N   UNL     1      47.322   6.440  12.845  0.00  0.00    +0.000 N 
ATOM      2  H   UNL     1      48.230   6.719  12.477  0.00  0.00    +0.000 HD
ENDROOT
BRANCH   1   3
ATOM      3  C   UNL     1      47.453   5.714  14.038  0.00  0.00    +0.000 A 
ATOM      4  C   UNL     1      48.220   6.232  15.086  0.00  0.00    +0.000 A 
ATOM      5  C   UNL     1      48.387   5.503  16.266  0.00  0.00    +0.000 A 
ATOM      6  C   UNL     1      47.804   4.245  16.350  0.00  0.00    +0.000 A 
ATOM      7  N   UNL     1      47.096   3.673  15.343  0.00  0.00    +0.000 NA
ATOM      8  C   UNL     1      46.963   4.414  14.219  0.00  0.00    +0.000 A 
BRANCH   6   9
ATOM      9  C   UNL     1      47.941   3.440  17.607  0.00  0.00    +0.000 C 
ATOM     10  N   UNL     1      46.898   2.596  17.879  0.00  0.00    +0.000 N 
ATOM     11  O   UNL     1      48.910   3.532  18.347  0.00  0.00    +0.000 OA
ATOM     12  H   UNL     1      46.111   2.549  17.241  0.00  0.00    +0.000 HD
ATOM     13  H   UNL     1      46.923   2.028  18.713  0.00  0.00    +0.000 HD
ENDBRANCH   6   9
ENDBRANCH   1   3
BRANCH   1  14
ATOM     14  C   UNL     1      46.387   7.562  12.873  0.00  0.00    +0.000 C 
BRANCH  14  16
ATOM     15  C   UNL     1      44.575   8.386  11.242  0.00  0.00    +0.000 C 
ATOM     16  C   UNL     1      45.272   7.251  11.926  0.00  0.00    +0.000 C 
BRANCH  16  17
ATOM     17  C   UNL     1      44.658   5.919  11.946  0.00  0.00    +0.000 A 
ATOM     18  C   UNL     1      43.769   5.538  12.959  0.00  0.00    +0.000 A 
ATOM     19  C   UNL     1      43.180   4.271  12.948  0.00  0.00    +0.000 A 
ATOM     20  C   UNL     1      43.472   3.376  11.920  0.00  0.00    +0.000 A 
ATOM     21  C   UNL     1      44.354   3.748  10.903  0.00  0.00    +0.000 A 
ATOM     22  C   UNL     1      44.946   5.012  10.921  0.00  0.00    +0.000 A 
BRANCH  21  23
ATOM     23  C   UNL     1      44.645   2.843   9.831  0.00  0.00    +0.000 C 
ATOM     24  N   UNL     1      44.874   2.120   8.956  0.00  0.00    +0.000 NA
ENDBRANCH  21  23
ENDBRANCH  16  17
ENDBRANCH  14  16
ENDBRANCH   1  14
TORSDOF 6
ENDMDL
MODEL 8
REMARK VINA RESULT:    -5.817      4.323      6.239
REMARK INTER + INTRA:          -8.544
REMARK INTER:                  -7.886
REMARK INTRA:                  -0.657
REMARK UNBOUND:                -0.686
REMARK  Name = 
REMARK  7 active torsions:
REMARK  status: ('A' for Active; 'I' for Inactive)
REMARK    1  A    between atoms: C_1  and  C_2
REMARK    2  A    between atoms: C_2  and  C_3
REMARK    3  A    between atoms: C_2  and  C_14
REMARK    4  A    between atoms: C_3  and  N_4
REMARK    5  A    between atoms: N_4  and  C_5
REMARK    6  A    between atoms: C_8  and  C_9
REMARK    7  A    between atoms: C_18  and  C_19
REMARK                            x       y       z     vdW  Elec       q    Type
REMARK                         _______ _______ _______ _____ _____    ______ ____
ROOT
ATOM      1  N   UNL     1      47.048   7.360  13.635  0.00  0.00    +0.000 N 
ATOM      2  H   UNL     1      46.866   8.342  13.439  0.00  0.00    +0.000 HD
ENDROOT
BRANCH   1   3
ATOM      3  C   UNL     1      46.306   6.521  12.790  0.00  0.00    +0.000 A 
ATOM      4  C   UNL     1      45.676   5.388  13.314  0.00  0.00    +0.000 A 
ATOM      5  C   UNL     1      44.964   4.526  12.477  0.00  0.00    +0.000 A 
ATOM      6  C   UNL     1      44.932   4.806  11.117  0.00  0.00    +0.000 A 
ATOM      7  N   UNL     1      45.571   5.861  10.549  0.00  0.00    +0.000 NA
ATOM      8  C   UNL     1      46.250   6.667  11.398  0.00  0.00    +0.000 A 
BRANCH   6   9
ATOM      9  C   UNL     1      44.160   3.919  10.188  0.00  0.00    +0.000 C 
ATOM     10  N   UNL     1      44.068   4.361   8.896  0.00  0.00    +0.000 N 
ATOM     11  O   UNL     1      43.639   2.874  10.554  0.00  0.00    +0.000 OA
ATOM     12  H   UNL     1      44.513   5.233   8.631  0.00  0.00    +0.000 HD
ATOM     13  H   UNL     1      43.558   3.814   8.218  0.00  0.00    +0.000 HD
ENDBRANCH   6   9
ENDBRANCH   1   3
BRANCH   1  14
ATOM     14  C   UNL     1      48.481   7.086  13.718  0.00  0.00    +0.000 C 
BRANCH  14  16
ATOM     15  C   UNL     1      49.381   8.788  15.427  0.00  0.00    +0.000 C 
ATOM     16  C   UNL     1      48.925   7.397  15.112  0.00  0.00    +0.000 C 
BRANCH  16  17
ATOM     17  C   UNL     1      49.238   6.298  16.032  0.00  0.00    +0.000 A 
ATOM     18  C   UNL     1      50.487   6.201  16.658  0.00  0.00    +0.000 A 
ATOM     19  C   UNL     1      50.757   5.156  17.546  0.00  0.00    +0.000 A 
ATOM     20  C   UNL     1      49.778   4.202  17.818  0.00  0.00    +0.000 A 
ATOM     21  C   UNL     1      48.528   4.292  17.202  0.00  0.00    +0.000 A 
ATOM     22  C   UNL     1      48.263   5.333  16.310  0.00  0.00    +0.000 A 
BRANCH  21  23
ATOM     23  C   UNL     1      47.508   3.329  17.490  0.00  0.00    +0.000 C 
ATOM     24  N   UNL     1      46.691   2.545  17.734  0.00  0.00    +0.000 NA
ENDBRANCH  21  23
ENDBRANCH  16  17
ENDBRANCH  14  16
ENDBRANCH   1  14
TORSDOF 6
ENDMDL
MODEL 9
REMARK VINA RESULT:    -5.662      6.019      7.513
REMARK INTER + INTRA:          -8.335
REMARK INTER:                  -7.884
REMARK INTRA:                  -0.451
REMARK UNBOUND:                -0.686
REMARK  Name = 
REMARK  7 active torsions:
REMARK  status: ('A' for Active; 'I' for Inactive)
REMARK    1  A    between atoms: C_1  and  C_2
REMARK    2  A    between atoms: C_2  and  C_3
REMARK    3  A    between atoms: C_2  and  C_14
REMARK    4  A    between atoms: C_3  and  N_4
REMARK    5  A    between atoms: N_4  and  C_5
REMARK    6  A    between atoms: C_8  and  C_9
REMARK    7  A    between atoms: C_18  and  C_19
REMARK                            x       y       z     vdW  Elec       q    Type
REMARK                         _______ _______ _______ _____ _____    ______ ____
ROOT
ATOM      1  N   UNL     1      47.540   5.266  15.025  0.00  0.00    +0.000 N 
ATOM      2  H   UNL     1      48.493   5.441  14.709  0.00  0.00    +0.000 HD
ENDROOT
BRANCH   1   3
ATOM      3  C   UNL     1      46.701   4.920  13.955  0.00  0.00    +0.000 A 
ATOM      4  C   UNL     1      46.012   5.920  13.262  0.00  0.00    +0.000 A 
ATOM      5  C   UNL     1      45.146   5.586  12.218  0.00  0.00    +0.000 A 
ATOM      6  C   UNL     1      44.964   4.243  11.917  0.00  0.00    +0.000 A 
ATOM      7  N   UNL     1      45.566   3.231  12.593  0.00  0.00    +0.000 NA
ATOM      8  C   UNL     1      46.393   3.601  13.598  0.00  0.00    +0.000 A 
BRANCH   6   9
ATOM      9  C   UNL     1      44.061   3.844  10.790  0.00  0.00    +0.000 C 
ATOM     10  N   UNL     1      43.902   4.782   9.805  0.00  0.00    +0.000 N 
ATOM     11  O   UNL     1      43.496   2.760  10.749  0.00  0.00    +0.000 OA
ATOM     12  H   UNL     1      44.387   5.670   9.875  0.00  0.00    +0.000 HD
ATOM     13  H   UNL     1      43.302   4.580   9.019  0.00  0.00    +0.000 HD
ENDBRANCH   6   9
ENDBRANCH   1   3
BRANCH   1  14
ATOM     14  C   UNL     1      47.514   4.371  16.179  0.00  0.00    +0.000 C 
BRANCH  14  16
ATOM     15  C   UNL     1      48.644   6.247  17.533  0.00  0.00    +0.000 C 
ATOM     16  C   UNL     1      48.592   4.808  17.120  0.00  0.00    +0.000 C 
BRANCH  16  17
ATOM     17  C   UNL     1      49.754   3.940  17.339  0.00  0.00    +0.000 A 
ATOM     18  C   UNL     1      49.681   2.555  17.141  0.00  0.00    +0.000 A 
ATOM     19  C   UNL     1      50.806   1.750  17.337  0.00  0.00    +0.000 A 
ATOM     20  C   UNL     1      52.015   2.324  17.728  0.00  0.00    +0.000 A 
ATOM     21  C   UNL     1      52.099   3.704  17.924  0.00  0.00    +0.000 A 
ATOM     22  C   UNL     1      50.971   4.506  17.734  0.00  0.00    +0.000 A 
BRANCH  21  23
ATOM     23  C   UNL     1      53.340   4.307  18.306  0.00  0.00    +0.000 C 
ATOM     24  N   UNL     1      54.338   4.804  18.623  0.00  0.00    +0.000 NA
ENDBRANCH  21  23
ENDBRANCH  16  17
ENDBRANCH  14  16
ENDBRANCH   1  14
TORSDOF 6
ENDMDL
