MODEL 1
REMARK VINA RESULT:    -8.966      0.000      0.000
REMARK INTER + INTRA:         -12.780
REMARK INTER:                 -12.111
REMARK INTRA:                  -0.668
REMARK UNBOUND:                -0.668
REMARK  Name = 
REMARK  6 active torsions:
REMARK  status: ('A' for Active; 'I' for Inactive)
REMARK    1  A    between atoms: C_2  and  C_4
REMARK    2  A    between atoms: N_8  and  C_9
REMARK    3  A    between atoms: C_9  and  C_10
REMARK    4  A    between atoms: C_10  and  C_13
REMARK    5  A    between atoms: C_15  and  S_16
REMARK    6  A    between atoms: S_16  and  C_17
REMARK                            x       y       z     vdW  Elec       q    Type
REMARK                         _______ _______ _______ _____ _____    ______ ____
ROOT
ATOM      1  C   UNL     1      43.487   5.535  12.227  0.00  0.00    +0.000 C 
ATOM      2  F   UNL     1      43.078   6.742  11.736  0.00  0.00    +0.000 F 
ATOM      3  F   UNL     1      42.662   5.286  13.295  0.00  0.00    +0.000 F 
ENDROOT
BRANCH   1   4
ATOM      4  C   UNL     1      44.942   5.577  12.643  0.00  0.00    +0.000 A 
ATOM      5  C   UNL     1      45.445   4.745  13.660  0.00  0.00    +0.000 A 
ATOM      6  C   UNL     1      46.783   4.839  14.075  0.00  0.00    +0.000 A 
ATOM      7  C   UNL     1      47.624   5.777  13.468  0.00  0.00    +0.000 A 
ATOM      8  C   UNL     1      47.139   6.602  12.452  0.00  0.00    +0.000 A 
ATOM      9  C   UNL     1      45.809   6.497  12.053  0.00  0.00    +0.000 A 
ATOM     10  F   UNL     1      45.365   7.310  11.085  0.00  0.00    +0.000 F 
BRANCH   6  11
ATOM     11  S   UNL     1      47.366   3.896  15.468  0.00  0.00    +0.000 S 
BRANCH  11  12
ATOM     12  C   UNL     1      47.754   5.256  16.627  0.00  0.00    +0.000 C 
ATOM     13  C   UNL     1      49.223   5.221  17.076  0.00  0.00    +0.000 C 
ATOM     14  O   UNL     1      48.840   5.132  18.471  0.00  0.00    +0.000 OA
ATOM     15  C   UNL     1      47.456   4.925  18.094  0.00  0.00    +0.000 C 
ENDBRANCH  11  12
ENDBRANCH   6  11
ENDBRANCH   1   4
BRANCH   1  16
ATOM     16  C   UNL     1      43.217   4.433  11.170  0.00  0.00    +0.000 C 
BRANCH  16  21
ATOM     17  C   UNL     1      46.491   2.516   7.686  0.00  0.00    +0.000 A 
ATOM     18  C   UNL     1      45.706   1.854   8.623  0.00  0.00    +0.000 A 
ATOM     19  C   UNL     1      44.784   2.581   9.376  0.00  0.00    +0.000 A 
ATOM     20  C   UNL     1      44.680   3.956   9.205  0.00  0.00    +0.000 A 
ATOM     21  N   UNL     1      43.715   4.732   9.821  0.00  0.00    +0.000 N 
ATOM     22  N   UNL     1      45.462   4.615   8.327  0.00  0.00    +0.000 NA
ATOM     23  C   UNL     1      46.351   3.891   7.593  0.00  0.00    +0.000 A 
ATOM     24  H   UNL     1      43.947   5.710   9.646  0.00  0.00    +0.000 HD
BRANCH  17  26
ATOM     25  N   UNL     1      48.546   2.506   6.395  0.00  0.00    +0.000 N 
ATOM     26  C   UNL     1      47.437   1.812   6.797  0.00  0.00    +0.000 C 
ATOM     27  O   UNL     1      47.266   0.646   6.467  0.00  0.00    +0.000 OA
ATOM     28  H   UNL     1      49.244   1.985   5.878  0.00  0.00    +0.000 HD
ATOM     29  H   UNL     1      48.846   3.360   6.845  0.00  0.00    +0.000 HD
ENDBRANCH  17  26
ENDBRANCH  16  21
ENDBRANCH   1  16
TORSDOF 6
ENDMDL
MODEL 2
REMARK VINA RESULT:    -8.512      3.590      4.776
REMARK INTER + INTRA:         -12.166
REMARK INTER:                 -11.539
REMARK INTRA:                  -0.627
REMARK UNBOUND:                -0.668
REMARK  Name = 
REMARK  6 active torsions:
REMARK  status: ('A' for Active; 'I' for Inactive)
REMARK    1  A    between atoms: C_2  and  C_4
REMARK    2  A    between atoms: N_8  and  C_9
REMARK    3  A    between atoms: C_9  and  C_10
REMARK    4  A    between atoms: C_10  and  C_13
REMARK    5  A    between atoms: C_15  and  S_16
REMARK    6  A    between atoms: S_16  and  C_17
REMARK                            x       y       z     vdW  Elec       q    Type
REMARK                         _______ _______ _______ _____ _____    ______ ____
ROOT
ATOM      1  C   UNL     1      43.974   4.810  12.404  0.00  0.00    +0.000 C 
ATOM      2  F   UNL     1      43.161   4.883  13.498  0.00  0.00    +0.000 F 
ATOM      3  F   UNL     1      44.660   3.631  12.547  0.00  0.00    +0.000 F 
ENDROOT
BRANCH   1   4
ATOM      4  C   UNL     1      44.913   5.997  12.339  0.00  0.00    +0.000 A 
ATOM      5  C   UNL     1      44.435   7.309  12.169  0.00  0.00    +0.000 A 
ATOM      6  C   UNL     1      45.322   8.391  12.051  0.00  0.00    +0.000 A 
ATOM      7  C   UNL     1      46.700   8.156  12.099  0.00  0.00    +0.000 A 
ATOM      8  C   UNL     1      47.185   6.859  12.277  0.00  0.00    +0.000 A 
ATOM      9  C   UNL     1      46.292   5.797  12.392  0.00  0.00    +0.000 A 
ATOM     10  F   UNL     1      46.785   4.561  12.547  0.00  0.00    +0.000 F 
BRANCH   6  11
ATOM     11  S   UNL     1      44.714  10.022  11.677  0.00  0.00    +0.000 S 
BRANCH  11  12
ATOM     12  C   UNL     1      43.372   9.597  10.509  0.00  0.00    +0.000 C 
ATOM     13  C   UNL     1      43.339  10.553   9.307  0.00  0.00    +0.000 C 
ATOM     14  O   UNL     1      41.969  10.930   9.590  0.00  0.00    +0.000 OA
ATOM     15  C   UNL     1      42.021  10.231  10.858  0.00  0.00    +0.000 C 
ENDBRANCH  11  12
ENDBRANCH   6  11
ENDBRANCH   1   4
BRANCH   1  16
ATOM     16  C   UNL     1      43.106   4.685  11.125  0.00  0.00    +0.000 C 
BRANCH  16  21
ATOM     17  C   UNL     1      46.439   2.574   7.814  0.00  0.00    +0.000 A 
ATOM     18  C   UNL     1      45.460   1.968   8.593  0.00  0.00    +0.000 A 
ATOM     19  C   UNL     1      44.576   2.767   9.319  0.00  0.00    +0.000 A 
ATOM     20  C   UNL     1      44.700   4.150   9.281  0.00  0.00    +0.000 A 
ATOM     21  N   UNL     1      43.797   5.015   9.872  0.00  0.00    +0.000 N 
ATOM     22  N   UNL     1      45.669   4.747   8.560  0.00  0.00    +0.000 NA
ATOM     23  C   UNL     1      46.519   3.956   7.849  0.00  0.00    +0.000 A 
ATOM     24  H   UNL     1      44.192   5.954   9.823  0.00  0.00    +0.000 HD
BRANCH  17  26
ATOM     25  N   UNL     1      48.415   2.491   6.407  0.00  0.00    +0.000 N 
ATOM     26  C   UNL     1      47.367   1.806   6.959  0.00  0.00    +0.000 C 
ATOM     27  O   UNL     1      47.234   0.602   6.784  0.00  0.00    +0.000 OA
ATOM     28  H   UNL     1      49.107   1.939   5.914  0.00  0.00    +0.000 HD
ATOM     29  H   UNL     1      48.698   3.405   6.731  0.00  0.00    +0.000 HD
ENDBRANCH  17  26
ENDBRANCH  16  21
ENDBRANCH   1  16
TORSDOF 6
ENDMDL
MODEL 3
REMARK VINA RESULT:    -7.336      3.452      8.186
REMARK INTER + INTRA:         -10.578
REMARK INTER:                 -10.183
REMARK INTRA:                  -0.395
REMARK UNBOUND:                -0.668
REMARK  Name = 
REMARK  6 active torsions:
REMARK  status: ('A' for Active; 'I' for Inactive)
REMARK    1  A    between atoms: C_2  and  C_4
REMARK    2  A    between atoms: N_8  and  C_9
REMARK    3  A    between atoms: C_9  and  C_10
REMARK    4  A    between atoms: C_10  and  C_13
REMARK    5  A    between atoms: C_15  and  S_16
REMARK    6  A    between atoms: S_16  and  C_17
REMARK                            x       y       z     vdW  Elec       q    Type
REMARK                         _______ _______ _______ _____ _____    ______ ____
ROOT
ATOM      1  C   UNL     1      45.209   5.747  12.138  0.00  0.00    +0.000 C 
ATOM      2  F   UNL     1      44.165   6.022  12.975  0.00  0.00    +0.000 F 
ATOM      3  F   UNL     1      45.391   6.892  11.406  0.00  0.00    +0.000 F 
ENDROOT
BRANCH   1   4
ATOM      4  C   UNL     1      44.901   4.559  11.250  0.00  0.00    +0.000 A 
ATOM      5  C   UNL     1      45.375   4.482   9.928  0.00  0.00    +0.000 A 
ATOM      6  C   UNL     1      45.031   3.403   9.099  0.00  0.00    +0.000 A 
ATOM      7  C   UNL     1      44.202   2.393   9.598  0.00  0.00    +0.000 A 
ATOM      8  C   UNL     1      43.734   2.454  10.912  0.00  0.00    +0.000 A 
ATOM      9  C   UNL     1      44.083   3.532  11.720  0.00  0.00    +0.000 A 
ATOM     10  F   UNL     1      43.608   3.573  12.972  0.00  0.00    +0.000 F 
BRANCH   6  11
ATOM     11  S   UNL     1      45.503   3.394   7.382  0.00  0.00    +0.000 S 
BRANCH  11  12
ATOM     12  C   UNL     1      47.127   2.563   7.508  0.00  0.00    +0.000 C 
ATOM     13  C   UNL     1      47.921   2.664   6.196  0.00  0.00    +0.000 C 
ATOM     14  O   UNL     1      48.021   1.222   6.095  0.00  0.00    +0.000 OA
ATOM     15  C   UNL     1      47.083   1.065   7.188  0.00  0.00    +0.000 C 
ENDBRANCH  11  12
ENDBRANCH   6  11
ENDBRANCH   1   4
BRANCH   1  16
ATOM     16  C   UNL     1      46.496   5.528  12.976  0.00  0.00    +0.000 C 
BRANCH  16  21
ATOM     17  C   UNL     1      48.714   4.200  17.431  0.00  0.00    +0.000 A 
ATOM     18  C   UNL     1      48.508   5.462  16.885  0.00  0.00    +0.000 A 
ATOM     19  C   UNL     1      47.755   5.584  15.717  0.00  0.00    +0.000 A 
ATOM     20  C   UNL     1      47.245   4.449  15.098  0.00  0.00    +0.000 A 
ATOM     21  N   UNL     1      46.392   4.490  14.011  0.00  0.00    +0.000 N 
ATOM     22  N   UNL     1      47.470   3.218  15.598  0.00  0.00    +0.000 NA
ATOM     23  C   UNL     1      48.199   3.114  16.743  0.00  0.00    +0.000 A 
ATOM     24  H   UNL     1      46.287   3.536  13.666  0.00  0.00    +0.000 HD
BRANCH  17  26
ATOM     25  N   UNL     1      48.693   3.588  19.781  0.00  0.00    +0.000 N 
ATOM     26  C   UNL     1      49.436   3.989  18.703  0.00  0.00    +0.000 C 
ATOM     27  O   UNL     1      50.649   4.123  18.784  0.00  0.00    +0.000 OA
ATOM     28  H   UNL     1      49.208   3.340  20.616  0.00  0.00    +0.000 HD
ATOM     29  H   UNL     1      47.755   3.225  19.689  0.00  0.00    +0.000 HD
ENDBRANCH  17  26
ENDBRANCH  16  21
ENDBRANCH   1  16
TORSDOF 6
ENDMDL
MODEL 4
REMARK VINA RESULT:    -7.265      3.600      7.449
REMARK INTER + INTRA:         -10.482
REMARK INTER:                  -9.739
REMARK INTRA:                  -0.744
REMARK UNBOUND:                -0.668
REMARK  Name = 
REMARK  6 active torsions:
REMARK  status: ('A' for Active; 'I' for Inactive)
REMARK    1  A    between atoms: C_2  and  C_4
REMARK    2  A    between atoms: N_8  and  C_9
REMARK    3  A    between atoms: C_9  and  C_10
REMARK    4  A    between atoms: C_10  and  C_13
REMARK    5  A    between atoms: C_15  and  S_16
REMARK    6  A    between atoms: S_16  and  C_17
REMARK                            x       y       z     vdW  Elec       q    Type
REMARK                         _______ _______ _______ _____ _____    ______ ____
ROOT
ATOM      1  C   UNL     1      43.816   5.273  11.924  0.00  0.00    +0.000 C 
ATOM      2  F   UNL     1      43.855   4.742  13.181  0.00  0.00    +0.000 F 
ATOM      3  F   UNL     1      42.509   5.642  11.732  0.00  0.00    +0.000 F 
ENDROOT
BRANCH   1   4
ATOM      4  C   UNL     1      44.269   4.265  10.888  0.00  0.00    +0.000 A 
ATOM      5  C   UNL     1      45.153   4.616   9.851  0.00  0.00    +0.000 A 
ATOM      6  C   UNL     1      45.515   3.684   8.866  0.00  0.00    +0.000 A 
ATOM      7  C   UNL     1      44.986   2.390   8.917  0.00  0.00    +0.000 A 
ATOM      8  C   UNL     1      44.116   2.028   9.947  0.00  0.00    +0.000 A 
ATOM      9  C   UNL     1      43.765   2.964  10.916  0.00  0.00    +0.000 A 
ATOM     10  F   UNL     1      42.917   2.595  11.885  0.00  0.00    +0.000 F 
BRANCH   6  11
ATOM     11  S   UNL     1      46.505   4.182   7.471  0.00  0.00    +0.000 S 
BRANCH  11  12
ATOM     12  C   UNL     1      46.641   2.581   6.597  0.00  0.00    +0.000 C 
ATOM     13  C   UNL     1      47.929   1.834   6.975  0.00  0.00    +0.000 C 
ATOM     14  O   UNL     1      48.358   1.784   5.592  0.00  0.00    +0.000 OA
ATOM     15  C   UNL     1      47.288   2.684   5.212  0.00  0.00    +0.000 C 
ENDBRANCH  11  12
ENDBRANCH   6  11
ENDBRANCH   1   4
BRANCH   1  16
ATOM     16  C   UNL     1      44.670   6.568  11.886  0.00  0.00    +0.000 C 
BRANCH  16  21
ATOM     17  C   UNL     1      49.559   7.844  12.884  0.00  0.00    +0.000 A 
ATOM     18  C   UNL     1      48.727   8.262  11.851  0.00  0.00    +0.000 A 
ATOM     19  C   UNL     1      47.384   7.885  11.863  0.00  0.00    +0.000 A 
ATOM     20  C   UNL     1      46.900   7.075  12.884  0.00  0.00    +0.000 A 
ATOM     21  N   UNL     1      45.564   6.755  13.036  0.00  0.00    +0.000 N 
ATOM     22  N   UNL     1      47.706   6.632  13.869  0.00  0.00    +0.000 NA
ATOM     23  C   UNL     1      49.012   7.016  13.849  0.00  0.00    +0.000 A 
ATOM     24  H   UNL     1      45.499   6.042  13.762  0.00  0.00    +0.000 HD
BRANCH  17  26
ATOM     25  N   UNL     1      51.650   7.887  14.116  0.00  0.00    +0.000 N 
ATOM     26  C   UNL     1      50.973   8.259  12.986  0.00  0.00    +0.000 C 
ATOM     27  O   UNL     1      51.532   8.870  12.085  0.00  0.00    +0.000 OA
ATOM     28  H   UNL     1      52.644   8.077  14.131  0.00  0.00    +0.000 HD
ATOM     29  H   UNL     1      51.305   7.177  14.747  0.00  0.00    +0.000 HD
ENDBRANCH  17  26
ENDBRANCH  16  21
ENDBRANCH   1  16
TORSDOF 6
ENDMDL
MODEL 5
REMARK VINA RESULT:    -6.739      4.631      7.516
REMARK INTER + INTRA:          -9.771
REMARK INTER:                  -8.696
REMARK INTRA:                  -1.075
REMARK UNBOUND:                -0.668
REMARK  Name = 
REMARK  6 active torsions:
REMARK  status: ('A' for Active; 'I' for Inactive)
REMARK    1  A    between atoms: C_2  and  C_4
REMARK    2  A    between atoms: N_8  and  C_9
REMARK    3  A    between atoms: C_9  and  C_10
REMARK    4  A    between atoms: C_10  and  C_13
REMARK    5  A    between atoms: C_15  and  S_16
REMARK    6  A    between atoms: S_16  and  C_17
REMARK                            x       y       z     vdW  Elec       q    Type
REMARK                         _______ _______ _______ _____ _____    ______ ____
ROOT
ATOM      1  C   UNL     1      49.118   8.191  12.316  0.00  0.00    +0.000 C 
ATOM      2  F   UNL     1      49.583   9.225  11.555  0.00  0.00    +0.000 F 
ATOM      3  F   UNL     1      49.856   7.102  11.927  0.00  0.00    +0.000 F 
ENDROOT
BRANCH   1   4
ATOM      4  C   UNL     1      47.637   7.969  12.092  0.00  0.00    +0.000 A 
ATOM      5  C   UNL     1      47.138   6.754  11.587  0.00  0.00    +0.000 A 
ATOM      6  C   UNL     1      45.769   6.587  11.329  0.00  0.00    +0.000 A 
ATOM      7  C   UNL     1      44.890   7.646  11.578  0.00  0.00    +0.000 A 
ATOM      8  C   UNL     1      45.372   8.853  12.089  0.00  0.00    +0.000 A 
ATOM      9  C   UNL     1      46.733   9.004  12.337  0.00  0.00    +0.000 A 
ATOM     10  F   UNL     1      47.171  10.176  12.813  0.00  0.00    +0.000 F 
BRANCH   6  11
ATOM     11  S   UNL     1      45.171   5.106  10.541  0.00  0.00    +0.000 S 
BRANCH  11  12
ATOM     12  C   UNL     1      43.764   4.712  11.642  0.00  0.00    +0.000 C 
ATOM     13  C   UNL     1      44.235   4.334  13.055  0.00  0.00    +0.000 C 
ATOM     14  O   UNL     1      43.577   3.045  12.976  0.00  0.00    +0.000 OA
ATOM     15  C   UNL     1      43.308   3.251  11.567  0.00  0.00    +0.000 C 
ENDBRANCH  11  12
ENDBRANCH   6  11
ENDBRANCH   1   4
BRANCH   1  16
ATOM     16  C   UNL     1      49.447   8.460  13.807  0.00  0.00    +0.000 C 
BRANCH  16  21
ATOM     17  C   UNL     1      48.245   4.518  16.896  0.00  0.00    +0.000 A 
ATOM     18  C   UNL     1      47.502   5.104  15.878  0.00  0.00    +0.000 A 
ATOM     19  C   UNL     1      48.095   6.081  15.078  0.00  0.00    +0.000 A 
ATOM     20  C   UNL     1      49.403   6.478  15.323  0.00  0.00    +0.000 A 
ATOM     21  N   UNL     1      50.103   7.349  14.508  0.00  0.00    +0.000 N 
ATOM     22  N   UNL     1      50.120   5.944  16.331  0.00  0.00    +0.000 NA
ATOM     23  C   UNL     1      49.533   4.986  17.098  0.00  0.00    +0.000 A 
ATOM     24  H   UNL     1      50.974   7.584  14.984  0.00  0.00    +0.000 HD
BRANCH  17  26
ATOM     25  N   UNL     1      48.418   3.128  18.879  0.00  0.00    +0.000 N 
ATOM     26  C   UNL     1      47.718   3.426  17.741  0.00  0.00    +0.000 C 
ATOM     27  O   UNL     1      46.681   2.840  17.463  0.00  0.00    +0.000 OA
ATOM     28  H   UNL     1      47.994   2.457  19.508  0.00  0.00    +0.000 HD
ATOM     29  H   UNL     1      49.116   3.748  19.266  0.00  0.00    +0.000 HD
ENDBRANCH  17  26
ENDBRANCH  16  21
ENDBRANCH   1  16
TORSDOF 6
ENDMDL
MODEL 6
REMARK VINA RESULT:    -6.710      4.337      6.377
REMARK INTER + INTRA:          -9.731
REMARK INTER:                  -9.419
REMARK INTRA:                  -0.313
REMARK UNBOUND:                -0.668
REMARK  Name = 
REMARK  6 active torsions:
REMARK  status: ('A' for Active; 'I' for Inactive)
REMARK    1  A    between atoms: C_2  and  C_4
REMARK    2  A    between atoms: N_8  and  C_9
REMARK    3  A    between atoms: C_9  and  C_10
REMARK    4  A    between atoms: C_10  and  C_13
REMARK    5  A    between atoms: C_15  and  S_16
REMARK    6  A    between atoms: S_16  and  C_17
REMARK                            x       y       z     vdW  Elec       q    Type
REMARK                         _______ _______ _______ _____ _____    ______ ____
ROOT
ATOM      1  C   UNL     1      48.214   2.867  16.823  0.00  0.00    +0.000 C 
ATOM      2  F   UNL     1      47.228   2.393  17.641  0.00  0.00    +0.000 F 
ATOM      3  F   UNL     1      48.611   1.785  16.079  0.00  0.00    +0.000 F 
ENDROOT
BRANCH   1   4
ATOM      4  C   UNL     1      49.362   3.443  17.626  0.00  0.00    +0.000 A 
ATOM      5  C   UNL     1      49.175   4.512  18.521  0.00  0.00    +0.000 A 
ATOM      6  C   UNL     1      50.261   5.074  19.211  0.00  0.00    +0.000 A 
ATOM      7  C   UNL     1      51.546   4.562  19.001  0.00  0.00    +0.000 A 
ATOM      8  C   UNL     1      51.741   3.495  18.123  0.00  0.00    +0.000 A 
ATOM      9  C   UNL     1      50.655   2.950  17.444  0.00  0.00    +0.000 A 
ATOM     10  F   UNL     1      50.872   1.937  16.596  0.00  0.00    +0.000 F 
BRANCH   6  11
ATOM     11  S   UNL     1      50.040   6.526  20.218  0.00  0.00    +0.000 S 
BRANCH  11  12
ATOM     12  C   UNL     1      48.303   6.928  19.809  0.00  0.00    +0.000 C 
ATOM     13  C   UNL     1      48.208   8.092  18.810  0.00  0.00    +0.000 C 
ATOM     14  O   UNL     1      47.397   8.869  19.726  0.00  0.00    +0.000 OA
ATOM     15  C   UNL     1      47.648   7.912  20.784  0.00  0.00    +0.000 C 
ENDBRANCH  11  12
ENDBRANCH   6  11
ENDBRANCH   1   4
BRANCH   1  16
ATOM     16  C   UNL     1      47.612   3.905  15.841  0.00  0.00    +0.000 C 
BRANCH  16  21
ATOM     17  C   UNL     1      44.458   4.923  11.898  0.00  0.00    +0.000 A 
ATOM     18  C   UNL     1      45.065   5.794  12.795  0.00  0.00    +0.000 A 
ATOM     19  C   UNL     1      45.997   5.295  13.705  0.00  0.00    +0.000 A 
ATOM     20  C   UNL     1      46.287   3.937  13.726  0.00  0.00    +0.000 A 
ATOM     21  N   UNL     1      47.281   3.380  14.510  0.00  0.00    +0.000 N 
ATOM     22  N   UNL     1      45.678   3.077  12.887  0.00  0.00    +0.000 NA
ATOM     23  C   UNL     1      44.777   3.579  11.998  0.00  0.00    +0.000 A 
ATOM     24  H   UNL     1      47.190   2.366  14.449  0.00  0.00    +0.000 HD
BRANCH  17  26
ATOM     25  N   UNL     1      42.773   6.494  11.135  0.00  0.00    +0.000 N 
ATOM     26  C   UNL     1      43.516   5.379  10.856  0.00  0.00    +0.000 C 
ATOM     27  O   UNL     1      43.431   4.816   9.773  0.00  0.00    +0.000 OA
ATOM     28  H   UNL     1      42.212   6.865  10.377  0.00  0.00    +0.000 HD
ATOM     29  H   UNL     1      42.998   7.122  11.894  0.00  0.00    +0.000 HD
ENDBRANCH  17  26
ENDBRANCH  16  21
ENDBRANCH   1  16
TORSDOF 6
ENDMDL
MODEL 7
REMARK VINA RESULT:    -6.679      4.703      6.806
REMARK INTER + INTRA:          -9.690
REMARK INTER:                  -9.158
REMARK INTRA:                  -0.531
REMARK UNBOUND:                -0.668
REMARK  Name = 
REMARK  6 active torsions:
REMARK  status: ('A' for Active; 'I' for Inactive)
REMARK    1  A    between atoms: C_2  and  C_4
REMARK    2  A    between atoms: N_8  and  C_9
REMARK    3  A    between atoms: C_9  and  C_10
REMARK    4  A    between atoms: C_10  and  C_13
REMARK    5  A    between atoms: C_15  and  S_16
REMARK    6  A    between atoms: S_16  and  C_17
REMARK                            x       y       z     vdW  Elec       q    Type
REMARK                         _______ _______ _______ _____ _____    ______ ____
ROOT
ATOM      1  C   UNL     1      48.260   2.884  16.901  0.00  0.00    +0.000 C 
ATOM      2  F   UNL     1      47.298   2.378  17.727  0.00  0.00    +0.000 F 
ATOM      3  F   UNL     1      48.707   1.810  16.174  0.00  0.00    +0.000 F 
ENDROOT
BRANCH   1   4
ATOM      4  C   UNL     1      49.379   3.527  17.693  0.00  0.00    +0.000 A 
ATOM      5  C   UNL     1      50.732   3.245  17.425  0.00  0.00    +0.000 A 
ATOM      6  C   UNL     1      51.754   3.804  18.208  0.00  0.00    +0.000 A 
ATOM      7  C   UNL     1      51.420   4.650  19.270  0.00  0.00    +0.000 A 
ATOM      8  C   UNL     1      50.082   4.945  19.538  0.00  0.00    +0.000 A 
ATOM      9  C   UNL     1      49.080   4.382  18.754  0.00  0.00    +0.000 A 
ATOM     10  F   UNL     1      47.803   4.669  19.042  0.00  0.00    +0.000 F 
BRANCH   6  11
ATOM     11  S   UNL     1      53.449   3.316  17.963  0.00  0.00    +0.000 S 
BRANCH  11  12
ATOM     12  C   UNL     1      53.291   1.508  18.188  0.00  0.00    +0.000 C 
ATOM     13  C   UNL     1      54.480   0.925  18.966  0.00  0.00    +0.000 C 
ATOM     14  O   UNL     1      54.799   0.017  17.883  0.00  0.00    +0.000 OA
ATOM     15  C   UNL     1      53.847   0.686  17.020  0.00  0.00    +0.000 C 
ENDBRANCH  11  12
ENDBRANCH   6  11
ENDBRANCH   1   4
BRANCH   1  16
ATOM     16  C   UNL     1      47.610   3.877  15.902  0.00  0.00    +0.000 C 
BRANCH  16  21
ATOM     17  C   UNL     1      44.583   4.743  11.825  0.00  0.00    +0.000 A 
ATOM     18  C   UNL     1      45.117   5.643  12.740  0.00  0.00    +0.000 A 
ATOM     19  C   UNL     1      46.030   5.188  13.691  0.00  0.00    +0.000 A 
ATOM     20  C   UNL     1      46.373   3.842  13.734  0.00  0.00    +0.000 A 
ATOM     21  N   UNL     1      47.356   3.331  14.562  0.00  0.00    +0.000 N 
ATOM     22  N   UNL     1      45.834   2.954  12.877  0.00  0.00    +0.000 NA
ATOM     23  C   UNL     1      44.951   3.413  11.949  0.00  0.00    +0.000 A 
ATOM     24  H   UNL     1      47.308   2.313  14.505  0.00  0.00    +0.000 HD
BRANCH  17  26
ATOM     25  N   UNL     1      43.963   4.718   9.478  0.00  0.00    +0.000 N 
ATOM     26  C   UNL     1      43.668   5.155  10.742  0.00  0.00    +0.000 C 
ATOM     27  O   UNL     1      42.666   5.821  10.963  0.00  0.00    +0.000 OA
ATOM     28  H   UNL     1      43.275   4.910   8.761  0.00  0.00    +0.000 HD
ATOM     29  H   UNL     1      44.619   3.970   9.302  0.00  0.00    +0.000 HD
ENDBRANCH  17  26
ENDBRANCH  16  21
ENDBRANCH   1  16
TORSDOF 6
ENDMDL
MODEL 8
REMARK VINA RESULT:    -6.645      3.449      4.930
REMARK INTER + INTRA:          -9.644
REMARK INTER:                  -8.638
REMARK INTRA:                  -1.007
REMARK UNBOUND:                -0.668
REMARK  Name = 
REMARK  6 active torsions:
REMARK  status: ('A' for Active; 'I' for Inactive)
REMARK    1  A    between atoms: C_2  and  C_4
REMARK    2  A    between atoms: N_8  and  C_9
REMARK    3  A    between atoms: C_9  and  C_10
REMARK    4  A    between atoms: C_10  and  C_13
REMARK    5  A    between atoms: C_15  and  S_16
REMARK    6  A    between atoms: S_16  and  C_17
REMARK                            x       y       z     vdW  Elec       q    Type
REMARK                         _______ _______ _______ _____ _____    ______ ____
ROOT
ATOM      1  C   UNL     1      48.821   8.238  13.072  0.00  0.00    +0.000 C 
ATOM      2  F   UNL     1      49.144   7.610  11.904  0.00  0.00    +0.000 F 
ATOM      3  F   UNL     1      49.121   9.560  12.861  0.00  0.00    +0.000 F 
ENDROOT
BRANCH   1   4
ATOM      4  C   UNL     1      49.605   7.668  14.236  0.00  0.00    +0.000 A 
ATOM      5  C   UNL     1      48.973   6.973  15.284  0.00  0.00    +0.000 A 
ATOM      6  C   UNL     1      49.707   6.504  16.385  0.00  0.00    +0.000 A 
ATOM      7  C   UNL     1      51.086   6.734  16.438  0.00  0.00    +0.000 A 
ATOM      8  C   UNL     1      51.725   7.414  15.400  0.00  0.00    +0.000 A 
ATOM      9  C   UNL     1      50.983   7.875  14.316  0.00  0.00    +0.000 A 
ATOM     10  F   UNL     1      51.618   8.536  13.340  0.00  0.00    +0.000 F 
BRANCH   6  11
ATOM     11  S   UNL     1      48.877   5.769  17.778  0.00  0.00    +0.000 S 
BRANCH  11  12
ATOM     12  C   UNL     1      48.546   4.102  17.101  0.00  0.00    +0.000 C 
ATOM     13  C   UNL     1      47.156   4.016  16.454  0.00  0.00    +0.000 C 
ATOM     14  O   UNL     1      46.767   2.929  17.330  0.00  0.00    +0.000 OA
ATOM     15  C   UNL     1      47.963   3.122  18.125  0.00  0.00    +0.000 C 
ENDBRANCH  11  12
ENDBRANCH   6  11
ENDBRANCH   1   4
BRANCH   1  16
ATOM     16  C   UNL     1      47.290   8.144  13.301  0.00  0.00    +0.000 C 
BRANCH  16  21
ATOM     17  C   UNL     1      44.694   4.127  11.389  0.00  0.00    +0.000 A 
ATOM     18  C   UNL     1      44.873   4.519  12.711  0.00  0.00    +0.000 A 
ATOM     19  C   UNL     1      45.507   5.731  12.983  0.00  0.00    +0.000 A 
ATOM     20  C   UNL     1      45.977   6.517  11.938  0.00  0.00    +0.000 A 
ATOM     21  N   UNL     1      46.507   7.783  12.112  0.00  0.00    +0.000 N 
ATOM     22  N   UNL     1      45.844   6.130  10.654  0.00  0.00    +0.000 NA
ATOM     23  C   UNL     1      45.215   4.949  10.403  0.00  0.00    +0.000 A 
ATOM     24  H   UNL     1      46.904   8.076  11.220  0.00  0.00    +0.000 HD
BRANCH  17  26
ATOM     25  N   UNL     1      44.484   2.164   9.976  0.00  0.00    +0.000 N 
ATOM     26  C   UNL     1      43.970   2.896  11.013  0.00  0.00    +0.000 C 
ATOM     27  O   UNL     1      42.980   2.518  11.624  0.00  0.00    +0.000 OA
ATOM     28  H   UNL     1      44.048   1.268   9.795  0.00  0.00    +0.000 HD
ATOM     29  H   UNL     1      45.422   2.303   9.626  0.00  0.00    +0.000 HD
ENDBRANCH  17  26
ENDBRANCH  16  21
ENDBRANCH   1  16
TORSDOF 6
ENDMDL
MODEL 9
REMARK VINA RESULT:    -6.550      3.895      5.954
REMARK INTER + INTRA:          -9.516
REMARK INTER:                  -8.491
REMARK INTRA:                  -1.025
REMARK UNBOUND:                -0.668
REMARK  Name = 
REMARK  6 active torsions:
REMARK  status: ('A' for Active; 'I' for Inactive)
REMARK    1  A    between atoms: C_2  and  C_4
REMARK    2  A    between atoms: N_8  and  C_9
REMARK    3  A    between atoms: C_9  and  C_10
REMARK    4  A    between atoms: C_10  and  C_13
REMARK    5  A    between atoms: C_15  and  S_16
REMARK    6  A    between atoms: S_16  and  C_17
REMARK                            x       y       z     vdW  Elec       q    Type
REMARK                         _______ _______ _______ _____ _____    ______ ____
ROOT
ATOM      1  C   UNL     1      48.698   8.442  16.241  0.00  0.00    +0.000 C 
ATOM      2  F   UNL     1      49.834   9.196  16.319  0.00  0.00    +0.000 F 
ATOM      3  F   UNL     1      47.693   9.337  15.974  0.00  0.00    +0.000 F 
ENDROOT
BRANCH   1   4
ATOM      4  C   UNL     1      48.448   7.692  17.533  0.00  0.00    +0.000 A 
ATOM      5  C   UNL     1      48.712   6.315  17.651  0.00  0.00    +0.000 A 
ATOM      6  C   UNL     1      48.419   5.623  18.836  0.00  0.00    +0.000 A 
ATOM      7  C   UNL     1      47.853   6.315  19.913  0.00  0.00    +0.000 A 
ATOM      8  C   UNL     1      47.597   7.683  19.810  0.00  0.00    +0.000 A 
ATOM      9  C   UNL     1      47.892   8.355  18.627  0.00  0.00    +0.000 A 
ATOM     10  F   UNL     1      47.622   9.665  18.549  0.00  0.00    +0.000 F 
BRANCH   6  11
ATOM     11  S   UNL     1      48.607   3.854  18.921  0.00  0.00    +0.000 S 
BRANCH  11  12
ATOM     12  C   UNL     1      49.319   3.535  17.267  0.00  0.00    +0.000 C 
ATOM     13  C   UNL     1      48.375   2.695  16.394  0.00  0.00    +0.000 C 
ATOM     14  O   UNL     1      49.385   1.671  16.211  0.00  0.00    +0.000 OA
ATOM     15  C   UNL     1      50.225   2.300  17.210  0.00  0.00    +0.000 C 
ENDBRANCH  11  12
ENDBRANCH   6  11
ENDBRANCH   1   4
BRANCH   1  16
ATOM     16  C   UNL     1      48.798   7.486  15.024  0.00  0.00    +0.000 C 
BRANCH  16  21
ATOM     17  C   UNL     1      45.662   4.430  12.313  0.00  0.00    +0.000 A 
ATOM     18  C   UNL     1      46.229   4.230  13.566  0.00  0.00    +0.000 A 
ATOM     19  C   UNL     1      46.943   5.268  14.164  0.00  0.00    +0.000 A 
ATOM     20  C   UNL     1      47.105   6.474  13.494  0.00  0.00    +0.000 A 
ATOM     21  N   UNL     1      47.693   7.590  14.062  0.00  0.00    +0.000 N 
ATOM     22  N   UNL     1      46.593   6.667  12.263  0.00  0.00    +0.000 NA
ATOM     23  C   UNL     1      45.891   5.648  11.695  0.00  0.00    +0.000 A 
ATOM     24  H   UNL     1      47.818   8.282  13.323  0.00  0.00    +0.000 HD
BRANCH  17  26
ATOM     25  N   UNL     1      44.117   2.562  12.444  0.00  0.00    +0.000 N 
ATOM     26  C   UNL     1      44.830   3.410  11.641  0.00  0.00    +0.000 C 
ATOM     27  O   UNL     1      44.745   3.349  10.422  0.00  0.00    +0.000 OA
ATOM     28  H   UNL     1      43.466   1.940  11.980  0.00  0.00    +0.000 HD
ATOM     29  H   UNL     1      43.963   2.745  13.426  0.00  0.00    +0.000 HD
ENDBRANCH  17  26
ENDBRANCH  16  21
ENDBRANCH   1  16
TORSDOF 6
ENDMDL
