MODEL 1
REMARK VINA RESULT:    -7.880      0.000      0.000
REMARK INTER + INTRA:          -9.529
REMARK INTER:                  -9.723
REMARK INTRA:                   0.194
REMARK UNBOUND:                 0.194
REMARK  Name = 
REMARK  4 active torsions:
REMARK  status: ('A' for Active; 'I' for Inactive)
REMARK    1  A    between atoms: C_2  and  C_3
REMARK    2  A    between atoms: C_6  and  C_7
REMARK    3  A    between atoms: C_7  and  N_8
REMARK    4  A    between atoms: C_12  and  C_13
REMARK                            x       y       z     vdW  Elec       q    Type
REMARK                         _______ _______ _______ _____ _____    ______ ____
ROOT
ATOM      1  N   UNL     1      44.008   3.535  10.775  0.00  0.00    +0.000 N 
ATOM      2  C   UNL     1      44.833   3.394   9.656  0.00  0.00    +0.000 A 
ATOM      3  C   UNL     1      45.161   4.421   8.763  0.00  0.00    +0.000 A 
ATOM      4  N   UNL     1      45.942   4.254   7.655  0.00  0.00    +0.000 NA
ATOM      5  C   UNL     1      46.394   2.985   7.474  0.00  0.00    +0.000 A 
ATOM      6  C   UNL     1      46.086   1.960   8.352  0.00  0.00    +0.000 A 
ATOM      7  N   UNL     1      45.302   2.143   9.448  0.00  0.00    +0.000 NA
ATOM      8  H   UNL     1      44.029   2.655  11.283  0.00  0.00    +0.000 HD
ENDROOT
BRANCH   5   9
ATOM      9  C   UNL     1      47.232   2.696   6.279  0.00  0.00    +0.000 C 
ATOM     10  N   UNL     1      48.470   2.165   6.520  0.00  0.00    +0.000 N 
ATOM     11  O   UNL     1      46.845   2.926   5.140  0.00  0.00    +0.000 OA
ATOM     12  H   UNL     1      48.781   1.996   7.469  0.00  0.00    +0.000 HD
ATOM     13  H   UNL     1      49.084   1.973   5.741  0.00  0.00    +0.000 HD
ENDBRANCH   5   9
BRANCH   1  14
ATOM     14  C   UNL     1      43.891   4.795  11.529  0.00  0.00    +0.000 C 
ATOM     15  C   UNL     1      42.896   5.845  11.045  0.00  0.00    +0.000 C 
ATOM     16  C   UNL     1      42.607   5.074  12.291  0.00  0.00    +0.000 C 
BRANCH  14  20
ATOM     17  C   UNL     1      47.596   6.246  13.176  0.00  0.00    +0.000 A 
ATOM     18  C   UNL     1      47.117   6.814  12.000  0.00  0.00    +0.000 A 
ATOM     19  C   UNL     1      45.920   6.345  11.455  0.00  0.00    +0.000 A 
ATOM     20  C   UNL     1      45.213   5.322  12.098  0.00  0.00    +0.000 A 
ATOM     21  N   UNL     1      45.687   4.768  13.247  0.00  0.00    +0.000 NA
ATOM     22  C   UNL     1      46.853   5.231  13.753  0.00  0.00    +0.000 A 
BRANCH  17  24
ATOM     23  N   UNL     1      49.794   7.058  14.271  0.00  0.00    +0.000 NA
ATOM     24  C   UNL     1      48.807   6.689  13.781  0.00  0.00    +0.000 C 
ENDBRANCH  17  24
ENDBRANCH  14  20
ENDBRANCH   1  14
TORSDOF 4
ENDMDL
MODEL 2
REMARK VINA RESULT:    -7.678      2.952      6.609
REMARK INTER + INTRA:          -9.280
REMARK INTER:                  -9.008
REMARK INTRA:                  -0.272
REMARK UNBOUND:                 0.194
REMARK  Name = 
REMARK  4 active torsions:
REMARK  status: ('A' for Active; 'I' for Inactive)
REMARK    1  A    between atoms: C_2  and  C_3
REMARK    2  A    between atoms: C_6  and  C_7
REMARK    3  A    between atoms: C_7  and  N_8
REMARK    4  A    between atoms: C_12  and  C_13
REMARK                            x       y       z     vdW  Elec       q    Type
REMARK                         _______ _______ _______ _____ _____    ______ ____
ROOT
ATOM      1  N   UNL     1      45.515   3.065  12.582  0.00  0.00    +0.000 N 
ATOM      2  C   UNL     1      46.280   4.025  13.251  0.00  0.00    +0.000 A 
ATOM      3  C   UNL     1      46.692   5.247  12.706  0.00  0.00    +0.000 A 
ATOM      4  N   UNL     1      47.468   6.157  13.365  0.00  0.00    +0.000 NA
ATOM      5  C   UNL     1      47.823   5.785  14.623  0.00  0.00    +0.000 A 
ATOM      6  C   UNL     1      47.417   4.583  15.179  0.00  0.00    +0.000 A 
ATOM      7  N   UNL     1      46.648   3.686  14.507  0.00  0.00    +0.000 NA
ATOM      8  H   UNL     1      45.291   2.333  13.252  0.00  0.00    +0.000 HD
ENDROOT
BRANCH   5   9
ATOM      9  C   UNL     1      48.692   6.699  15.414  0.00  0.00    +0.000 C 
ATOM     10  N   UNL     1      48.228   7.973  15.594  0.00  0.00    +0.000 N 
ATOM     11  O   UNL     1      49.769   6.338  15.873  0.00  0.00    +0.000 OA
ATOM     12  H   UNL     1      47.342   8.258  15.193  0.00  0.00    +0.000 HD
ATOM     13  H   UNL     1      48.794   8.636  16.105  0.00  0.00    +0.000 HD
ENDBRANCH   5   9
BRANCH   1  14
ATOM     14  C   UNL     1      44.533   3.407  11.539  0.00  0.00    +0.000 C 
ATOM     15  C   UNL     1      43.084   2.971  11.730  0.00  0.00    +0.000 C 
ATOM     16  C   UNL     1      43.443   4.414  11.863  0.00  0.00    +0.000 C 
BRANCH  14  20
ATOM     17  C   UNL     1      46.077   3.186   7.526  0.00  0.00    +0.000 A 
ATOM     18  C   UNL     1      45.815   4.436   8.075  0.00  0.00    +0.000 A 
ATOM     19  C   UNL     1      45.308   4.518   9.373  0.00  0.00    +0.000 A 
ATOM     20  C   UNL     1      45.078   3.349  10.108  0.00  0.00    +0.000 A 
ATOM     21  N   UNL     1      45.334   2.128   9.565  0.00  0.00    +0.000 NA
ATOM     22  C   UNL     1      45.818   2.071   8.303  0.00  0.00    +0.000 A 
BRANCH  17  24
ATOM     23  N   UNL     1      47.039   2.923   5.139  0.00  0.00    +0.000 NA
ATOM     24  C   UNL     1      46.602   3.042   6.209  0.00  0.00    +0.000 C 
ENDBRANCH  17  24
ENDBRANCH  14  20
ENDBRANCH   1  14
TORSDOF 4
ENDMDL
MODEL 3
REMARK VINA RESULT:    -6.219      4.481      6.813
REMARK INTER + INTRA:          -7.479
REMARK INTER:                  -7.347
REMARK INTRA:                  -0.132
REMARK UNBOUND:                 0.194
REMARK  Name = 
REMARK  4 active torsions:
REMARK  status: ('A' for Active; 'I' for Inactive)
REMARK    1  A    between atoms: C_2  and  C_3
REMARK    2  A    between atoms: C_6  and  C_7
REMARK    3  A    between atoms: C_7  and  N_8
REMARK    4  A    between atoms: C_12  and  C_13
REMARK                            x       y       z     vdW  Elec       q    Type
REMARK                         _______ _______ _______ _____ _____    ______ ____
ROOT
ATOM      1  N   UNL     1      48.299   5.777  15.759  0.00  0.00    +0.000 N 
ATOM      2  C   UNL     1      47.461   5.321  14.737  0.00  0.00    +0.000 A 
ATOM      3  C   UNL     1      47.068   3.990  14.553  0.00  0.00    +0.000 A 
ATOM      4  N   UNL     1      46.275   3.560  13.527  0.00  0.00    +0.000 NA
ATOM      5  C   UNL     1      45.883   4.541  12.672  0.00  0.00    +0.000 A 
ATOM      6  C   UNL     1      46.257   5.863  12.845  0.00  0.00    +0.000 A 
ATOM      7  N   UNL     1      47.051   6.273  13.870  0.00  0.00    +0.000 NA
ATOM      8  H   UNL     1      48.330   6.791  15.698  0.00  0.00    +0.000 HD
ENDROOT
BRANCH   5   9
ATOM      9  C   UNL     1      45.038   4.167  11.506  0.00  0.00    +0.000 C 
ATOM     10  N   UNL     1      44.920   2.830  11.243  0.00  0.00    +0.000 N 
ATOM     11  O   UNL     1      44.482   5.008  10.809  0.00  0.00    +0.000 OA
ATOM     12  H   UNL     1      45.401   2.149  11.821  0.00  0.00    +0.000 HD
ATOM     13  H   UNL     1      44.376   2.529  10.447  0.00  0.00    +0.000 HD
ENDBRANCH   5   9
BRANCH   1  14
ATOM     14  C   UNL     1      48.368   5.136  17.083  0.00  0.00    +0.000 C 
ATOM     15  C   UNL     1      48.020   5.966  18.314  0.00  0.00    +0.000 C 
ATOM     16  C   UNL     1      47.079   4.902  17.851  0.00  0.00    +0.000 C 
BRANCH  14  20
ATOM     17  C   UNL     1      51.545   2.263  17.529  0.00  0.00    +0.000 A 
ATOM     18  C   UNL     1      51.811   3.602  17.792  0.00  0.00    +0.000 A 
ATOM     19  C   UNL     1      50.789   4.542  17.644  0.00  0.00    +0.000 A 
ATOM     20  C   UNL     1      49.513   4.129  17.243  0.00  0.00    +0.000 A 
ATOM     21  N   UNL     1      49.258   2.817  16.985  0.00  0.00    +0.000 NA
ATOM     22  C   UNL     1      50.265   1.924  17.127  0.00  0.00    +0.000 A 
BRANCH  17  24
ATOM     23  N   UNL     1      53.363   0.442  17.795  0.00  0.00    +0.000 NA
ATOM     24  C   UNL     1      52.546   1.259  17.671  0.00  0.00    +0.000 C 
ENDBRANCH  17  24
ENDBRANCH  14  20
ENDBRANCH   1  14
TORSDOF 4
ENDMDL
MODEL 4
REMARK VINA RESULT:    -5.973      4.771      7.104
REMARK INTER + INTRA:          -7.175
REMARK INTER:                  -6.934
REMARK INTRA:                  -0.241
REMARK UNBOUND:                 0.194
REMARK  Name = 
REMARK  4 active torsions:
REMARK  status: ('A' for Active; 'I' for Inactive)
REMARK    1  A    between atoms: C_2  and  C_3
REMARK    2  A    between atoms: C_6  and  C_7
REMARK    3  A    between atoms: C_7  and  N_8
REMARK    4  A    between atoms: C_12  and  C_13
REMARK                            x       y       z     vdW  Elec       q    Type
REMARK                         _______ _______ _______ _____ _____    ______ ____
ROOT
ATOM      1  N   UNL     1      46.990   3.879  13.516  0.00  0.00    +0.000 N 
ATOM      2  C   UNL     1      47.355   3.951  14.864  0.00  0.00    +0.000 A 
ATOM      3  C   UNL     1      47.261   5.097  15.662  0.00  0.00    +0.000 A 
ATOM      4  N   UNL     1      47.654   5.155  16.969  0.00  0.00    +0.000 NA
ATOM      5  C   UNL     1      48.158   3.990  17.455  0.00  0.00    +0.000 A 
ATOM      6  C   UNL     1      48.250   2.846  16.681  0.00  0.00    +0.000 A 
ATOM      7  N   UNL     1      47.857   2.806  15.379  0.00  0.00    +0.000 NA
ATOM      8  H   UNL     1      47.076   2.907  13.229  0.00  0.00    +0.000 HD
ENDROOT
BRANCH   5   9
ATOM      9  C   UNL     1      48.640   3.960  18.863  0.00  0.00    +0.000 C 
ATOM     10  N   UNL     1      48.224   2.902  19.625  0.00  0.00    +0.000 N 
ATOM     11  O   UNL     1      49.362   4.835  19.323  0.00  0.00    +0.000 OA
ATOM     12  H   UNL     1      47.613   2.195  19.232  0.00  0.00    +0.000 HD
ATOM     13  H   UNL     1      48.507   2.851  20.593  0.00  0.00    +0.000 HD
ENDBRANCH   5   9
BRANCH   1  14
ATOM     14  C   UNL     1      45.923   4.708  12.930  0.00  0.00    +0.000 C 
ATOM     15  C   UNL     1      44.998   4.079  11.893  0.00  0.00    +0.000 C 
ATOM     16  C   UNL     1      44.477   4.380  13.260  0.00  0.00    +0.000 C 
BRANCH  14  20
ATOM     17  C   UNL     1      46.955   8.838  12.283  0.00  0.00    +0.000 A 
ATOM     18  C   UNL     1      47.910   7.860  12.026  0.00  0.00    +0.000 A 
ATOM     19  C   UNL     1      47.586   6.518  12.239  0.00  0.00    +0.000 A 
ATOM     20  C   UNL     1      46.310   6.173  12.698  0.00  0.00    +0.000 A 
ATOM     21  N   UNL     1      45.381   7.133  12.951  0.00  0.00    +0.000 NA
ATOM     22  C   UNL     1      45.717   8.427  12.746  0.00  0.00    +0.000 A 
BRANCH  17  24
ATOM     23  N   UNL     1      47.449  11.351  11.919  0.00  0.00    +0.000 NA
ATOM     24  C   UNL     1      47.226  10.221  12.077  0.00  0.00    +0.000 C 
ENDBRANCH  17  24
ENDBRANCH  14  20
ENDBRANCH   1  14
TORSDOF 4
ENDMDL
MODEL 5
REMARK VINA RESULT:    -5.761      6.172      9.143
REMARK INTER + INTRA:          -6.914
REMARK INTER:                  -6.959
REMARK INTRA:                   0.045
REMARK UNBOUND:                 0.194
REMARK  Name = 
REMARK  4 active torsions:
REMARK  status: ('A' for Active; 'I' for Inactive)
REMARK    1  A    between atoms: C_2  and  C_3
REMARK    2  A    between atoms: C_6  and  C_7
REMARK    3  A    between atoms: C_7  and  N_8
REMARK    4  A    between atoms: C_12  and  C_13
REMARK                            x       y       z     vdW  Elec       q    Type
REMARK                         _______ _______ _______ _____ _____    ______ ____
ROOT
ATOM      1  N   UNL     1      49.280   2.066  16.521  0.00  0.00    +0.000 N 
ATOM      2  C   UNL     1      50.539   2.152  17.121  0.00  0.00    +0.000 A 
ATOM      3  C   UNL     1      51.159   3.341  17.523  0.00  0.00    +0.000 A 
ATOM      4  N   UNL     1      52.405   3.406  18.078  0.00  0.00    +0.000 NA
ATOM      5  C   UNL     1      53.021   2.202  18.218  0.00  0.00    +0.000 A 
ATOM      6  C   UNL     1      52.418   1.016  17.833  0.00  0.00    +0.000 A 
ATOM      7  N   UNL     1      51.178   0.970  17.277  0.00  0.00    +0.000 NA
ATOM      8  H   UNL     1      49.052   1.079  16.429  0.00  0.00    +0.000 HD
ENDROOT
BRANCH   5   9
ATOM      9  C   UNL     1      54.395   2.171  18.789  0.00  0.00    +0.000 C 
ATOM     10  N   UNL     1      54.635   1.220  19.743  0.00  0.00    +0.000 N 
ATOM     11  O   UNL     1      55.265   2.956  18.434  0.00  0.00    +0.000 OA
ATOM     12  H   UNL     1      53.897   0.590  20.036  0.00  0.00    +0.000 HD
ATOM     13  H   UNL     1      55.546   1.176  20.176  0.00  0.00    +0.000 HD
ENDBRANCH   5   9
BRANCH   1  14
ATOM     14  C   UNL     1      48.198   3.029  16.787  0.00  0.00    +0.000 C 
ATOM     15  C   UNL     1      47.108   2.645  17.782  0.00  0.00    +0.000 C 
ATOM     16  C   UNL     1      48.118   3.679  18.157  0.00  0.00    +0.000 C 
BRANCH  14  20
ATOM     17  C   UNL     1      46.930   5.246  13.319  0.00  0.00    +0.000 A 
ATOM     18  C   UNL     1      47.484   5.937  14.391  0.00  0.00    +0.000 A 
ATOM     19  C   UNL     1      47.893   5.228  15.522  0.00  0.00    +0.000 A 
ATOM     20  C   UNL     1      47.749   3.836  15.563  0.00  0.00    +0.000 A 
ATOM     21  N   UNL     1      47.204   3.164  14.513  0.00  0.00    +0.000 NA
ATOM     22  C   UNL     1      46.808   3.871  13.430  0.00  0.00    +0.000 A 
BRANCH  17  24
ATOM     23  N   UNL     1      46.155   6.470  11.177  0.00  0.00    +0.000 NA
ATOM     24  C   UNL     1      46.503   5.915  12.137  0.00  0.00    +0.000 C 
ENDBRANCH  17  24
ENDBRANCH  14  20
ENDBRANCH   1  14
TORSDOF 4
ENDMDL
MODEL 6
REMARK VINA RESULT:    -5.718      3.288      5.653
REMARK INTER + INTRA:          -6.862
REMARK INTER:                  -6.537
REMARK INTRA:                  -0.324
REMARK UNBOUND:                 0.194
REMARK  Name = 
REMARK  4 active torsions:
REMARK  status: ('A' for Active; 'I' for Inactive)
REMARK    1  A    between atoms: C_2  and  C_3
REMARK    2  A    between atoms: C_6  and  C_7
REMARK    3  A    between atoms: C_7  and  N_8
REMARK    4  A    between atoms: C_12  and  C_13
REMARK                            x       y       z     vdW  Elec       q    Type
REMARK                         _______ _______ _______ _____ _____    ______ ____
ROOT
ATOM      1  N   UNL     1      48.072   7.236  11.828  0.00  0.00    +0.000 N 
ATOM      2  C   UNL     1      46.782   6.699  11.815  0.00  0.00    +0.000 A 
ATOM      3  C   UNL     1      45.883   6.739  12.888  0.00  0.00    +0.000 A 
ATOM      4  N   UNL     1      44.638   6.178  12.866  0.00  0.00    +0.000 NA
ATOM      5  C   UNL     1      44.321   5.562  11.697  0.00  0.00    +0.000 A 
ATOM      6  C   UNL     1      45.196   5.521  10.624  0.00  0.00    +0.000 A 
ATOM      7  N   UNL     1      46.434   6.080  10.664  0.00  0.00    +0.000 NA
ATOM      8  H   UNL     1      48.451   7.144  10.889  0.00  0.00    +0.000 HD
ENDROOT
BRANCH   5   9
ATOM      9  C   UNL     1      42.995   4.897  11.584  0.00  0.00    +0.000 C 
ATOM     10  N   UNL     1      41.898   5.687  11.797  0.00  0.00    +0.000 N 
ATOM     11  O   UNL     1      42.884   3.705  11.322  0.00  0.00    +0.000 OA
ATOM     12  H   UNL     1      42.010   6.667  12.029  0.00  0.00    +0.000 HD
ATOM     13  H   UNL     1      40.977   5.274  11.754  0.00  0.00    +0.000 HD
ENDBRANCH   5   9
BRANCH   1  14
ATOM     14  C   UNL     1      48.444   8.408  12.639  0.00  0.00    +0.000 C 
ATOM     15  C   UNL     1      49.315   9.487  12.004  0.00  0.00    +0.000 C 
ATOM     16  C   UNL     1      47.872   9.765  12.268  0.00  0.00    +0.000 C 
BRANCH  14  20
ATOM     17  C   UNL     1      49.209   7.492  16.777  0.00  0.00    +0.000 A 
ATOM     18  C   UNL     1      48.496   8.645  16.466  0.00  0.00    +0.000 A 
ATOM     19  C   UNL     1      48.249   8.953  15.127  0.00  0.00    +0.000 A 
ATOM     20  C   UNL     1      48.710   8.101  14.117  0.00  0.00    +0.000 A 
ATOM     21  N   UNL     1      49.409   6.975  14.426  0.00  0.00    +0.000 NA
ATOM     22  C   UNL     1      49.645   6.699  15.729  0.00  0.00    +0.000 A 
BRANCH  17  24
ATOM     23  N   UNL     1      49.701   6.818  19.225  0.00  0.00    +0.000 NA
ATOM     24  C   UNL     1      49.485   7.122  18.125  0.00  0.00    +0.000 C 
ENDBRANCH  17  24
ENDBRANCH  14  20
ENDBRANCH   1  14
TORSDOF 4
ENDMDL
MODEL 7
REMARK VINA RESULT:    -5.541      3.434      5.519
REMARK INTER + INTRA:          -6.643
REMARK INTER:                  -6.312
REMARK INTRA:                  -0.331
REMARK UNBOUND:                 0.194
REMARK  Name = 
REMARK  4 active torsions:
REMARK  status: ('A' for Active; 'I' for Inactive)
REMARK    1  A    between atoms: C_2  and  C_3
REMARK    2  A    between atoms: C_6  and  C_7
REMARK    3  A    between atoms: C_7  and  N_8
REMARK    4  A    between atoms: C_12  and  C_13
REMARK                            x       y       z     vdW  Elec       q    Type
REMARK                         _______ _______ _______ _____ _____    ______ ____
ROOT
ATOM      1  N   UNL     1      46.492   7.921  13.504  0.00  0.00    +0.000 N 
ATOM      2  C   UNL     1      45.923   6.964  12.659  0.00  0.00    +0.000 A 
ATOM      3  C   UNL     1      46.564   6.375  11.563  0.00  0.00    +0.000 A 
ATOM      4  N   UNL     1      45.978   5.466  10.729  0.00  0.00    +0.000 NA
ATOM      5  C   UNL     1      44.691   5.162  11.046  0.00  0.00    +0.000 A 
ATOM      6  C   UNL     1      44.046   5.729  12.133  0.00  0.00    +0.000 A 
ATOM      7  N   UNL     1      44.643   6.637  12.950  0.00  0.00    +0.000 NA
ATOM      8  H   UNL     1      45.834   8.091  14.259  0.00  0.00    +0.000 HD
ENDROOT
BRANCH   5   9
ATOM      9  C   UNL     1      43.957   4.200  10.181  0.00  0.00    +0.000 C 
ATOM     10  N   UNL     1      44.022   4.423   8.832  0.00  0.00    +0.000 N 
ATOM     11  O   UNL     1      43.319   3.263  10.645  0.00  0.00    +0.000 OA
ATOM     12  H   UNL     1      44.541   5.213   8.467  0.00  0.00    +0.000 HD
ATOM     13  H   UNL     1      43.520   3.809   8.207  0.00  0.00    +0.000 HD
ENDBRANCH   5   9
BRANCH   1  14
ATOM     14  C   UNL     1      47.937   7.984  13.784  0.00  0.00    +0.000 C 
ATOM     15  C   UNL     1      48.395   8.064  15.236  0.00  0.00    +0.000 C 
ATOM     16  C   UNL     1      48.602   6.801  14.466  0.00  0.00    +0.000 C 
BRANCH  14  20
ATOM     17  C   UNL     1      50.258  10.238  10.942  0.00  0.00    +0.000 A 
ATOM     18  C   UNL     1      49.040  10.753  11.372  0.00  0.00    +0.000 A 
ATOM     19  C   UNL     1      48.278  10.027  12.289  0.00  0.00    +0.000 A 
ATOM     20  C   UNL     1      48.747   8.798  12.769  0.00  0.00    +0.000 A 
ATOM     21  N   UNL     1      49.937   8.297  12.343  0.00  0.00    +0.000 NA
ATOM     22  C   UNL     1      50.657   9.013  11.448  0.00  0.00    +0.000 A 
BRANCH  17  24
ATOM     23  N   UNL     1      51.747  11.516   9.257  0.00  0.00    +0.000 NA
ATOM     24  C   UNL     1      51.082  10.938  10.014  0.00  0.00    +0.000 C 
ENDBRANCH  17  24
ENDBRANCH  14  20
ENDBRANCH   1  14
TORSDOF 4
ENDMDL
MODEL 8
REMARK VINA RESULT:    -5.417      5.225      7.462
REMARK INTER + INTRA:          -6.490
REMARK INTER:                  -6.421
REMARK INTRA:                  -0.069
REMARK UNBOUND:                 0.194
REMARK  Name = 
REMARK  4 active torsions:
REMARK  status: ('A' for Active; 'I' for Inactive)
REMARK    1  A    between atoms: C_2  and  C_3
REMARK    2  A    between atoms: C_6  and  C_7
REMARK    3  A    between atoms: C_7  and  N_8
REMARK    4  A    between atoms: C_12  and  C_13
REMARK                            x       y       z     vdW  Elec       q    Type
REMARK                         _______ _______ _______ _____ _____    ______ ____
ROOT
ATOM      1  N   UNL     1      48.386   8.074  14.124  0.00  0.00    +0.000 N 
ATOM      2  C   UNL     1      48.211   6.828  14.734  0.00  0.00    +0.000 A 
ATOM      3  C   UNL     1      47.395   5.801  14.247  0.00  0.00    +0.000 A 
ATOM      4  N   UNL     1      47.212   4.603  14.877  0.00  0.00    +0.000 NA
ATOM      5  C   UNL     1      47.897   4.473  16.043  0.00  0.00    +0.000 A 
ATOM      6  C   UNL     1      48.715   5.476  16.535  0.00  0.00    +0.000 A 
ATOM      7  N   UNL     1      48.882   6.665  15.897  0.00  0.00    +0.000 NA
ATOM      8  H   UNL     1      49.101   8.572  14.646  0.00  0.00    +0.000 HD
ENDROOT
BRANCH   5   9
ATOM      9  C   UNL     1      47.742   3.212  16.819  0.00  0.00    +0.000 C 
ATOM     10  N   UNL     1      48.818   2.366  16.825  0.00  0.00    +0.000 N 
ATOM     11  O   UNL     1      46.707   2.936  17.413  0.00  0.00    +0.000 OA
ATOM     12  H   UNL     1      49.660   2.603  16.314  0.00  0.00    +0.000 HD
ATOM     13  H   UNL     1      48.751   1.488  17.319  0.00  0.00    +0.000 HD
ENDBRANCH   5   9
BRANCH   1  14
ATOM     14  C   UNL     1      48.293   8.271  12.667  0.00  0.00    +0.000 C 
ATOM     15  C   UNL     1      49.504   8.834  11.930  0.00  0.00    +0.000 C 
ATOM     16  C   UNL     1      49.136   7.397  11.756  0.00  0.00    +0.000 C 
BRANCH  14  20
ATOM     17  C   UNL     1      44.421   9.530  11.266  0.00  0.00    +0.000 A 
ATOM     18  C   UNL     1      45.362  10.499  11.594  0.00  0.00    +0.000 A 
ATOM     19  C   UNL     1      46.619  10.101  12.055  0.00  0.00    +0.000 A 
ATOM     20  C   UNL     1      46.919   8.739  12.174  0.00  0.00    +0.000 A 
ATOM     21  N   UNL     1      45.993   7.794  11.855  0.00  0.00    +0.000 NA
ATOM     22  C   UNL     1      44.780   8.202  11.418  0.00  0.00    +0.000 A 
BRANCH  17  24
ATOM     23  N   UNL     1      42.068  10.165  10.398  0.00  0.00    +0.000 NA
ATOM     24  C   UNL     1      43.126   9.877  10.784  0.00  0.00    +0.000 C 
ENDBRANCH  17  24
ENDBRANCH  14  20
ENDBRANCH   1  14
TORSDOF 4
ENDMDL
MODEL 9
REMARK VINA RESULT:    -5.254      4.752      8.350
REMARK INTER + INTRA:          -6.289
REMARK INTER:                  -6.127
REMARK INTRA:                  -0.162
REMARK UNBOUND:                 0.194
REMARK  Name = 
REMARK  4 active torsions:
REMARK  status: ('A' for Active; 'I' for Inactive)
REMARK    1  A    between atoms: C_2  and  C_3
REMARK    2  A    between atoms: C_6  and  C_7
REMARK    3  A    between atoms: C_7  and  N_8
REMARK    4  A    between atoms: C_12  and  C_13
REMARK                            x       y       z     vdW  Elec       q    Type
REMARK                         _______ _______ _______ _____ _____    ______ ____
ROOT
ATOM      1  N   UNL     1      47.725   7.782  14.649  0.00  0.00    +0.000 N 
ATOM      2  C   UNL     1      48.398   7.152  15.700  0.00  0.00    +0.000 A 
ATOM      3  C   UNL     1      48.656   5.778  15.782  0.00  0.00    +0.000 A 
ATOM      4  N   UNL     1      49.286   5.178  16.834  0.00  0.00    +0.000 NA
ATOM      5  C   UNL     1      49.656   6.030  17.826  0.00  0.00    +0.000 A 
ATOM      6  C   UNL     1      49.416   7.393  17.756  0.00  0.00    +0.000 A 
ATOM      7  N   UNL     1      48.783   7.973  16.703  0.00  0.00    +0.000 NA
ATOM      8  H   UNL     1      47.772   8.784  14.814  0.00  0.00    +0.000 HD
ENDROOT
BRANCH   5   9
ATOM      9  C   UNL     1      50.327   5.468  19.030  0.00  0.00    +0.000 C 
ATOM     10  N   UNL     1      50.481   4.108  19.060  0.00  0.00    +0.000 N 
ATOM     11  O   UNL     1      50.713   6.176  19.951  0.00  0.00    +0.000 OA
ATOM     12  H   UNL     1      50.140   3.536  18.296  0.00  0.00    +0.000 HD
ATOM     13  H   UNL     1      50.910   3.679  19.867  0.00  0.00    +0.000 HD
ENDBRANCH   5   9
BRANCH   1  14
ATOM     14  C   UNL     1      47.757   7.281  13.264  0.00  0.00    +0.000 C 
ATOM     15  C   UNL     1      48.142   8.247  12.148  0.00  0.00    +0.000 C 
ATOM     16  C   UNL     1      49.096   7.173  12.556  0.00  0.00    +0.000 C 
BRANCH  14  20
ATOM     17  C   UNL     1      44.727   4.368  12.327  0.00  0.00    +0.000 A 
ATOM     18  C   UNL     1      44.389   5.717  12.308  0.00  0.00    +0.000 A 
ATOM     19  C   UNL     1      45.363   6.668  12.616  0.00  0.00    +0.000 A 
ATOM     20  C   UNL     1      46.664   6.259  12.932  0.00  0.00    +0.000 A 
ATOM     21  N   UNL     1      46.989   4.938  12.952  0.00  0.00    +0.000 NA
ATOM     22  C   UNL     1      46.028   4.032  12.658  0.00  0.00    +0.000 A 
BRANCH  17  24
ATOM     23  N   UNL     1      43.001   2.530  11.749  0.00  0.00    +0.000 NA
ATOM     24  C   UNL     1      43.777   3.353  12.014  0.00  0.00    +0.000 C 
ENDBRANCH  17  24
ENDBRANCH  14  20
ENDBRANCH   1  14
TORSDOF 4
ENDMDL
