MODEL 1
REMARK VINA RESULT:    -7.528      0.000      0.000
REMARK INTER + INTRA:         -11.352
REMARK INTER:                 -10.168
REMARK INTRA:                  -1.184
REMARK UNBOUND:                -1.184
REMARK  Name = 
REMARK  7 active torsions:
REMARK  status: ('A' for Active; 'I' for Inactive)
REMARK    1  A    between atoms: C_1  and  C_2
REMARK    2  A    between atoms: C_2  and  N_3
REMARK    3  A    between atoms: C_2  and  C_16
REMARK    4  A    between atoms: C_4  and  C_6
REMARK    5  A    between atoms: C_19  and  C_20
REMARK    6  A    between atoms: C_20  and  N_21
REMARK    7  A    between atoms: C_22  and  C_24
REMARK                            x       y       z     vdW  Elec       q    Type
REMARK                         _______ _______ _______ _____ _____    ______ ____
ROOT
ATOM      1  C   UNL     1      47.504   9.177  12.715  0.00  0.00    +0.000 C 
ATOM      2  C   UNL     1      46.991   8.047  13.616  0.00  0.00    +0.000 C 
ENDROOT
BRANCH   2   3
ATOM      3  C   UNL     1      46.208   6.973  12.873  0.00  0.00    +0.000 A 
ATOM      4  C   UNL     1      46.411   5.621  13.194  0.00  0.00    +0.000 A 
ATOM      5  C   UNL     1      45.706   4.608  12.532  0.00  0.00    +0.000 A 
ATOM      6  C   UNL     1      44.791   4.922  11.519  0.00  0.00    +0.000 A 
ATOM      7  C   UNL     1      44.597   6.267  11.185  0.00  0.00    +0.000 A 
ATOM      8  C   UNL     1      45.308   7.277  11.841  0.00  0.00    +0.000 A 
BRANCH   6   9
ATOM      9  C   UNL     1      44.037   3.845  10.789  0.00  0.00    +0.000 C 
BRANCH   9  10
ATOM     10  N   UNL     1      44.896   2.988  10.015  0.00  0.00    +0.000 N 
ATOM     11  C   UNL     1      45.260   3.331   8.734  0.00  0.00    +0.000 C 
ATOM     12  O   UNL     1      44.889   4.363   8.179  0.00  0.00    +0.000 OA
ATOM     13  H   UNL     1      45.243   2.108  10.382  0.00  0.00    +0.000 HD
BRANCH  11  14
ATOM     14  C   UNL     1      46.136   2.353   8.088  0.00  0.00    +0.000 A 
ATOM     15  C   UNL     1      47.184   2.632   7.230  0.00  0.00    +0.000 A 
ATOM     16  N   UNL     1      47.710   1.420   6.886  0.00  0.00    +0.000 N 
ATOM     17  C   UNL     1      46.985   0.456   7.529  0.00  0.00    +0.000 A 
ATOM     18  N   UNL     1      46.027   0.980   8.263  0.00  0.00    +0.000 NA
ATOM     19  H   UNL     1      48.496   1.260   6.268  0.00  0.00    +0.000 HD
ENDBRANCH  11  14
ENDBRANCH   9  10
ENDBRANCH   6   9
ENDBRANCH   2   3
BRANCH   2  20
ATOM     20  N   UNL     1      48.095   7.429  14.325  0.00  0.00    +0.000 N 
ATOM     21  C   UNL     1      48.641   7.972  15.459  0.00  0.00    +0.000 C 
ATOM     22  O   UNL     1      48.181   8.974  15.999  0.00  0.00    +0.000 OA
ATOM     23  H   UNL     1      48.614   6.723  13.815  0.00  0.00    +0.000 HD
BRANCH  21  24
ATOM     24  C   UNL     1      49.778   7.248  16.037  0.00  0.00    +0.000 A 
ATOM     25  C   UNL     1      51.039   7.829  16.040  0.00  0.00    +0.000 A 
ATOM     26  S   UNL     1      52.233   6.864  16.782  0.00  0.00    +0.000 S 
ATOM     27  C   UNL     1      51.117   5.613  17.079  0.00  0.00    +0.000 A 
ATOM     28  N   UNL     1      51.506   4.455  17.677  0.00  0.00    +0.000 NA
ATOM     29  C   UNL     1      50.566   3.579  17.804  0.00  0.00    +0.000 A 
ATOM     30  N   UNL     1      49.269   3.760  17.394  0.00  0.00    +0.000 N 
ATOM     31  C   UNL     1      48.820   4.930  16.830  0.00  0.00    +0.000 A 
ATOM     32  O   UNL     1      47.637   5.089  16.545  0.00  0.00    +0.000 OA
ATOM     33  C   UNL     1      49.846   5.938  16.639  0.00  0.00    +0.000 A 
ATOM     34  H   UNL     1      48.577   3.041  17.540  0.00  0.00    +0.000 HD
ENDBRANCH  21  24
ENDBRANCH   2  20
TORSDOF 6
ENDMDL
MODEL 2
REMARK VINA RESULT:    -7.128      2.607      3.455
REMARK INTER + INTRA:         -10.811
REMARK INTER:                  -9.600
REMARK INTRA:                  -1.211
REMARK UNBOUND:                -1.184
REMARK  Name = 
REMARK  7 active torsions:
REMARK  status: ('A' for Active; 'I' for Inactive)
REMARK    1  A    between atoms: C_1  and  C_2
REMARK    2  A    between atoms: C_2  and  N_3
REMARK    3  A    between atoms: C_2  and  C_16
REMARK    4  A    between atoms: C_4  and  C_6
REMARK    5  A    between atoms: C_19  and  C_20
REMARK    6  A    between atoms: C_20  and  N_21
REMARK    7  A    between atoms: C_22  and  C_24
REMARK                            x       y       z     vdW  Elec       q    Type
REMARK                         _______ _______ _______ _____ _____    ______ ____
ROOT
ATOM      1  C   UNL     1      47.247   3.982  16.398  0.00  0.00    +0.000 C 
ATOM      2  C   UNL     1      47.778   4.889  15.283  0.00  0.00    +0.000 C 
ENDROOT
BRANCH   2   3
ATOM      3  C   UNL     1      46.953   4.845  14.005  0.00  0.00    +0.000 A 
ATOM      4  C   UNL     1      46.328   3.646  13.624  0.00  0.00    +0.000 A 
ATOM      5  C   UNL     1      45.560   3.570  12.455  0.00  0.00    +0.000 A 
ATOM      6  C   UNL     1      45.413   4.690  11.627  0.00  0.00    +0.000 A 
ATOM      7  C   UNL     1      46.047   5.882  11.993  0.00  0.00    +0.000 A 
ATOM      8  C   UNL     1      46.820   5.954  13.157  0.00  0.00    +0.000 A 
BRANCH   6   9
ATOM      9  C   UNL     1      44.605   4.621  10.360  0.00  0.00    +0.000 C 
BRANCH   9  10
ATOM     10  N   UNL     1      45.388   4.234   9.217  0.00  0.00    +0.000 N 
ATOM     11  C   UNL     1      45.427   2.923   8.805  0.00  0.00    +0.000 C 
ATOM     12  O   UNL     1      44.816   2.018   9.368  0.00  0.00    +0.000 OA
ATOM     13  H   UNL     1      45.938   4.908   8.694  0.00  0.00    +0.000 HD
BRANCH  11  14
ATOM     14  C   UNL     1      46.268   2.700   7.628  0.00  0.00    +0.000 A 
ATOM     15  C   UNL     1      46.460   3.581   6.580  0.00  0.00    +0.000 A 
ATOM     16  N   UNL     1      47.319   2.952   5.724  0.00  0.00    +0.000 N 
ATOM     17  C   UNL     1      47.620   1.733   6.262  0.00  0.00    +0.000 A 
ATOM     18  N   UNL     1      47.004   1.544   7.409  0.00  0.00    +0.000 NA
ATOM     19  H   UNL     1      47.672   3.321   4.849  0.00  0.00    +0.000 HD
ENDBRANCH  11  14
ENDBRANCH   9  10
ENDBRANCH   6   9
ENDBRANCH   2   3
BRANCH   2  20
ATOM     20  N   UNL     1      47.865   6.260  15.748  0.00  0.00    +0.000 N 
ATOM     21  C   UNL     1      49.057   6.862  16.058  0.00  0.00    +0.000 C 
ATOM     22  O   UNL     1      50.140   6.310  15.884  0.00  0.00    +0.000 OA
ATOM     23  H   UNL     1      47.001   6.674  16.080  0.00  0.00    +0.000 HD
BRANCH  21  24
ATOM     24  C   UNL     1      48.974   8.240  16.553  0.00  0.00    +0.000 A 
ATOM     25  C   UNL     1      49.562   9.271  15.833  0.00  0.00    +0.000 A 
ATOM     26  S   UNL     1      49.337  10.809  16.534  0.00  0.00    +0.000 S 
ATOM     27  C   UNL     1      48.491  10.144  17.854  0.00  0.00    +0.000 A 
ATOM     28  N   UNL     1      48.032  10.934  18.861  0.00  0.00    +0.000 NA
ATOM     29  C   UNL     1      47.443  10.293  19.816  0.00  0.00    +0.000 A 
ATOM     30  N   UNL     1      47.264   8.934  19.849  0.00  0.00    +0.000 N 
ATOM     31  C   UNL     1      47.668   8.101  18.832  0.00  0.00    +0.000 A 
ATOM     32  O   UNL     1      47.424   6.899  18.857  0.00  0.00    +0.000 OA
ATOM     33  C   UNL     1      48.361   8.770  17.747  0.00  0.00    +0.000 A 
ATOM     34  H   UNL     1      46.779   8.496  20.617  0.00  0.00    +0.000 HD
ENDBRANCH  21  24
ENDBRANCH   2  20
TORSDOF 6
ENDMDL
MODEL 3
REMARK VINA RESULT:    -7.086      1.641      1.788
REMARK INTER + INTRA:         -10.756
REMARK INTER:                  -9.915
REMARK INTRA:                  -0.841
REMARK UNBOUND:                -1.184
REMARK  Name = 
REMARK  7 active torsions:
REMARK  status: ('A' for Active; 'I' for Inactive)
REMARK    1  A    between atoms: C_1  and  C_2
REMARK    2  A    between atoms: C_2  and  N_3
REMARK    3  A    between atoms: C_2  and  C_16
REMARK    4  A    between atoms: C_4  and  C_6
REMARK    5  A    between atoms: C_19  and  C_20
REMARK    6  A    between atoms: C_20  and  N_21
REMARK    7  A    between atoms: C_22  and  C_24
REMARK                            x       y       z     vdW  Elec       q    Type
REMARK                         _______ _______ _______ _____ _____    ______ ____
ROOT
ATOM      1  C   UNL     1      48.768   8.559  12.678  0.00  0.00    +0.000 C 
ATOM      2  C   UNL     1      47.402   8.350  13.340  0.00  0.00    +0.000 C 
ENDROOT
BRANCH   2   3
ATOM      3  C   UNL     1      46.567   7.249  12.700  0.00  0.00    +0.000 A 
ATOM      4  C   UNL     1      46.820   5.907  13.029  0.00  0.00    +0.000 A 
ATOM      5  C   UNL     1      46.070   4.870  12.461  0.00  0.00    +0.000 A 
ATOM      6  C   UNL     1      45.058   5.149  11.534  0.00  0.00    +0.000 A 
ATOM      7  C   UNL     1      44.813   6.483  11.190  0.00  0.00    +0.000 A 
ATOM      8  C   UNL     1      45.568   7.517  11.753  0.00  0.00    +0.000 A 
BRANCH   6   9
ATOM      9  C   UNL     1      44.254   4.046  10.903  0.00  0.00    +0.000 C 
BRANCH   9  10
ATOM     10  N   UNL     1      45.057   3.147  10.117  0.00  0.00    +0.000 N 
ATOM     11  C   UNL     1      45.282   3.392   8.783  0.00  0.00    +0.000 C 
ATOM     12  O   UNL     1      44.826   4.365   8.187  0.00  0.00    +0.000 OA
ATOM     13  H   UNL     1      45.467   2.309  10.516  0.00  0.00    +0.000 HD
BRANCH  11  14
ATOM     14  C   UNL     1      46.119   2.383   8.132  0.00  0.00    +0.000 A 
ATOM     15  C   UNL     1      47.145   2.624   7.236  0.00  0.00    +0.000 A 
ATOM     16  N   UNL     1      47.638   1.394   6.902  0.00  0.00    +0.000 N 
ATOM     17  C   UNL     1      46.915   0.459   7.588  0.00  0.00    +0.000 A 
ATOM     18  N   UNL     1      45.990   1.017   8.339  0.00  0.00    +0.000 NA
ATOM     19  H   UNL     1      48.401   1.207   6.264  0.00  0.00    +0.000 HD
ENDBRANCH  11  14
ENDBRANCH   9  10
ENDBRANCH   6   9
ENDBRANCH   2   3
BRANCH   2  20
ATOM     20  N   UNL     1      47.565   8.066  14.753  0.00  0.00    +0.000 N 
ATOM     21  C   UNL     1      48.213   8.919  15.608  0.00  0.00    +0.000 C 
ATOM     22  O   UNL     1      48.626  10.020  15.255  0.00  0.00    +0.000 OA
ATOM     23  H   UNL     1      47.412   7.104  15.035  0.00  0.00    +0.000 HD
BRANCH  21  24
ATOM     24  C   UNL     1      48.331   8.470  16.999  0.00  0.00    +0.000 A 
ATOM     25  C   UNL     1      47.975   9.324  18.035  0.00  0.00    +0.000 A 
ATOM     26  S   UNL     1      48.140   8.626  19.582  0.00  0.00    +0.000 S 
ATOM     27  C   UNL     1      48.745   7.177  18.925  0.00  0.00    +0.000 A 
ATOM     28  N   UNL     1      49.119   6.145  19.729  0.00  0.00    +0.000 NA
ATOM     29  C   UNL     1      49.596   5.124  19.099  0.00  0.00    +0.000 A 
ATOM     30  N   UNL     1      49.723   5.037  17.735  0.00  0.00    +0.000 N 
ATOM     31  C   UNL     1      49.314   6.033  16.881  0.00  0.00    +0.000 A 
ATOM     32  O   UNL     1      49.370   5.893  15.664  0.00  0.00    +0.000 OA
ATOM     33  C   UNL     1      48.796   7.216  17.542  0.00  0.00    +0.000 A 
ATOM     34  H   UNL     1      50.087   4.201  17.304  0.00  0.00    +0.000 HD
ENDBRANCH  21  24
ENDBRANCH   2  20
TORSDOF 6
ENDMDL
MODEL 4
REMARK VINA RESULT:    -6.763      3.595      8.411
REMARK INTER + INTRA:         -10.319
REMARK INTER:                  -9.170
REMARK INTRA:                  -1.150
REMARK UNBOUND:                -1.184
REMARK  Name = 
REMARK  7 active torsions:
REMARK  status: ('A' for Active; 'I' for Inactive)
REMARK    1  A    between atoms: C_1  and  C_2
REMARK    2  A    between atoms: C_2  and  N_3
REMARK    3  A    between atoms: C_2  and  C_16
REMARK    4  A    between atoms: C_4  and  C_6
REMARK    5  A    between atoms: C_19  and  C_20
REMARK    6  A    between atoms: C_20  and  N_21
REMARK    7  A    between atoms: C_22  and  C_24
REMARK                            x       y       z     vdW  Elec       q    Type
REMARK                         _______ _______ _______ _____ _____    ______ ____
ROOT
ATOM      1  C   UNL     1      48.111   8.876  15.101  0.00  0.00    +0.000 C 
ATOM      2  C   UNL     1      48.305   7.463  14.541  0.00  0.00    +0.000 C 
ENDROOT
BRANCH   2   3
ATOM      3  C   UNL     1      48.772   6.448  15.575  0.00  0.00    +0.000 A 
ATOM      4  C   UNL     1      47.934   5.376  15.922  0.00  0.00    +0.000 A 
ATOM      5  C   UNL     1      48.333   4.423  16.868  0.00  0.00    +0.000 A 
ATOM      6  C   UNL     1      49.575   4.529  17.504  0.00  0.00    +0.000 A 
ATOM      7  C   UNL     1      50.408   5.605  17.174  0.00  0.00    +0.000 A 
ATOM      8  C   UNL     1      50.005   6.559  16.235  0.00  0.00    +0.000 A 
BRANCH   6   9
ATOM      9  C   UNL     1      50.013   3.523  18.533  0.00  0.00    +0.000 C 
BRANCH   9  10
ATOM     10  N   UNL     1      51.377   3.102  18.360  0.00  0.00    +0.000 N 
ATOM     11  C   UNL     1      51.677   1.985  17.616  0.00  0.00    +0.000 C 
ATOM     12  O   UNL     1      50.826   1.289  17.065  0.00  0.00    +0.000 OA
ATOM     13  H   UNL     1      52.149   3.603  18.786  0.00  0.00    +0.000 HD
BRANCH  11  14
ATOM     14  C   UNL     1      53.110   1.696  17.537  0.00  0.00    +0.000 A 
ATOM     15  C   UNL     1      53.684   0.477  17.226  0.00  0.00    +0.000 A 
ATOM     16  N   UNL     1      55.034   0.685  17.268  0.00  0.00    +0.000 N 
ATOM     17  C   UNL     1      55.240   1.996  17.596  0.00  0.00    +0.000 A 
ATOM     18  N   UNL     1      54.104   2.637  17.768  0.00  0.00    +0.000 NA
ATOM     19  H   UNL     1      55.753  -0.004  17.087  0.00  0.00    +0.000 HD
ENDBRANCH  11  14
ENDBRANCH   9  10
ENDBRANCH   6   9
ENDBRANCH   2   3
BRANCH   2  20
ATOM     20  N   UNL     1      47.078   6.992  13.929  0.00  0.00    +0.000 N 
ATOM     21  C   UNL     1      46.994   6.661  12.602  0.00  0.00    +0.000 C 
ATOM     22  O   UNL     1      47.970   6.661  11.858  0.00  0.00    +0.000 OA
ATOM     23  H   UNL     1      46.225   7.158  14.453  0.00  0.00    +0.000 HD
BRANCH  21  24
ATOM     24  C   UNL     1      45.672   6.239  12.126  0.00  0.00    +0.000 A 
ATOM     25  C   UNL     1      44.800   7.175  11.586  0.00  0.00    +0.000 A 
ATOM     26  S   UNL     1      43.326   6.505  11.051  0.00  0.00    +0.000 S 
ATOM     27  C   UNL     1      43.780   4.949  11.571  0.00  0.00    +0.000 A 
ATOM     28  N   UNL     1      42.937   3.891  11.433  0.00  0.00    +0.000 NA
ATOM     29  C   UNL     1      43.394   2.780  11.906  0.00  0.00    +0.000 A 
ATOM     30  N   UNL     1      44.623   2.630  12.497  0.00  0.00    +0.000 N 
ATOM     31  C   UNL     1      45.527   3.659  12.615  0.00  0.00    +0.000 A 
ATOM     32  O   UNL     1      46.647   3.474  13.078  0.00  0.00    +0.000 OA
ATOM     33  C   UNL     1      45.049   4.937  12.123  0.00  0.00    +0.000 A 
ATOM     34  H   UNL     1      44.928   1.728  12.830  0.00  0.00    +0.000 HD
ENDBRANCH  21  24
ENDBRANCH   2  20
TORSDOF 6
ENDMDL
MODEL 5
REMARK VINA RESULT:    -6.723      1.939      2.598
REMARK INTER + INTRA:         -10.265
REMARK INTER:                  -9.071
REMARK INTRA:                  -1.194
REMARK UNBOUND:                -1.184
REMARK  Name = 
REMARK  7 active torsions:
REMARK  status: ('A' for Active; 'I' for Inactive)
REMARK    1  A    between atoms: C_1  and  C_2
REMARK    2  A    between atoms: C_2  and  N_3
REMARK    3  A    between atoms: C_2  and  C_16
REMARK    4  A    between atoms: C_4  and  C_6
REMARK    5  A    between atoms: C_19  and  C_20
REMARK    6  A    between atoms: C_20  and  N_21
REMARK    7  A    between atoms: C_22  and  C_24
REMARK                            x       y       z     vdW  Elec       q    Type
REMARK                         _______ _______ _______ _____ _____    ______ ____
ROOT
ATOM      1  C   UNL     1      50.645   8.799  13.805  0.00  0.00    +0.000 C 
ATOM      2  C   UNL     1      49.257   8.732  14.450  0.00  0.00    +0.000 C 
ENDROOT
BRANCH   2   3
ATOM      3  C   UNL     1      48.179   8.165  13.537  0.00  0.00    +0.000 A 
ATOM      4  C   UNL     1      46.889   8.723  13.556  0.00  0.00    +0.000 A 
ATOM      5  C   UNL     1      45.875   8.227  12.728  0.00  0.00    +0.000 A 
ATOM      6  C   UNL     1      46.120   7.146  11.871  0.00  0.00    +0.000 A 
ATOM      7  C   UNL     1      47.398   6.576  11.860  0.00  0.00    +0.000 A 
ATOM      8  C   UNL     1      48.408   7.068  12.693  0.00  0.00    +0.000 A 
BRANCH   6   9
ATOM      9  C   UNL     1      45.037   6.592  10.987  0.00  0.00    +0.000 C 
BRANCH   9  10
ATOM     10  N   UNL     1      45.534   5.654  10.015  0.00  0.00    +0.000 N 
ATOM     11  C   UNL     1      44.832   4.508   9.723  0.00  0.00    +0.000 C 
ATOM     12  O   UNL     1      43.764   4.214  10.257  0.00  0.00    +0.000 OA
ATOM     13  H   UNL     1      46.412   5.803   9.530  0.00  0.00    +0.000 HD
BRANCH  11  14
ATOM     14  C   UNL     1      45.473   3.665   8.714  0.00  0.00    +0.000 A 
ATOM     15  C   UNL     1      45.661   2.297   8.788  0.00  0.00    +0.000 A 
ATOM     16  N   UNL     1      46.291   1.949   7.627  0.00  0.00    +0.000 N 
ATOM     17  C   UNL     1      46.464   3.088   6.892  0.00  0.00    +0.000 A 
ATOM     18  N   UNL     1      45.985   4.143   7.516  0.00  0.00    +0.000 NA
ATOM     19  H   UNL     1      46.576   1.016   7.355  0.00  0.00    +0.000 HD
ENDBRANCH  11  14
ENDBRANCH   9  10
ENDBRANCH   6   9
ENDBRANCH   2   3
BRANCH   2  20
ATOM     20  N   UNL     1      49.306   7.953  15.672  0.00  0.00    +0.000 N 
ATOM     21  C   UNL     1      48.634   8.320  16.810  0.00  0.00    +0.000 C 
ATOM     22  O   UNL     1      47.880   9.288  16.848  0.00  0.00    +0.000 OA
ATOM     23  H   UNL     1      50.053   7.271  15.737  0.00  0.00    +0.000 HD
BRANCH  21  24
ATOM     24  C   UNL     1      48.818   7.449  17.975  0.00  0.00    +0.000 A 
ATOM     25  C   UNL     1      49.169   7.998  19.201  0.00  0.00    +0.000 A 
ATOM     26  S   UNL     1      49.303   6.845  20.451  0.00  0.00    +0.000 S 
ATOM     27  C   UNL     1      48.949   5.566  19.386  0.00  0.00    +0.000 A 
ATOM     28  N   UNL     1      48.931   4.277  19.820  0.00  0.00    +0.000 NA
ATOM     29  C   UNL     1      48.686   3.407  18.898  0.00  0.00    +0.000 A 
ATOM     30  N   UNL     1      48.450   3.711  17.581  0.00  0.00    +0.000 N 
ATOM     31  C   UNL     1      48.411   5.000  17.106  0.00  0.00    +0.000 A 
ATOM     32  O   UNL     1      48.120   5.242  15.939  0.00  0.00    +0.000 OA
ATOM     33  C   UNL     1      48.707   6.015  18.099  0.00  0.00    +0.000 A 
ATOM     34  H   UNL     1      48.247   2.983  16.913  0.00  0.00    +0.000 HD
ENDBRANCH  21  24
ENDBRANCH   2  20
TORSDOF 6
ENDMDL
MODEL 6
REMARK VINA RESULT:    -6.650      4.710      7.618
REMARK INTER + INTRA:         -10.166
REMARK INTER:                  -9.095
REMARK INTRA:                  -1.071
REMARK UNBOUND:                -1.184
REMARK  Name = 
REMARK  7 active torsions:
REMARK  status: ('A' for Active; 'I' for Inactive)
REMARK    1  A    between atoms: C_1  and  C_2
REMARK    2  A    between atoms: C_2  and  N_3
REMARK    3  A    between atoms: C_2  and  C_16
REMARK    4  A    between atoms: C_4  and  C_6
REMARK    5  A    between atoms: C_19  and  C_20
REMARK    6  A    between atoms: C_20  and  N_21
REMARK    7  A    between atoms: C_22  and  C_24
REMARK                            x       y       z     vdW  Elec       q    Type
REMARK                         _______ _______ _______ _____ _____    ______ ____
ROOT
ATOM      1  C   UNL     1      46.981   8.852  13.915  0.00  0.00    +0.000 C 
ATOM      2  C   UNL     1      47.107   8.457  12.440  0.00  0.00    +0.000 C 
ENDROOT
BRANCH   2   3
ATOM      3  C   UNL     1      48.535   8.480  11.914  0.00  0.00    +0.000 A 
ATOM      4  C   UNL     1      49.098   9.695  11.490  0.00  0.00    +0.000 A 
ATOM      5  C   UNL     1      50.410   9.753  11.003  0.00  0.00    +0.000 A 
ATOM      6  C   UNL     1      51.186   8.591  10.911  0.00  0.00    +0.000 A 
ATOM      7  C   UNL     1      50.625   7.375  11.317  0.00  0.00    +0.000 A 
ATOM      8  C   UNL     1      49.312   7.318  11.796  0.00  0.00    +0.000 A 
BRANCH   6   9
ATOM      9  C   UNL     1      52.591   8.633  10.375  0.00  0.00    +0.000 C 
BRANCH   9  10
ATOM     10  N   UNL     1      52.973   7.417   9.708  0.00  0.00    +0.000 N 
ATOM     11  C   UNL     1      53.014   7.352   8.335  0.00  0.00    +0.000 C 
ATOM     12  O   UNL     1      52.735   8.301   7.605  0.00  0.00    +0.000 OA
ATOM     13  H   UNL     1      53.209   6.576  10.225  0.00  0.00    +0.000 HD
BRANCH  11  14
ATOM     14  C   UNL     1      53.422   6.046   7.819  0.00  0.00    +0.000 A 
ATOM     15  C   UNL     1      54.143   5.083   8.502  0.00  0.00    +0.000 A 
ATOM     16  N   UNL     1      54.281   4.040   7.630  0.00  0.00    +0.000 N 
ATOM     17  C   UNL     1      53.654   4.387   6.466  0.00  0.00    +0.000 A 
ATOM     18  N   UNL     1      53.126   5.590   6.541  0.00  0.00    +0.000 NA
ATOM     19  H   UNL     1      54.759   3.166   7.812  0.00  0.00    +0.000 HD
ENDBRANCH  11  14
ENDBRANCH   9  10
ENDBRANCH   6   9
ENDBRANCH   2   3
BRANCH   2  20
ATOM     20  N   UNL     1      46.539   7.140  12.222  0.00  0.00    +0.000 N 
ATOM     21  C   UNL     1      45.305   6.953  11.653  0.00  0.00    +0.000 C 
ATOM     22  O   UNL     1      44.632   7.881  11.215  0.00  0.00    +0.000 OA
ATOM     23  H   UNL     1      46.969   6.378  12.733  0.00  0.00    +0.000 HD
BRANCH  21  24
ATOM     24  C   UNL     1      44.854   5.562  11.537  0.00  0.00    +0.000 A 
ATOM     25  C   UNL     1      44.185   4.961  12.595  0.00  0.00    +0.000 A 
ATOM     26  S   UNL     1      43.703   3.357  12.274  0.00  0.00    +0.000 S 
ATOM     27  C   UNL     1      44.418   3.392  10.730  0.00  0.00    +0.000 A 
ATOM     28  N   UNL     1      44.392   2.299   9.921  0.00  0.00    +0.000 NA
ATOM     29  C   UNL     1      45.006   2.453   8.796  0.00  0.00    +0.000 A 
ATOM     30  N   UNL     1      45.638   3.606   8.403  0.00  0.00    +0.000 N 
ATOM     31  C   UNL     1      45.650   4.749   9.166  0.00  0.00    +0.000 A 
ATOM     32  O   UNL     1      46.157   5.787   8.753  0.00  0.00    +0.000 OA
ATOM     33  C   UNL     1      44.996   4.619  10.454  0.00  0.00    +0.000 A 
ATOM     34  H   UNL     1      46.085   3.666   7.501  0.00  0.00    +0.000 HD
ENDBRANCH  21  24
ENDBRANCH   2  20
TORSDOF 6
ENDMDL
MODEL 7
REMARK VINA RESULT:    -6.604      1.759      2.069
REMARK INTER + INTRA:         -10.105
REMARK INTER:                  -9.352
REMARK INTRA:                  -0.752
REMARK UNBOUND:                -1.184
REMARK  Name = 
REMARK  7 active torsions:
REMARK  status: ('A' for Active; 'I' for Inactive)
REMARK    1  A    between atoms: C_1  and  C_2
REMARK    2  A    between atoms: C_2  and  N_3
REMARK    3  A    between atoms: C_2  and  C_16
REMARK    4  A    between atoms: C_4  and  C_6
REMARK    5  A    between atoms: C_19  and  C_20
REMARK    6  A    between atoms: C_20  and  N_21
REMARK    7  A    between atoms: C_22  and  C_24
REMARK                            x       y       z     vdW  Elec       q    Type
REMARK                         _______ _______ _______ _____ _____    ______ ____
ROOT
ATOM      1  C   UNL     1      48.174   9.577  13.049  0.00  0.00    +0.000 C 
ATOM      2  C   UNL     1      47.275   8.595  13.809  0.00  0.00    +0.000 C 
ENDROOT
BRANCH   2   3
ATOM      3  C   UNL     1      46.462   7.678  12.907  0.00  0.00    +0.000 A 
ATOM      4  C   UNL     1      45.305   8.171  12.280  0.00  0.00    +0.000 A 
ATOM      5  C   UNL     1      44.534   7.355  11.442  0.00  0.00    +0.000 A 
ATOM      6  C   UNL     1      44.892   6.019  11.224  0.00  0.00    +0.000 A 
ATOM      7  C   UNL     1      46.034   5.519  11.859  0.00  0.00    +0.000 A 
ATOM      8  C   UNL     1      46.799   6.333  12.702  0.00  0.00    +0.000 A 
BRANCH   6   9
ATOM      9  C   UNL     1      44.066   5.125  10.339  0.00  0.00    +0.000 C 
BRANCH   9  10
ATOM     10  N   UNL     1      44.818   4.574   9.244  0.00  0.00    +0.000 N 
ATOM     11  C   UNL     1      45.087   3.226   9.185  0.00  0.00    +0.000 C 
ATOM     12  O   UNL     1      44.715   2.424  10.040  0.00  0.00    +0.000 OA
ATOM     13  H   UNL     1      45.179   5.157   8.496  0.00  0.00    +0.000 HD
BRANCH  11  14
ATOM     14  C   UNL     1      45.859   2.830   8.007  0.00  0.00    +0.000 A 
ATOM     15  C   UNL     1      46.473   1.608   7.803  0.00  0.00    +0.000 A 
ATOM     16  N   UNL     1      47.064   1.693   6.574  0.00  0.00    +0.000 N 
ATOM     17  C   UNL     1      46.799   2.937   6.074  0.00  0.00    +0.000 A 
ATOM     18  N   UNL     1      46.076   3.652   6.910  0.00  0.00    +0.000 NA
ATOM     19  H   UNL     1      47.599   0.968   6.114  0.00  0.00    +0.000 HD
ENDBRANCH  11  14
ENDBRANCH   9  10
ENDBRANCH   6   9
ENDBRANCH   2   3
BRANCH   2  20
ATOM     20  N   UNL     1      48.067   7.790  14.719  0.00  0.00    +0.000 N 
ATOM     21  C   UNL     1      48.585   8.288  15.887  0.00  0.00    +0.000 C 
ATOM     22  O   UNL     1      48.347   9.425  16.283  0.00  0.00    +0.000 OA
ATOM     23  H   UNL     1      48.438   6.925  14.343  0.00  0.00    +0.000 HD
BRANCH  21  24
ATOM     24  C   UNL     1      49.397   7.359  16.679  0.00  0.00    +0.000 A 
ATOM     25  C   UNL     1      50.549   6.808  16.133  0.00  0.00    +0.000 A 
ATOM     26  S   UNL     1      51.388   5.780  17.204  0.00  0.00    +0.000 S 
ATOM     27  C   UNL     1      50.213   5.993  18.417  0.00  0.00    +0.000 A 
ATOM     28  N   UNL     1      50.314   5.350  19.612  0.00  0.00    +0.000 NA
ATOM     29  C   UNL     1      49.334   5.573  20.422  0.00  0.00    +0.000 A 
ATOM     30  N   UNL     1      48.264   6.387  20.148  0.00  0.00    +0.000 N 
ATOM     31  C   UNL     1      48.143   7.094  18.975  0.00  0.00    +0.000 A 
ATOM     32  O   UNL     1      47.214   7.873  18.793  0.00  0.00    +0.000 OA
ATOM     33  C   UNL     1      49.207   6.856  18.018  0.00  0.00    +0.000 A 
ATOM     34  H   UNL     1      47.539   6.533  20.834  0.00  0.00    +0.000 HD
ENDBRANCH  21  24
ENDBRANCH   2  20
TORSDOF 6
ENDMDL
MODEL 8
REMARK VINA RESULT:    -6.387      4.321      9.327
REMARK INTER + INTRA:          -9.811
REMARK INTER:                  -8.768
REMARK INTRA:                  -1.043
REMARK UNBOUND:                -1.184
REMARK  Name = 
REMARK  7 active torsions:
REMARK  status: ('A' for Active; 'I' for Inactive)
REMARK    1  A    between atoms: C_1  and  C_2
REMARK    2  A    between atoms: C_2  and  N_3
REMARK    3  A    between atoms: C_2  and  C_16
REMARK    4  A    between atoms: C_4  and  C_6
REMARK    5  A    between atoms: C_19  and  C_20
REMARK    6  A    between atoms: C_20  and  N_21
REMARK    7  A    between atoms: C_22  and  C_24
REMARK                            x       y       z     vdW  Elec       q    Type
REMARK                         _______ _______ _______ _____ _____    ______ ____
ROOT
ATOM      1  C   UNL     1      47.169   3.084  17.567  0.00  0.00    +0.000 C 
ATOM      2  C   UNL     1      48.296   4.089  17.303  0.00  0.00    +0.000 C 
ENDROOT
BRANCH   2   3
ATOM      3  C   UNL     1      49.693   3.509  17.474  0.00  0.00    +0.000 A 
ATOM      4  C   UNL     1      49.919   2.151  17.198  0.00  0.00    +0.000 A 
ATOM      5  C   UNL     1      51.192   1.586  17.343  0.00  0.00    +0.000 A 
ATOM      6  C   UNL     1      52.269   2.363  17.785  0.00  0.00    +0.000 A 
ATOM      7  C   UNL     1      52.047   3.714  18.076  0.00  0.00    +0.000 A 
ATOM      8  C   UNL     1      50.773   4.274  17.938  0.00  0.00    +0.000 A 
BRANCH   6   9
ATOM      9  C   UNL     1      53.640   1.768  17.960  0.00  0.00    +0.000 C 
BRANCH   9  10
ATOM     10  N   UNL     1      53.609   0.459  18.555  0.00  0.00    +0.000 N 
ATOM     11  C   UNL     1      54.278  -0.592  17.973  0.00  0.00    +0.000 C 
ATOM     12  O   UNL     1      54.928  -0.489  16.935  0.00  0.00    +0.000 OA
ATOM     13  H   UNL     1      53.090   0.271  19.406  0.00  0.00    +0.000 HD
BRANCH  11  14
ATOM     14  C   UNL     1      54.147  -1.853  18.705  0.00  0.00    +0.000 A 
ATOM     15  C   UNL     1      54.913  -2.989  18.523  0.00  0.00    +0.000 A 
ATOM     16  N   UNL     1      54.438  -3.901  19.422  0.00  0.00    +0.000 N 
ATOM     17  C   UNL     1      53.418  -3.308  20.113  0.00  0.00    +0.000 A 
ATOM     18  N   UNL     1      53.212  -2.073  19.707  0.00  0.00    +0.000 NA
ATOM     19  H   UNL     1      54.778  -4.845  19.557  0.00  0.00    +0.000 HD
ENDBRANCH  11  14
ENDBRANCH   9  10
ENDBRANCH   6   9
ENDBRANCH   2   3
BRANCH   2  20
ATOM     20  N   UNL     1      48.170   4.648  15.971  0.00  0.00    +0.000 N 
ATOM     21  C   UNL     1      48.311   5.987  15.715  0.00  0.00    +0.000 C 
ATOM     22  O   UNL     1      48.635   6.794  16.581  0.00  0.00    +0.000 OA
ATOM     23  H   UNL     1      47.723   4.056  15.279  0.00  0.00    +0.000 HD
BRANCH  21  24
ATOM     24  C   UNL     1      48.114   6.401  14.321  0.00  0.00    +0.000 A 
ATOM     25  C   UNL     1      48.932   7.376  13.767  0.00  0.00    +0.000 A 
ATOM     26  S   UNL     1      48.588   7.707  12.130  0.00  0.00    +0.000 S 
ATOM     27  C   UNL     1      47.298   6.596  12.120  0.00  0.00    +0.000 A 
ATOM     28  N   UNL     1      46.543   6.409  11.004  0.00  0.00    +0.000 NA
ATOM     29  C   UNL     1      45.575   5.567  11.149  0.00  0.00    +0.000 A 
ATOM     30  N   UNL     1      45.300   4.886  12.308  0.00  0.00    +0.000 N 
ATOM     31  C   UNL     1      46.064   5.006  13.445  0.00  0.00    +0.000 A 
ATOM     32  O   UNL     1      45.838   4.325  14.440  0.00  0.00    +0.000 OA
ATOM     33  C   UNL     1      47.149   5.963  13.342  0.00  0.00    +0.000 A 
ATOM     34  H   UNL     1      44.538   4.226  12.350  0.00  0.00    +0.000 HD
ENDBRANCH  21  24
ENDBRANCH   2  20
TORSDOF 6
ENDMDL
MODEL 9
REMARK VINA RESULT:    -6.282      5.466      7.535
REMARK INTER + INTRA:          -9.669
REMARK INTER:                  -8.709
REMARK INTRA:                  -0.960
REMARK UNBOUND:                -1.184
REMARK  Name = 
REMARK  7 active torsions:
REMARK  status: ('A' for Active; 'I' for Inactive)
REMARK    1  A    between atoms: C_1  and  C_2
REMARK    2  A    between atoms: C_2  and  N_3
REMARK    3  A    between atoms: C_2  and  C_16
REMARK    4  A    between atoms: C_4  and  C_6
REMARK    5  A    between atoms: C_19  and  C_20
REMARK    6  A    between atoms: C_20  and  N_21
REMARK    7  A    between atoms: C_22  and  C_24
REMARK                            x       y       z     vdW  Elec       q    Type
REMARK                         _______ _______ _______ _____ _____    ______ ____
ROOT
ATOM      1  C   UNL     1      51.403  10.734  11.625  0.00  0.00    +0.000 C 
ATOM      2  C   UNL     1      51.720   9.237  11.696  0.00  0.00    +0.000 C 
ENDROOT
BRANCH   2   3
ATOM      3  C   UNL     1      50.634   8.406  12.366  0.00  0.00    +0.000 A 
ATOM      4  C   UNL     1      50.671   8.208  13.756  0.00  0.00    +0.000 A 
ATOM      5  C   UNL     1      49.687   7.451  14.404  0.00  0.00    +0.000 A 
ATOM      6  C   UNL     1      48.650   6.858  13.674  0.00  0.00    +0.000 A 
ATOM      7  C   UNL     1      48.618   7.039  12.287  0.00  0.00    +0.000 A 
ATOM      8  C   UNL     1      49.605   7.788  11.640  0.00  0.00    +0.000 A 
BRANCH   6   9
ATOM      9  C   UNL     1      47.594   6.029  14.353  0.00  0.00    +0.000 C 
BRANCH   9  10
ATOM     10  N   UNL     1      46.385   5.922  13.582  0.00  0.00    +0.000 N 
ATOM     11  C   UNL     1      45.844   4.691  13.292  0.00  0.00    +0.000 C 
ATOM     12  O   UNL     1      46.342   3.630  13.660  0.00  0.00    +0.000 OA
ATOM     13  H   UNL     1      45.906   6.741  13.222  0.00  0.00    +0.000 HD
BRANCH  11  14
ATOM     14  C   UNL     1      44.614   4.759  12.501  0.00  0.00    +0.000 A 
ATOM     15  C   UNL     1      43.346   5.031  12.981  0.00  0.00    +0.000 A 
ATOM     16  N   UNL     1      42.525   4.994  11.890  0.00  0.00    +0.000 N 
ATOM     17  C   UNL     1      43.298   4.709  10.800  0.00  0.00    +0.000 A 
ATOM     18  N   UNL     1      44.563   4.559  11.129  0.00  0.00    +0.000 NA
ATOM     19  H   UNL     1      41.525   5.152  11.886  0.00  0.00    +0.000 HD
ENDBRANCH  11  14
ENDBRANCH   9  10
ENDBRANCH   6   9
ENDBRANCH   2   3
BRANCH   2  20
ATOM     20  N   UNL     1      51.972   8.712  10.367  0.00  0.00    +0.000 N 
ATOM     21  C   UNL     1      53.234   8.597   9.845  0.00  0.00    +0.000 C 
ATOM     22  O   UNL     1      54.243   8.852  10.495  0.00  0.00    +0.000 OA
ATOM     23  H   UNL     1      51.173   8.674   9.744  0.00  0.00    +0.000 HD
BRANCH  21  24
ATOM     24  C   UNL     1      53.319   8.086   8.473  0.00  0.00    +0.000 A 
ATOM     25  C   UNL     1      53.144   8.951   7.400  0.00  0.00    +0.000 A 
ATOM     26  S   UNL     1      53.312   8.196   5.880  0.00  0.00    +0.000 S 
ATOM     27  C   UNL     1      53.571   6.676   6.602  0.00  0.00    +0.000 A 
ATOM     28  N   UNL     1      53.758   5.563   5.843  0.00  0.00    +0.000 NA
ATOM     29  C   UNL     1      53.903   4.474   6.520  0.00  0.00    +0.000 A 
ATOM     30  N   UNL     1      53.887   4.398   7.890  0.00  0.00    +0.000 N 
ATOM     31  C   UNL     1      53.748   5.501   8.699  0.00  0.00    +0.000 A 
ATOM     32  O   UNL     1      53.815   5.410   9.920  0.00  0.00    +0.000 OA
ATOM     33  C   UNL     1      53.554   6.749   7.984  0.00  0.00    +0.000 A 
ATOM     34  H   UNL     1      54.025   3.516   8.359  0.00  0.00    +0.000 HD
ENDBRANCH  21  24
ENDBRANCH   2  20
TORSDOF 6
ENDMDL
