MODEL 1
REMARK VINA RESULT:    -8.236      0.000      0.000
REMARK INTER + INTRA:         -13.206
REMARK INTER:                 -12.329
REMARK INTRA:                  -0.877
REMARK UNBOUND:                -0.877
REMARK  Name = 
REMARK  10 active torsions:
REMARK  status: ('A' for Active; 'I' for Inactive)
REMARK    1  A    between atoms: C_1  and  C_2
REMARK    2  A    between atoms: C_2  and  N_3
REMARK    3  A    between atoms: C_2  and  C_20
REMARK    4  A    between atoms: N_3  and  C_4
REMARK    5  A    between atoms: C_4  and  C_5
REMARK    6  A    between atoms: C_8  and  C_9
REMARK    7  A    between atoms: C_9  and  O_10
REMARK    8  A    between atoms: C_9  and  C_11
REMARK    9  A    between atoms: C_11  and  N_12
REMARK   10  A    between atoms: N_12  and  C_13
REMARK                            x       y       z     vdW  Elec       q    Type
REMARK                         _______ _______ _______ _____ _____    ______ ____
ROOT
ATOM      1  C   UNL     1      46.834   5.072  13.460  0.00  0.00    +0.000 A 
ATOM      2  C   UNL     1      46.868   6.120  12.536  0.00  0.00    +0.000 A 
ATOM      3  C   UNL     1      46.124   6.033  11.365  0.00  0.00    +0.000 A 
ATOM      4  C   UNL     1      45.357   4.893  11.134  0.00  0.00    +0.000 A 
ATOM      5  N   UNL     1      45.320   3.851  12.003  0.00  0.00    +0.000 NA
ATOM      6  C   UNL     1      46.063   3.961  13.133  0.00  0.00    +0.000 A 
ENDROOT
BRANCH   1   7
ATOM      7  C   UNL     1      47.415   5.251  14.836  0.00  0.00    +0.000 C 
BRANCH   7   8
ATOM      8  N   UNL     1      47.791   4.007  15.519  0.00  0.00    +0.000 NA
ATOM      9  H   UNL     1      48.729   3.765  15.170  0.00  0.00    +0.000 HD
BRANCH   8  11
ATOM     10  C   UNL     1      47.134   3.060  17.694  0.00  0.00    +0.000 C 
ATOM     11  C   UNL     1      47.890   4.208  16.983  0.00  0.00    +0.000 C 
BRANCH  11  12
ATOM     12  C   UNL     1      49.355   4.244  17.448  0.00  0.00    +0.000 A 
ATOM     13  C   UNL     1      49.946   5.385  17.984  0.00  0.00    +0.000 A 
ATOM     14  S   UNL     1      51.526   5.148  18.574  0.00  0.00    +0.000 S 
ATOM     15  C   UNL     1      51.517   3.527  18.075  0.00  0.00    +0.000 A 
ATOM     16  N   UNL     1      52.569   2.710  18.352  0.00  0.00    +0.000 NA
ATOM     17  C   UNL     1      52.427   1.502  17.912  0.00  0.00    +0.000 A 
ATOM     18  N   UNL     1      51.358   1.058  17.174  0.00  0.00    +0.000 N 
ATOM     19  C   UNL     1      50.332   1.884  16.777  0.00  0.00    +0.000 A 
ATOM     20  O   UNL     1      49.510   1.529  15.936  0.00  0.00    +0.000 OA
ATOM     21  C   UNL     1      50.361   3.202  17.385  0.00  0.00    +0.000 A 
ATOM     22  H   UNL     1      51.355   0.127  16.790  0.00  0.00    +0.000 HD
ENDBRANCH  11  12
ENDBRANCH   8  11
ENDBRANCH   7   8
ENDBRANCH   1   7
BRANCH   4  23
ATOM     23  C   UNL     1      44.486   4.813   9.898  0.00  0.00    +0.000 C 
BRANCH  23  24
ATOM     24  O   UNL     1      43.137   5.192  10.207  0.00  0.00    +0.000 OA
ATOM     25  H   UNL     1      43.223   5.892  10.883  0.00  0.00    +0.000 HD
ENDBRANCH  23  24
BRANCH  23  26
ATOM     26  C   UNL     1      44.471   3.382   9.318  0.00  0.00    +0.000 C 
BRANCH  26  27
ATOM     27  N   UNL     1      44.994   3.286   7.938  0.00  0.00    +0.000 NA
ATOM     28  H   UNL     1      44.696   4.134   7.456  0.00  0.00    +0.000 HD
BRANCH  27  29
ATOM     29  C   UNL     1      46.446   3.245   7.876  0.00  0.00    +0.000 C 
ATOM     30  C   UNL     1      47.064   1.897   7.531  0.00  0.00    +0.000 C 
ATOM     31  C   UNL     1      46.804   1.769   6.046  0.00  0.00    +0.000 C 
ATOM     32  C   UNL     1      46.871   3.205   5.553  0.00  0.00    +0.000 C 
ATOM     33  N   UNL     1      46.803   4.070   6.737  0.00  0.00    +0.000 NA
ATOM     34  H   UNL     1      46.078   4.771   6.606  0.00  0.00    +0.000 HD
ENDBRANCH  27  29
ENDBRANCH  26  27
ENDBRANCH  23  26
ENDBRANCH   4  23
TORSDOF 9
ENDMDL
MODEL 2
REMARK VINA RESULT:    -7.578      2.899      3.935
REMARK INTER + INTRA:         -12.220
REMARK INTER:                 -10.632
REMARK INTRA:                  -1.588
REMARK UNBOUND:                -0.877
REMARK  Name = 
REMARK  10 active torsions:
REMARK  status: ('A' for Active; 'I' for Inactive)
REMARK    1  A    between atoms: C_1  and  C_2
REMARK    2  A    between atoms: C_2  and  N_3
REMARK    3  A    between atoms: C_2  and  C_20
REMARK    4  A    between atoms: N_3  and  C_4
REMARK    5  A    between atoms: C_4  and  C_5
REMARK    6  A    between atoms: C_8  and  C_9
REMARK    7  A    between atoms: C_9  and  O_10
REMARK    8  A    between atoms: C_9  and  C_11
REMARK    9  A    between atoms: C_11  and  N_12
REMARK   10  A    between atoms: N_12  and  C_13
REMARK                            x       y       z     vdW  Elec       q    Type
REMARK                         _______ _______ _______ _____ _____    ______ ____
ROOT
ATOM      1  C   UNL     1      47.215   6.696  13.305  0.00  0.00    +0.000 A 
ATOM      2  C   UNL     1      46.230   7.340  12.552  0.00  0.00    +0.000 A 
ATOM      3  C   UNL     1      45.039   6.682  12.265  0.00  0.00    +0.000 A 
ATOM      4  C   UNL     1      44.853   5.384  12.737  0.00  0.00    +0.000 A 
ATOM      5  N   UNL     1      45.799   4.726  13.453  0.00  0.00    +0.000 NA
ATOM      6  C   UNL     1      46.954   5.391  13.710  0.00  0.00    +0.000 A 
ENDROOT
BRANCH   1   7
ATOM      7  C   UNL     1      48.388   7.469  13.844  0.00  0.00    +0.000 C 
BRANCH   7   8
ATOM      8  N   UNL     1      49.554   6.655  14.209  0.00  0.00    +0.000 NA
ATOM      9  H   UNL     1      50.083   6.512  13.338  0.00  0.00    +0.000 HD
BRANCH   8  11
ATOM     10  C   UNL     1      50.920   8.683  14.495  0.00  0.00    +0.000 C 
ATOM     11  C   UNL     1      50.433   7.374  15.160  0.00  0.00    +0.000 C 
BRANCH  11  12
ATOM     12  C   UNL     1      49.700   7.689  16.474  0.00  0.00    +0.000 A 
ATOM     13  C   UNL     1      49.725   8.949  17.066  0.00  0.00    +0.000 A 
ATOM     14  S   UNL     1      48.716   9.107  18.429  0.00  0.00    +0.000 S 
ATOM     15  C   UNL     1      48.254   7.477  18.331  0.00  0.00    +0.000 A 
ATOM     16  N   UNL     1      47.323   6.968  19.183  0.00  0.00    +0.000 NA
ATOM     17  C   UNL     1      47.069   5.714  18.994  0.00  0.00    +0.000 A 
ATOM     18  N   UNL     1      47.701   4.916  18.074  0.00  0.00    +0.000 N 
ATOM     19  C   UNL     1      48.727   5.368  17.275  0.00  0.00    +0.000 A 
ATOM     20  O   UNL     1      49.426   4.594  16.627  0.00  0.00    +0.000 OA
ATOM     21  C   UNL     1      48.934   6.804  17.330  0.00  0.00    +0.000 A 
ATOM     22  H   UNL     1      47.514   3.927  18.041  0.00  0.00    +0.000 HD
ENDBRANCH  11  12
ENDBRANCH   8  11
ENDBRANCH   7   8
ENDBRANCH   1   7
BRANCH   4  23
ATOM     23  C   UNL     1      43.535   4.680  12.494  0.00  0.00    +0.000 C 
BRANCH  23  24
ATOM     24  O   UNL     1      42.671   4.823  13.631  0.00  0.00    +0.000 OA
ATOM     25  H   UNL     1      42.622   3.929  14.022  0.00  0.00    +0.000 HD
ENDBRANCH  23  24
BRANCH  23  26
ATOM     26  C   UNL     1      43.747   3.173  12.228  0.00  0.00    +0.000 C 
BRANCH  26  27
ATOM     27  N   UNL     1      44.716   2.884  11.148  0.00  0.00    +0.000 NA
ATOM     28  H   UNL     1      45.095   1.957  11.341  0.00  0.00    +0.000 HD
BRANCH  27  29
ATOM     29  C   UNL     1      44.107   2.833   9.829  0.00  0.00    +0.000 C 
ATOM     30  C   UNL     1      44.505   3.943   8.865  0.00  0.00    +0.000 C 
ATOM     31  C   UNL     1      45.905   3.549   8.446  0.00  0.00    +0.000 C 
ATOM     32  C   UNL     1      45.864   2.029   8.471  0.00  0.00    +0.000 C 
ATOM     33  N   UNL     1      44.651   1.644   9.203  0.00  0.00    +0.000 NA
ATOM     34  H   UNL     1      44.891   0.976   9.930  0.00  0.00    +0.000 HD
ENDBRANCH  27  29
ENDBRANCH  26  27
ENDBRANCH  23  26
ENDBRANCH   4  23
TORSDOF 9
ENDMDL
MODEL 3
REMARK VINA RESULT:    -7.407      2.293      3.105
REMARK INTER + INTRA:         -11.965
REMARK INTER:                 -10.784
REMARK INTRA:                  -1.181
REMARK UNBOUND:                -0.877
REMARK  Name = 
REMARK  10 active torsions:
REMARK  status: ('A' for Active; 'I' for Inactive)
REMARK    1  A    between atoms: C_1  and  C_2
REMARK    2  A    between atoms: C_2  and  N_3
REMARK    3  A    between atoms: C_2  and  C_20
REMARK    4  A    between atoms: N_3  and  C_4
REMARK    5  A    between atoms: C_4  and  C_5
REMARK    6  A    between atoms: C_8  and  C_9
REMARK    7  A    between atoms: C_9  and  O_10
REMARK    8  A    between atoms: C_9  and  C_11
REMARK    9  A    between atoms: C_11  and  N_12
REMARK   10  A    between atoms: N_12  and  C_13
REMARK                            x       y       z     vdW  Elec       q    Type
REMARK                         _______ _______ _______ _____ _____    ______ ____
ROOT
ATOM      1  C   UNL     1      47.081   6.244  12.950  0.00  0.00    +0.000 A 
ATOM      2  C   UNL     1      46.631   6.705  11.710  0.00  0.00    +0.000 A 
ATOM      3  C   UNL     1      45.516   6.121  11.118  0.00  0.00    +0.000 A 
ATOM      4  C   UNL     1      44.869   5.078  11.779  0.00  0.00    +0.000 A 
ATOM      5  N   UNL     1      45.295   4.595  12.974  0.00  0.00    +0.000 NA
ATOM      6  C   UNL     1      46.390   5.180  13.522  0.00  0.00    +0.000 A 
ENDROOT
BRANCH   1   7
ATOM      7  C   UNL     1      48.112   7.021  13.722  0.00  0.00    +0.000 C 
BRANCH   7   8
ATOM      8  N   UNL     1      48.830   6.254  14.747  0.00  0.00    +0.000 NA
ATOM      9  H   UNL     1      49.442   5.603  14.236  0.00  0.00    +0.000 HD
BRANCH   8  11
ATOM     10  C   UNL     1      49.585   8.580  15.030  0.00  0.00    +0.000 C 
ATOM     11  C   UNL     1      49.690   7.134  15.571  0.00  0.00    +0.000 C 
BRANCH  11  12
ATOM     12  C   UNL     1      49.281   7.093  17.052  0.00  0.00    +0.000 A 
ATOM     13  C   UNL     1      48.889   8.228  17.756  0.00  0.00    +0.000 A 
ATOM     14  S   UNL     1      48.331   7.920  19.336  0.00  0.00    +0.000 S 
ATOM     15  C   UNL     1      48.654   6.262  19.174  0.00  0.00    +0.000 A 
ATOM     16  N   UNL     1      48.327   5.392  20.167  0.00  0.00    +0.000 NA
ATOM     17  C   UNL     1      48.631   4.162  19.908  0.00  0.00    +0.000 A 
ATOM     18  N   UNL     1      49.282   3.736  18.777  0.00  0.00    +0.000 N 
ATOM     19  C   UNL     1      49.729   4.602  17.805  0.00  0.00    +0.000 A 
ATOM     20  O   UNL     1      50.499   4.233  16.922  0.00  0.00    +0.000 OA
ATOM     21  C   UNL     1      49.266   5.968  17.967  0.00  0.00    +0.000 A 
ATOM     22  H   UNL     1      49.564   2.774  18.682  0.00  0.00    +0.000 HD
ENDBRANCH  11  12
ENDBRANCH   8  11
ENDBRANCH   7   8
ENDBRANCH   1   7
BRANCH   4  23
ATOM     23  C   UNL     1      43.613   4.478  11.183  0.00  0.00    +0.000 C 
BRANCH  23  24
ATOM     24  O   UNL     1      42.473   4.785  11.998  0.00  0.00    +0.000 OA
ATOM     25  H   UNL     1      41.712   4.756  11.386  0.00  0.00    +0.000 HD
ENDBRANCH  23  24
BRANCH  23  26
ATOM     26  C   UNL     1      43.730   2.943  11.063  0.00  0.00    +0.000 C 
BRANCH  26  27
ATOM     27  N   UNL     1      44.907   2.487  10.292  0.00  0.00    +0.000 NA
ATOM     28  H   UNL     1      45.251   1.648  10.758  0.00  0.00    +0.000 HD
BRANCH  27  29
ATOM     29  C   UNL     1      44.589   2.119   8.922  0.00  0.00    +0.000 C 
ATOM     30  C   UNL     1      44.729   3.223   7.883  0.00  0.00    +0.000 C 
ATOM     31  C   UNL     1      46.227   3.341   7.706  0.00  0.00    +0.000 C 
ATOM     32  C   UNL     1      46.720   1.920   7.924  0.00  0.00    +0.000 C 
ATOM     33  N   UNL     1      45.615   1.170   8.534  0.00  0.00    +0.000 NA
ATOM     34  H   UNL     1      45.947   0.693   9.368  0.00  0.00    +0.000 HD
ENDBRANCH  27  29
ENDBRANCH  26  27
ENDBRANCH  23  26
ENDBRANCH   4  23
TORSDOF 9
ENDMDL
MODEL 4
REMARK VINA RESULT:    -7.395      2.088      2.671
REMARK INTER + INTRA:         -11.947
REMARK INTER:                 -10.899
REMARK INTRA:                  -1.047
REMARK UNBOUND:                -0.877
REMARK  Name = 
REMARK  10 active torsions:
REMARK  status: ('A' for Active; 'I' for Inactive)
REMARK    1  A    between atoms: C_1  and  C_2
REMARK    2  A    between atoms: C_2  and  N_3
REMARK    3  A    between atoms: C_2  and  C_20
REMARK    4  A    between atoms: N_3  and  C_4
REMARK    5  A    between atoms: C_4  and  C_5
REMARK    6  A    between atoms: C_8  and  C_9
REMARK    7  A    between atoms: C_9  and  O_10
REMARK    8  A    between atoms: C_9  and  C_11
REMARK    9  A    between atoms: C_11  and  N_12
REMARK   10  A    between atoms: N_12  and  C_13
REMARK                            x       y       z     vdW  Elec       q    Type
REMARK                         _______ _______ _______ _____ _____    ______ ____
ROOT
ATOM      1  C   UNL     1      47.343   5.862  13.653  0.00  0.00    +0.000 A 
ATOM      2  C   UNL     1      46.316   6.583  13.041  0.00  0.00    +0.000 A 
ATOM      3  C   UNL     1      45.176   5.922  12.595  0.00  0.00    +0.000 A 
ATOM      4  C   UNL     1      45.085   4.542  12.768  0.00  0.00    +0.000 A 
ATOM      5  N   UNL     1      46.076   3.811  13.340  0.00  0.00    +0.000 NA
ATOM      6  C   UNL     1      47.178   4.484  13.757  0.00  0.00    +0.000 A 
ENDROOT
BRANCH   1   7
ATOM      7  C   UNL     1      48.455   6.579  14.369  0.00  0.00    +0.000 C 
BRANCH   7   8
ATOM      8  N   UNL     1      48.090   7.152  15.670  0.00  0.00    +0.000 NA
ATOM      9  H   UNL     1      47.148   6.797  15.882  0.00  0.00    +0.000 HD
BRANCH   8  11
ATOM     10  C   UNL     1      48.757   7.530  18.009  0.00  0.00    +0.000 C 
ATOM     11  C   UNL     1      49.002   6.683  16.738  0.00  0.00    +0.000 C 
BRANCH  11  12
ATOM     12  C   UNL     1      48.788   5.192  17.046  0.00  0.00    +0.000 A 
ATOM     13  C   UNL     1      47.522   4.627  17.184  0.00  0.00    +0.000 A 
ATOM     14  S   UNL     1      47.524   2.934  17.367  0.00  0.00    +0.000 S 
ATOM     15  C   UNL     1      49.220   2.888  17.342  0.00  0.00    +0.000 A 
ATOM     16  N   UNL     1      49.882   1.700  17.382  0.00  0.00    +0.000 NA
ATOM     17  C   UNL     1      51.170   1.816  17.356  0.00  0.00    +0.000 A 
ATOM     18  N   UNL     1      51.850   3.009  17.353  0.00  0.00    +0.000 N 
ATOM     19  C   UNL     1      51.216   4.228  17.428  0.00  0.00    +0.000 A 
ATOM     20  O   UNL     1      51.838   5.263  17.650  0.00  0.00    +0.000 OA
ATOM     21  C   UNL     1      49.773   4.157  17.289  0.00  0.00    +0.000 A 
ATOM     22  H   UNL     1      52.855   3.023  17.420  0.00  0.00    +0.000 HD
ENDBRANCH  11  12
ENDBRANCH   8  11
ENDBRANCH   7   8
ENDBRANCH   1   7
BRANCH   4  23
ATOM     23  C   UNL     1      43.823   3.816  12.353  0.00  0.00    +0.000 C 
BRANCH  23  24
ATOM     24  O   UNL     1      43.849   2.457  12.813  0.00  0.00    +0.000 OA
ATOM     25  H   UNL     1      43.472   2.491  13.714  0.00  0.00    +0.000 HD
ENDBRANCH  23  24
BRANCH  23  26
ATOM     26  C   UNL     1      43.663   3.809  10.817  0.00  0.00    +0.000 C 
BRANCH  26  27
ATOM     27  N   UNL     1      44.811   3.220  10.095  0.00  0.00    +0.000 NA
ATOM     28  H   UNL     1      45.128   2.428  10.653  0.00  0.00    +0.000 HD
BRANCH  27  29
ATOM     29  C   UNL     1      44.461   2.707   8.781  0.00  0.00    +0.000 C 
ATOM     30  C   UNL     1      45.143   3.378   7.596  0.00  0.00    +0.000 C 
ATOM     31  C   UNL     1      46.550   2.825   7.650  0.00  0.00    +0.000 C 
ATOM     32  C   UNL     1      46.354   1.421   8.198  0.00  0.00    +0.000 C 
ATOM     33  N   UNL     1      44.993   1.358   8.744  0.00  0.00    +0.000 NA
ATOM     34  H   UNL     1      45.023   0.996   9.693  0.00  0.00    +0.000 HD
ENDBRANCH  27  29
ENDBRANCH  26  27
ENDBRANCH  23  26
ENDBRANCH   4  23
TORSDOF 9
ENDMDL
MODEL 5
REMARK VINA RESULT:    -7.329      2.104      2.738
REMARK INTER + INTRA:         -11.849
REMARK INTER:                 -10.650
REMARK INTRA:                  -1.199
REMARK UNBOUND:                -0.877
REMARK  Name = 
REMARK  10 active torsions:
REMARK  status: ('A' for Active; 'I' for Inactive)
REMARK    1  A    between atoms: C_1  and  C_2
REMARK    2  A    between atoms: C_2  and  N_3
REMARK    3  A    between atoms: C_2  and  C_20
REMARK    4  A    between atoms: N_3  and  C_4
REMARK    5  A    between atoms: C_4  and  C_5
REMARK    6  A    between atoms: C_8  and  C_9
REMARK    7  A    between atoms: C_9  and  O_10
REMARK    8  A    between atoms: C_9  and  C_11
REMARK    9  A    between atoms: C_11  and  N_12
REMARK   10  A    between atoms: N_12  and  C_13
REMARK                            x       y       z     vdW  Elec       q    Type
REMARK                         _______ _______ _______ _____ _____    ______ ____
ROOT
ATOM      1  C   UNL     1      46.329   5.986  12.460  0.00  0.00    +0.000 A 
ATOM      2  C   UNL     1      45.820   4.859  13.110  0.00  0.00    +0.000 A 
ATOM      3  C   UNL     1      45.088   3.919  12.392  0.00  0.00    +0.000 A 
ATOM      4  C   UNL     1      44.874   4.125  11.031  0.00  0.00    +0.000 A 
ATOM      5  N   UNL     1      45.337   5.220  10.377  0.00  0.00    +0.000 NA
ATOM      6  C   UNL     1      46.041   6.123  11.106  0.00  0.00    +0.000 A 
ENDROOT
BRANCH   1   7
ATOM      7  C   UNL     1      47.331   6.873  13.146  0.00  0.00    +0.000 C 
BRANCH   7   8
ATOM      8  N   UNL     1      48.294   6.175  14.007  0.00  0.00    +0.000 NA
ATOM      9  H   UNL     1      48.950   5.700  13.371  0.00  0.00    +0.000 HD
BRANCH   8  11
ATOM     10  C   UNL     1      48.109   8.213  15.375  0.00  0.00    +0.000 C 
ATOM     11  C   UNL     1      49.071   7.130  14.829  0.00  0.00    +0.000 C 
BRANCH  11  12
ATOM     12  C   UNL     1      49.783   6.422  15.992  0.00  0.00    +0.000 A 
ATOM     13  C   UNL     1      51.145   6.569  16.241  0.00  0.00    +0.000 A 
ATOM     14  S   UNL     1      51.684   5.818  17.672  0.00  0.00    +0.000 S 
ATOM     15  C   UNL     1      50.135   5.202  17.985  0.00  0.00    +0.000 A 
ATOM     16  N   UNL     1      49.883   4.509  19.128  0.00  0.00    +0.000 NA
ATOM     17  C   UNL     1      48.661   4.099  19.234  0.00  0.00    +0.000 A 
ATOM     18  N   UNL     1      47.690   4.270  18.279  0.00  0.00    +0.000 N 
ATOM     19  C   UNL     1      47.939   4.865  17.062  0.00  0.00    +0.000 A 
ATOM     20  O   UNL     1      47.129   4.807  16.141  0.00  0.00    +0.000 OA
ATOM     21  C   UNL     1      49.246   5.489  16.962  0.00  0.00    +0.000 A 
ATOM     22  H   UNL     1      46.783   3.848  18.391  0.00  0.00    +0.000 HD
ENDBRANCH  11  12
ENDBRANCH   8  11
ENDBRANCH   7   8
ENDBRANCH   1   7
BRANCH   4  23
ATOM     23  C   UNL     1      44.140   3.077  10.221  0.00  0.00    +0.000 C 
BRANCH  23  24
ATOM     24  O   UNL     1      43.500   2.128  11.087  0.00  0.00    +0.000 OA
ATOM     25  H   UNL     1      42.618   1.984  10.691  0.00  0.00    +0.000 HD
ENDBRANCH  23  24
BRANCH  23  26
ATOM     26  C   UNL     1      45.106   2.315   9.288  0.00  0.00    +0.000 C 
BRANCH  26  27
ATOM     27  N   UNL     1      45.357   2.992   7.997  0.00  0.00    +0.000 NA
ATOM     28  H   UNL     1      44.937   3.918   8.071  0.00  0.00    +0.000 HD
BRANCH  27  29
ATOM     29  C   UNL     1      46.769   3.182   7.713  0.00  0.00    +0.000 C 
ATOM     30  C   UNL     1      47.538   1.940   7.281  0.00  0.00    +0.000 C 
ATOM     31  C   UNL     1      47.081   1.731   5.854  0.00  0.00    +0.000 C 
ATOM     32  C   UNL     1      46.838   3.145   5.352  0.00  0.00    +0.000 C 
ATOM     33  N   UNL     1      46.811   4.021   6.530  0.00  0.00    +0.000 NA
ATOM     34  H   UNL     1      45.971   4.593   6.510  0.00  0.00    +0.000 HD
ENDBRANCH  27  29
ENDBRANCH  26  27
ENDBRANCH  23  26
ENDBRANCH   4  23
TORSDOF 9
ENDMDL
MODEL 6
REMARK VINA RESULT:    -6.890      2.399      3.189
REMARK INTER + INTRA:         -11.191
REMARK INTER:                  -9.668
REMARK INTRA:                  -1.523
REMARK UNBOUND:                -0.877
REMARK  Name = 
REMARK  10 active torsions:
REMARK  status: ('A' for Active; 'I' for Inactive)
REMARK    1  A    between atoms: C_1  and  C_2
REMARK    2  A    between atoms: C_2  and  N_3
REMARK    3  A    between atoms: C_2  and  C_20
REMARK    4  A    between atoms: N_3  and  C_4
REMARK    5  A    between atoms: C_4  and  C_5
REMARK    6  A    between atoms: C_8  and  C_9
REMARK    7  A    between atoms: C_9  and  O_10
REMARK    8  A    between atoms: C_9  and  C_11
REMARK    9  A    between atoms: C_11  and  N_12
REMARK   10  A    between atoms: N_12  and  C_13
REMARK                            x       y       z     vdW  Elec       q    Type
REMARK                         _______ _______ _______ _____ _____    ______ ____
ROOT
ATOM      1  C   UNL     1      47.344   6.751  13.257  0.00  0.00    +0.000 A 
ATOM      2  C   UNL     1      47.433   5.369  13.443  0.00  0.00    +0.000 A 
ATOM      3  C   UNL     1      46.386   4.548  13.038  0.00  0.00    +0.000 A 
ATOM      4  C   UNL     1      45.261   5.127  12.454  0.00  0.00    +0.000 A 
ATOM      5  N   UNL     1      45.137   6.467  12.279  0.00  0.00    +0.000 NA
ATOM      6  C   UNL     1      46.171   7.242  12.692  0.00  0.00    +0.000 A 
ENDROOT
BRANCH   1   7
ATOM      7  C   UNL     1      48.554   7.624  13.445  0.00  0.00    +0.000 C 
BRANCH   7   8
ATOM      8  N   UNL     1      49.737   6.941  13.983  0.00  0.00    +0.000 NA
ATOM      9  H   UNL     1      50.344   6.747  13.174  0.00  0.00    +0.000 HD
BRANCH   8  11
ATOM     10  C   UNL     1      49.474   8.605  15.778  0.00  0.00    +0.000 C 
ATOM     11  C   UNL     1      50.486   7.817  14.912  0.00  0.00    +0.000 C 
BRANCH  11  12
ATOM     12  C   UNL     1      51.431   7.004  15.813  0.00  0.00    +0.000 A 
ATOM     13  C   UNL     1      52.816   7.139  15.765  0.00  0.00    +0.000 A 
ATOM     14  S   UNL     1      53.650   6.256  16.959  0.00  0.00    +0.000 S 
ATOM     15  C   UNL     1      52.202   5.599  17.548  0.00  0.00    +0.000 A 
ATOM     16  N   UNL     1      52.201   4.795  18.646  0.00  0.00    +0.000 NA
ATOM     17  C   UNL     1      51.028   4.366  18.982  0.00  0.00    +0.000 A 
ATOM     18  N   UNL     1      49.872   4.621  18.288  0.00  0.00    +0.000 N 
ATOM     19  C   UNL     1      49.851   5.334  17.111  0.00  0.00    +0.000 A 
ATOM     20  O   UNL     1      48.855   5.359  16.392  0.00  0.00    +0.000 OA
ATOM     21  C   UNL     1      51.111   5.976  16.783  0.00  0.00    +0.000 A 
ATOM     22  H   UNL     1      49.007   4.182  18.559  0.00  0.00    +0.000 HD
ENDBRANCH  11  12
ENDBRANCH   8  11
ENDBRANCH   7   8
ENDBRANCH   1   7
BRANCH   4  23
ATOM     23  C   UNL     1      44.143   4.242  11.943  0.00  0.00    +0.000 C 
BRANCH  23  24
ATOM     24  O   UNL     1      44.551   2.866  11.941  0.00  0.00    +0.000 OA
ATOM     25  H   UNL     1      45.101   2.768  12.743  0.00  0.00    +0.000 HD
ENDBRANCH  23  24
BRANCH  23  26
ATOM     26  C   UNL     1      43.735   4.633  10.506  0.00  0.00    +0.000 C 
BRANCH  26  27
ATOM     27  N   UNL     1      44.848   4.594   9.532  0.00  0.00    +0.000 NA
ATOM     28  H   UNL     1      45.615   4.103   9.991  0.00  0.00    +0.000 HD
BRANCH  27  29
ATOM     29  C   UNL     1      44.527   3.855   8.322  0.00  0.00    +0.000 C 
ATOM     30  C   UNL     1      45.691   3.573   7.382  0.00  0.00    +0.000 C 
ATOM     31  C   UNL     1      46.444   2.467   8.089  0.00  0.00    +0.000 C 
ATOM     32  C   UNL     1      45.345   1.691   8.796  0.00  0.00    +0.000 C 
ATOM     33  N   UNL     1      44.142   2.532   8.773  0.00  0.00    +0.000 NA
ATOM     34  H   UNL     1      43.762   2.608   9.713  0.00  0.00    +0.000 HD
ENDBRANCH  27  29
ENDBRANCH  26  27
ENDBRANCH  23  26
ENDBRANCH   4  23
TORSDOF 9
ENDMDL
MODEL 7
REMARK VINA RESULT:    -6.764      1.956      2.803
REMARK INTER + INTRA:         -11.002
REMARK INTER:                 -10.185
REMARK INTRA:                  -0.817
REMARK UNBOUND:                -0.877
REMARK  Name = 
REMARK  10 active torsions:
REMARK  status: ('A' for Active; 'I' for Inactive)
REMARK    1  A    between atoms: C_1  and  C_2
REMARK    2  A    between atoms: C_2  and  N_3
REMARK    3  A    between atoms: C_2  and  C_20
REMARK    4  A    between atoms: N_3  and  C_4
REMARK    5  A    between atoms: C_4  and  C_5
REMARK    6  A    between atoms: C_8  and  C_9
REMARK    7  A    between atoms: C_9  and  O_10
REMARK    8  A    between atoms: C_9  and  C_11
REMARK    9  A    between atoms: C_11  and  N_12
REMARK   10  A    between atoms: N_12  and  C_13
REMARK                            x       y       z     vdW  Elec       q    Type
REMARK                         _______ _______ _______ _____ _____    ______ ____
ROOT
ATOM      1  C   UNL     1      46.563   5.122  13.654  0.00  0.00    +0.000 A 
ATOM      2  C   UNL     1      45.584   4.143  13.467  0.00  0.00    +0.000 A 
ATOM      3  C   UNL     1      44.949   4.026  12.235  0.00  0.00    +0.000 A 
ATOM      4  C   UNL     1      45.304   4.897  11.207  0.00  0.00    +0.000 A 
ATOM      5  N   UNL     1      46.236   5.871  11.364  0.00  0.00    +0.000 NA
ATOM      6  C   UNL     1      46.832   5.965  12.580  0.00  0.00    +0.000 A 
ENDROOT
BRANCH   1   7
ATOM      7  C   UNL     1      47.438   5.101  14.877  0.00  0.00    +0.000 C 
BRANCH   7   8
ATOM      8  N   UNL     1      47.514   3.807  15.566  0.00  0.00    +0.000 NA
ATOM      9  H   UNL     1      48.406   3.384  15.276  0.00  0.00    +0.000 HD
BRANCH   8  11
ATOM     10  C   UNL     1      47.128   2.655  17.707  0.00  0.00    +0.000 C 
ATOM     11  C   UNL     1      47.552   3.983  17.035  0.00  0.00    +0.000 C 
BRANCH  11  12
ATOM     12  C   UNL     1      48.952   4.395  17.517  0.00  0.00    +0.000 A 
ATOM     13  C   UNL     1      50.062   3.562  17.402  0.00  0.00    +0.000 A 
ATOM     14  S   UNL     1      51.535   4.286  17.856  0.00  0.00    +0.000 S 
ATOM     15  C   UNL     1      50.746   5.722  18.293  0.00  0.00    +0.000 A 
ATOM     16  N   UNL     1      51.457   6.806  18.705  0.00  0.00    +0.000 NA
ATOM     17  C   UNL     1      50.726   7.830  19.006  0.00  0.00    +0.000 A 
ATOM     18  N   UNL     1      49.354   7.847  18.987  0.00  0.00    +0.000 N 
ATOM     19  C   UNL     1      48.600   6.735  18.688  0.00  0.00    +0.000 A 
ATOM     20  O   UNL     1      47.390   6.705  18.895  0.00  0.00    +0.000 OA
ATOM     21  C   UNL     1      49.370   5.613  18.182  0.00  0.00    +0.000 A 
ATOM     22  H   UNL     1      48.849   8.653  19.318  0.00  0.00    +0.000 HD
ENDBRANCH  11  12
ENDBRANCH   8  11
ENDBRANCH   7   8
ENDBRANCH   1   7
BRANCH   4  23
ATOM     23  C   UNL     1      44.674   4.737   9.839  0.00  0.00    +0.000 C 
BRANCH  23  24
ATOM     24  O   UNL     1      43.311   5.187   9.857  0.00  0.00    +0.000 OA
ATOM     25  H   UNL     1      43.369   6.162   9.835  0.00  0.00    +0.000 HD
ENDBRANCH  23  24
BRANCH  23  26
ATOM     26  C   UNL     1      44.696   3.262   9.383  0.00  0.00    +0.000 C 
BRANCH  26  27
ATOM     27  N   UNL     1      45.149   3.070   7.988  0.00  0.00    +0.000 NA
ATOM     28  H   UNL     1      44.769   3.850   7.451  0.00  0.00    +0.000 HD
BRANCH  27  29
ATOM     29  C   UNL     1      46.594   3.112   7.842  0.00  0.00    +0.000 C 
ATOM     30  C   UNL     1      47.256   1.826   7.365  0.00  0.00    +0.000 C 
ATOM     31  C   UNL     1      46.915   1.790   5.891  0.00  0.00    +0.000 C 
ATOM     32  C   UNL     1      46.882   3.259   5.503  0.00  0.00    +0.000 C 
ATOM     33  N   UNL     1      46.842   4.033   6.750  0.00  0.00    +0.000 NA
ATOM     34  H   UNL     1      46.077   4.702   6.711  0.00  0.00    +0.000 HD
ENDBRANCH  27  29
ENDBRANCH  26  27
ENDBRANCH  23  26
ENDBRANCH   4  23
TORSDOF 9
ENDMDL
MODEL 8
REMARK VINA RESULT:    -6.705      3.711      9.700
REMARK INTER + INTRA:         -10.914
REMARK INTER:                  -9.447
REMARK INTRA:                  -1.467
REMARK UNBOUND:                -0.877
REMARK  Name = 
REMARK  10 active torsions:
REMARK  status: ('A' for Active; 'I' for Inactive)
REMARK    1  A    between atoms: C_1  and  C_2
REMARK    2  A    between atoms: C_2  and  N_3
REMARK    3  A    between atoms: C_2  and  C_20
REMARK    4  A    between atoms: N_3  and  C_4
REMARK    5  A    between atoms: C_4  and  C_5
REMARK    6  A    between atoms: C_8  and  C_9
REMARK    7  A    between atoms: C_9  and  O_10
REMARK    8  A    between atoms: C_9  and  C_11
REMARK    9  A    between atoms: C_11  and  N_12
REMARK   10  A    between atoms: N_12  and  C_13
REMARK                            x       y       z     vdW  Elec       q    Type
REMARK                         _______ _______ _______ _____ _____    ______ ____
ROOT
ATOM      1  C   UNL     1      47.515   4.545  15.700  0.00  0.00    +0.000 A 
ATOM      2  C   UNL     1      47.116   3.551  16.596  0.00  0.00    +0.000 A 
ATOM      3  C   UNL     1      47.516   3.617  17.926  0.00  0.00    +0.000 A 
ATOM      4  C   UNL     1      48.316   4.682  18.339  0.00  0.00    +0.000 A 
ATOM      5  N   UNL     1      48.736   5.651  17.487  0.00  0.00    +0.000 NA
ATOM      6  C   UNL     1      48.336   5.554  16.194  0.00  0.00    +0.000 A 
ENDROOT
BRANCH   1   7
ATOM      7  C   UNL     1      46.889   4.636  14.335  0.00  0.00    +0.000 C 
BRANCH   7   8
ATOM      8  N   UNL     1      46.939   5.965  13.714  0.00  0.00    +0.000 NA
ATOM      9  H   UNL     1      47.627   5.896  12.952  0.00  0.00    +0.000 HD
BRANCH   8  11
ATOM     10  C   UNL     1      45.599   7.857  12.886  0.00  0.00    +0.000 C 
ATOM     11  C   UNL     1      45.634   6.327  13.115  0.00  0.00    +0.000 C 
BRANCH  11  12
ATOM     12  C   UNL     1      45.400   5.588  11.788  0.00  0.00    +0.000 A 
ATOM     13  C   UNL     1      45.888   6.056  10.570  0.00  0.00    +0.000 A 
ATOM     14  S   UNL     1      45.643   4.997   9.260  0.00  0.00    +0.000 S 
ATOM     15  C   UNL     1      44.812   3.896  10.248  0.00  0.00    +0.000 A 
ATOM     16  N   UNL     1      44.385   2.704   9.750  0.00  0.00    +0.000 NA
ATOM     17  C   UNL     1      43.766   1.966  10.614  0.00  0.00    +0.000 A 
ATOM     18  N   UNL     1      43.488   2.337  11.906  0.00  0.00    +0.000 N 
ATOM     19  C   UNL     1      43.803   3.579  12.409  0.00  0.00    +0.000 A 
ATOM     20  O   UNL     1      43.351   3.972  13.481  0.00  0.00    +0.000 OA
ATOM     21  C   UNL     1      44.644   4.378  11.535  0.00  0.00    +0.000 A 
ATOM     22  H   UNL     1      42.926   1.746  12.497  0.00  0.00    +0.000 HD
ENDBRANCH  11  12
ENDBRANCH   8  11
ENDBRANCH   7   8
ENDBRANCH   1   7
BRANCH   4  23
ATOM     23  C   UNL     1      48.702   4.808  19.797  0.00  0.00    +0.000 C 
BRANCH  23  24
ATOM     24  O   UNL     1      48.461   3.575  20.490  0.00  0.00    +0.000 OA
ATOM     25  H   UNL     1      48.724   3.752  21.415  0.00  0.00    +0.000 HD
ENDBRANCH  23  24
BRANCH  23  26
ATOM     26  C   UNL     1      47.896   5.926  20.493  0.00  0.00    +0.000 C 
BRANCH  26  27
ATOM     27  N   UNL     1      48.329   7.294  20.133  0.00  0.00    +0.000 NA
ATOM     28  H   UNL     1      48.982   7.195  19.356  0.00  0.00    +0.000 HD
BRANCH  27  29
ATOM     29  C   UNL     1      47.239   8.139  19.674  0.00  0.00    +0.000 C 
ATOM     30  C   UNL     1      47.256   9.580  20.167  0.00  0.00    +0.000 C 
ATOM     31  C   UNL     1      48.353  10.214  19.340  0.00  0.00    +0.000 C 
ATOM     32  C   UNL     1      48.269   9.469  18.017  0.00  0.00    +0.000 C 
ATOM     33  N   UNL     1      47.441   8.279  18.245  0.00  0.00    +0.000 NA
ATOM     34  H   UNL     1      47.928   7.455  17.904  0.00  0.00    +0.000 HD
ENDBRANCH  27  29
ENDBRANCH  26  27
ENDBRANCH  23  26
ENDBRANCH   4  23
TORSDOF 9
ENDMDL
MODEL 9
REMARK VINA RESULT:    -6.641      3.312      9.146
REMARK INTER + INTRA:         -10.818
REMARK INTER:                  -9.677
REMARK INTRA:                  -1.141
REMARK UNBOUND:                -0.877
REMARK  Name = 
REMARK  10 active torsions:
REMARK  status: ('A' for Active; 'I' for Inactive)
REMARK    1  A    between atoms: C_1  and  C_2
REMARK    2  A    between atoms: C_2  and  N_3
REMARK    3  A    between atoms: C_2  and  C_20
REMARK    4  A    between atoms: N_3  and  C_4
REMARK    5  A    between atoms: C_4  and  C_5
REMARK    6  A    between atoms: C_8  and  C_9
REMARK    7  A    between atoms: C_9  and  O_10
REMARK    8  A    between atoms: C_9  and  C_11
REMARK    9  A    between atoms: C_11  and  N_12
REMARK   10  A    between atoms: N_12  and  C_13
REMARK                            x       y       z     vdW  Elec       q    Type
REMARK                         _______ _______ _______ _____ _____    ______ ____
ROOT
ATOM      1  C   UNL     1      47.842   6.248  14.344  0.00  0.00    +0.000 A 
ATOM      2  C   UNL     1      47.080   5.099  14.118  0.00  0.00    +0.000 A 
ATOM      3  C   UNL     1      47.106   4.059  15.041  0.00  0.00    +0.000 A 
ATOM      4  C   UNL     1      47.901   4.185  16.178  0.00  0.00    +0.000 A 
ATOM      5  N   UNL     1      48.668   5.280  16.415  0.00  0.00    +0.000 NA
ATOM      6  C   UNL     1      48.627   6.274  15.492  0.00  0.00    +0.000 A 
ENDROOT
BRANCH   1   7
ATOM      7  C   UNL     1      47.632   7.479  13.505  0.00  0.00    +0.000 C 
BRANCH   7   8
ATOM      8  N   UNL     1      47.227   7.224  12.117  0.00  0.00    +0.000 NA
ATOM      9  H   UNL     1      47.620   6.305  11.871  0.00  0.00    +0.000 HD
BRANCH   8  11
ATOM     10  C   UNL     1      45.225   8.458  11.391  0.00  0.00    +0.000 C 
ATOM     11  C   UNL     1      45.754   7.135  11.995  0.00  0.00    +0.000 C 
BRANCH  11  12
ATOM     12  C   UNL     1      45.333   5.947  11.116  0.00  0.00    +0.000 A 
ATOM     13  C   UNL     1      45.707   5.830   9.780  0.00  0.00    +0.000 A 
ATOM     14  S   UNL     1      45.259   4.357   9.050  0.00  0.00    +0.000 S 
ATOM     15  C   UNL     1      44.483   3.840  10.467  0.00  0.00    +0.000 A 
ATOM     16  N   UNL     1      43.937   2.596  10.543  0.00  0.00    +0.000 NA
ATOM     17  C   UNL     1      43.378   2.337  11.681  0.00  0.00    +0.000 A 
ATOM     18  N   UNL     1      43.267   3.227  12.720  0.00  0.00    +0.000 N 
ATOM     19  C   UNL     1      43.705   4.529  12.637  0.00  0.00    +0.000 A 
ATOM     20  O   UNL     1      43.398   5.366  13.481  0.00  0.00    +0.000 OA
ATOM     21  C   UNL     1      44.487   4.818  11.448  0.00  0.00    +0.000 A 
ATOM     22  H   UNL     1      42.742   2.985  13.545  0.00  0.00    +0.000 HD
ENDBRANCH  11  12
ENDBRANCH   8  11
ENDBRANCH   7   8
ENDBRANCH   1   7
BRANCH   4  23
ATOM     23  C   UNL     1      47.887   3.093  17.227  0.00  0.00    +0.000 C 
BRANCH  23  24
ATOM     24  O   UNL     1      47.520   3.630  18.507  0.00  0.00    +0.000 OA
ATOM     25  H   UNL     1      46.651   4.052  18.362  0.00  0.00    +0.000 HD
ENDBRANCH  23  24
BRANCH  23  26
ATOM     26  C   UNL     1      49.273   2.425  17.356  0.00  0.00    +0.000 C 
BRANCH  26  27
ATOM     27  N   UNL     1      50.203   3.139  18.258  0.00  0.00    +0.000 NA
ATOM     28  H   UNL     1      50.344   2.533  19.066  0.00  0.00    +0.000 HD
BRANCH  27  29
ATOM     29  C   UNL     1      51.510   3.375  17.666  0.00  0.00    +0.000 C 
ATOM     30  C   UNL     1      51.936   4.831  17.544  0.00  0.00    +0.000 C 
ATOM     31  C   UNL     1      52.299   5.203  18.966  0.00  0.00    +0.000 C 
ATOM     32  C   UNL     1      52.846   3.906  19.539  0.00  0.00    +0.000 C 
ATOM     33  N   UNL     1      52.463   2.832  18.615  0.00  0.00    +0.000 NA
ATOM     34  H   UNL     1      52.012   2.082  19.132  0.00  0.00    +0.000 HD
ENDBRANCH  27  29
ENDBRANCH  26  27
ENDBRANCH  23  26
ENDBRANCH   4  23
TORSDOF 9
ENDMDL
