MODEL 1
REMARK VINA RESULT:    -7.132      0.000      0.000
REMARK INTER + INTRA:         -11.125
REMARK INTER:                 -10.051
REMARK INTRA:                  -1.074
REMARK UNBOUND:                -1.074
REMARK  Name = 
REMARK  9 active torsions:
REMARK  status: ('A' for Active; 'I' for Inactive)
REMARK    1  A    between atoms: C_1  and  O_2
REMARK    2  A    between atoms: O_2  and  C_3
REMARK    3  A    between atoms: C_10  and  C_11
REMARK    4  A    between atoms: N_13  and  C_14
REMARK    5  A    between atoms: C_14  and  C_15
REMARK    6  A    between atoms: C_18  and  N_19
REMARK    7  A    between atoms: N_19  and  C_20
REMARK    8  A    between atoms: C_20  and  C_21
REMARK    9  A    between atoms: N_25  and  C_26
REMARK                            x       y       z     vdW  Elec       q    Type
REMARK                         _______ _______ _______ _____ _____    ______ ____
ROOT
ATOM      1  C   UNL     1      47.369   8.472  13.363  0.00  0.00    +0.000 C 
ENDROOT
BRANCH   1   2
ATOM      2  C   UNL     1      46.509   7.315  12.918  0.00  0.00    +0.000 A 
ATOM      3  C   UNL     1      46.770   6.015  13.366  0.00  0.00    +0.000 A 
ATOM      4  C   UNL     1      46.008   4.925  12.913  0.00  0.00    +0.000 A 
ATOM      5  C   UNL     1      44.960   5.097  12.004  0.00  0.00    +0.000 A 
ATOM      6  C   UNL     1      44.728   6.400  11.537  0.00  0.00    +0.000 A 
ATOM      7  C   UNL     1      45.476   7.495  11.993  0.00  0.00    +0.000 A 
BRANCH   5   8
ATOM      8  N   UNL     1      44.244   4.044  11.427  0.00  0.00    +0.000 N 
ATOM      9  H   UNL     1      43.515   3.699  12.045  0.00  0.00    +0.000 HD
BRANCH   8  10
ATOM     10  C   UNL     1      44.930   2.963  10.708  0.00  0.00    +0.000 C 
BRANCH  10  11
ATOM     11  C   UNL     1      44.305   2.790   9.301  0.00  0.00    +0.000 C 
ATOM     12  C   UNL     1      44.546   4.011   8.396  0.00  0.00    +0.000 C 
ATOM     13  C   UNL     1      46.013   4.119   7.991  0.00  0.00    +0.000 C 
ATOM     14  C   UNL     1      46.522   2.812   7.381  0.00  0.00    +0.000 C 
ATOM     15  N   UNL     1      46.274   1.659   8.263  0.00  0.00    +0.000 NA
ATOM     16  C   UNL     1      46.772   0.431   7.637  0.00  0.00    +0.000 C 
ATOM     17  C   UNL     1      44.845   1.535   8.587  0.00  0.00    +0.000 C 
ENDBRANCH  10  11
ENDBRANCH   8  10
ENDBRANCH   5   8
ENDBRANCH   1   2
BRANCH   1  20
ATOM     18  C   UNL     1      48.888   7.812  15.194  0.00  0.00    +0.000 C 
ATOM     19  O   UNL     1      49.722   7.386  14.397  0.00  0.00    +0.000 OA
ATOM     20  N   UNL     1      47.710   8.359  14.763  0.00  0.00    +0.000 N 
ATOM     21  H   UNL     1      47.064   8.758  15.429  0.00  0.00    +0.000 HD
BRANCH  18  29
ATOM     22  C   UNL     1      48.873   5.225  17.469  0.00  0.00    +0.000 A 
ATOM     23  N   UNL     1      48.987   4.409  18.538  0.00  0.00    +0.000 NA
ATOM     24  C   UNL     1      49.328   4.953  19.709  0.00  0.00    +0.000 A 
ATOM     25  N   UNL     1      49.558   6.239  19.957  0.00  0.00    +0.000 NA
ATOM     26  C   UNL     1      49.437   7.013  18.866  0.00  0.00    +0.000 A 
ATOM     27  S   UNL     1      49.684   8.687  19.000  0.00  0.00    +0.000 S 
ATOM     28  C   UNL     1      49.394   8.912  17.341  0.00  0.00    +0.000 A 
ATOM     29  C   UNL     1      49.112   7.738  16.651  0.00  0.00    +0.000 A 
ATOM     30  C   UNL     1      49.112   6.603  17.574  0.00  0.00    +0.000 A 
BRANCH  22  32
ATOM     31  C   UNL     1      47.482   3.661  16.392  0.00  0.00    +0.000 C 
ATOM     32  O   UNL     1      48.480   4.671  16.266  0.00  0.00    +0.000 OA
ENDBRANCH  22  32
ENDBRANCH  18  29
ENDBRANCH   1  20
TORSDOF 7
ENDMDL
MODEL 2
REMARK VINA RESULT:    -6.878      2.117      3.219
REMARK INTER + INTRA:         -10.767
REMARK INTER:                  -8.885
REMARK INTRA:                  -1.882
REMARK UNBOUND:                -1.074
REMARK  Name = 
REMARK  9 active torsions:
REMARK  status: ('A' for Active; 'I' for Inactive)
REMARK    1  A    between atoms: C_1  and  O_2
REMARK    2  A    between atoms: O_2  and  C_3
REMARK    3  A    between atoms: C_10  and  C_11
REMARK    4  A    between atoms: N_13  and  C_14
REMARK    5  A    between atoms: C_14  and  C_15
REMARK    6  A    between atoms: C_18  and  N_19
REMARK    7  A    between atoms: N_19  and  C_20
REMARK    8  A    between atoms: C_20  and  C_21
REMARK    9  A    between atoms: N_25  and  C_26
REMARK                            x       y       z     vdW  Elec       q    Type
REMARK                         _______ _______ _______ _____ _____    ______ ____
ROOT
ATOM      1  C   UNL     1      48.324   8.852  14.591  0.00  0.00    +0.000 C 
ENDROOT
BRANCH   1   2
ATOM      2  C   UNL     1      47.493   8.334  13.443  0.00  0.00    +0.000 A 
ATOM      3  C   UNL     1      46.181   8.782  13.251  0.00  0.00    +0.000 A 
ATOM      4  C   UNL     1      45.382   8.263  12.218  0.00  0.00    +0.000 A 
ATOM      5  C   UNL     1      45.868   7.287  11.341  0.00  0.00    +0.000 A 
ATOM      6  C   UNL     1      47.173   6.823  11.564  0.00  0.00    +0.000 A 
ATOM      7  C   UNL     1      47.981   7.344  12.586  0.00  0.00    +0.000 A 
BRANCH   5   8
ATOM      8  N   UNL     1      45.088   6.649  10.372  0.00  0.00    +0.000 N 
ATOM      9  H   UNL     1      44.100   6.664  10.611  0.00  0.00    +0.000 HD
BRANCH   8  10
ATOM     10  C   UNL     1      45.505   5.369   9.785  0.00  0.00    +0.000 C 
BRANCH  10  11
ATOM     11  C   UNL     1      44.308   4.386   9.767  0.00  0.00    +0.000 C 
ATOM     12  C   UNL     1      44.735   2.933  10.037  0.00  0.00    +0.000 C 
ATOM     13  C   UNL     1      45.173   2.746  11.486  0.00  0.00    +0.000 C 
ATOM     14  C   UNL     1      44.106   3.248  12.462  0.00  0.00    +0.000 C 
ATOM     15  N   UNL     1      43.710   4.637  12.178  0.00  0.00    +0.000 NA
ATOM     16  C   UNL     1      42.686   5.073  13.131  0.00  0.00    +0.000 C 
ATOM     17  C   UNL     1      43.229   4.782  10.796  0.00  0.00    +0.000 C 
ENDBRANCH  10  11
ENDBRANCH   8  10
ENDBRANCH   5   8
ENDBRANCH   1   2
BRANCH   1  20
ATOM     18  C   UNL     1      49.532   7.112  15.859  0.00  0.00    +0.000 C 
ATOM     19  O   UNL     1      50.524   7.227  15.142  0.00  0.00    +0.000 OA
ATOM     20  N   UNL     1      48.415   7.875  15.651  0.00  0.00    +0.000 N 
ATOM     21  H   UNL     1      47.632   7.808  16.287  0.00  0.00    +0.000 HD
BRANCH  18  29
ATOM     22  C   UNL     1      47.558   4.372  16.543  0.00  0.00    +0.000 A 
ATOM     23  N   UNL     1      46.987   3.245  17.014  0.00  0.00    +0.000 NA
ATOM     24  C   UNL     1      47.479   2.714  18.136  0.00  0.00    +0.000 A 
ATOM     25  N   UNL     1      48.480   3.186  18.873  0.00  0.00    +0.000 NA
ATOM     26  C   UNL     1      49.021   4.307  18.366  0.00  0.00    +0.000 A 
ATOM     27  S   UNL     1      50.305   5.056  19.184  0.00  0.00    +0.000 S 
ATOM     28  C   UNL     1      50.414   6.271  18.001  0.00  0.00    +0.000 A 
ATOM     29  C   UNL     1      49.496   6.136  16.965  0.00  0.00    +0.000 A 
ATOM     30  C   UNL     1      48.642   4.971  17.201  0.00  0.00    +0.000 A 
BRANCH  22  32
ATOM     31  C   UNL     1      47.010   4.081  14.272  0.00  0.00    +0.000 C 
ATOM     32  O   UNL     1      47.025   4.947  15.405  0.00  0.00    +0.000 OA
ENDBRANCH  22  32
ENDBRANCH  18  29
ENDBRANCH   1  20
TORSDOF 7
ENDMDL
MODEL 3
REMARK VINA RESULT:    -6.813      1.814      2.059
REMARK INTER + INTRA:         -10.674
REMARK INTER:                  -9.459
REMARK INTRA:                  -1.215
REMARK UNBOUND:                -1.074
REMARK  Name = 
REMARK  9 active torsions:
REMARK  status: ('A' for Active; 'I' for Inactive)
REMARK    1  A    between atoms: C_1  and  O_2
REMARK    2  A    between atoms: O_2  and  C_3
REMARK    3  A    between atoms: C_10  and  C_11
REMARK    4  A    between atoms: N_13  and  C_14
REMARK    5  A    between atoms: C_14  and  C_15
REMARK    6  A    between atoms: C_18  and  N_19
REMARK    7  A    between atoms: N_19  and  C_20
REMARK    8  A    between atoms: C_20  and  C_21
REMARK    9  A    between atoms: N_25  and  C_26
REMARK                            x       y       z     vdW  Elec       q    Type
REMARK                         _______ _______ _______ _____ _____    ______ ____
ROOT
ATOM      1  C   UNL     1      47.664   8.179  13.837  0.00  0.00    +0.000 C 
ENDROOT
BRANCH   1   2
ATOM      2  C   UNL     1      46.867   7.113  13.126  0.00  0.00    +0.000 A 
ATOM      3  C   UNL     1      46.126   7.419  11.979  0.00  0.00    +0.000 A 
ATOM      4  C   UNL     1      45.337   6.445  11.344  0.00  0.00    +0.000 A 
ATOM      5  C   UNL     1      45.269   5.135  11.827  0.00  0.00    +0.000 A 
ATOM      6  C   UNL     1      45.990   4.848  12.996  0.00  0.00    +0.000 A 
ATOM      7  C   UNL     1      46.789   5.811  13.630  0.00  0.00    +0.000 A 
BRANCH   5   8
ATOM      8  N   UNL     1      44.415   4.155  11.313  0.00  0.00    +0.000 N 
ATOM      9  H   UNL     1      43.635   3.968  11.937  0.00  0.00    +0.000 HD
BRANCH   8  10
ATOM     10  C   UNL     1      44.946   2.934  10.694  0.00  0.00    +0.000 C 
BRANCH  10  11
ATOM     11  C   UNL     1      44.328   2.749   9.285  0.00  0.00    +0.000 C 
ATOM     12  C   UNL     1      44.572   3.962   8.372  0.00  0.00    +0.000 C 
ATOM     13  C   UNL     1      46.041   4.069   7.974  0.00  0.00    +0.000 C 
ATOM     14  C   UNL     1      46.555   2.757   7.376  0.00  0.00    +0.000 C 
ATOM     15  N   UNL     1      46.304   1.611   8.266  0.00  0.00    +0.000 NA
ATOM     16  C   UNL     1      46.805   0.379   7.653  0.00  0.00    +0.000 C 
ATOM     17  C   UNL     1      44.873   1.488   8.584  0.00  0.00    +0.000 C 
ENDBRANCH  10  11
ENDBRANCH   8  10
ENDBRANCH   5   8
ENDBRANCH   1   2
BRANCH   1  20
ATOM     18  C   UNL     1      49.270   7.726  15.656  0.00  0.00    +0.000 C 
ATOM     19  O   UNL     1      48.535   8.256  16.487  0.00  0.00    +0.000 OA
ATOM     20  N   UNL     1      48.912   7.650  14.337  0.00  0.00    +0.000 N 
ATOM     21  H   UNL     1      49.502   7.158  13.681  0.00  0.00    +0.000 HD
BRANCH  18  29
ATOM     22  C   UNL     1      50.223   5.023  17.570  0.00  0.00    +0.000 A 
ATOM     23  N   UNL     1      50.859   4.017  18.205  0.00  0.00    +0.000 NA
ATOM     24  C   UNL     1      52.191   3.972  18.132  0.00  0.00    +0.000 A 
ATOM     25  N   UNL     1      52.988   4.832  17.507  0.00  0.00    +0.000 NA
ATOM     26  C   UNL     1      52.313   5.816  16.886  0.00  0.00    +0.000 A 
ATOM     27  S   UNL     1      53.173   7.014  16.046  0.00  0.00    +0.000 S 
ATOM     28  C   UNL     1      51.734   7.788  15.581  0.00  0.00    +0.000 A 
ATOM     29  C   UNL     1      50.579   7.162  16.040  0.00  0.00    +0.000 A 
ATOM     30  C   UNL     1      50.932   5.993  16.847  0.00  0.00    +0.000 A 
BRANCH  22  32
ATOM     31  C   UNL     1      48.149   4.231  16.785  0.00  0.00    +0.000 C 
ATOM     32  O   UNL     1      48.847   5.096  17.678  0.00  0.00    +0.000 OA
ENDBRANCH  22  32
ENDBRANCH  18  29
ENDBRANCH   1  20
TORSDOF 7
ENDMDL
MODEL 4
REMARK VINA RESULT:    -6.810      4.435      9.476
REMARK INTER + INTRA:         -10.671
REMARK INTER:                  -9.544
REMARK INTRA:                  -1.127
REMARK UNBOUND:                -1.074
REMARK  Name = 
REMARK  9 active torsions:
REMARK  status: ('A' for Active; 'I' for Inactive)
REMARK    1  A    between atoms: C_1  and  O_2
REMARK    2  A    between atoms: O_2  and  C_3
REMARK    3  A    between atoms: C_10  and  C_11
REMARK    4  A    between atoms: N_13  and  C_14
REMARK    5  A    between atoms: C_14  and  C_15
REMARK    6  A    between atoms: C_18  and  N_19
REMARK    7  A    between atoms: N_19  and  C_20
REMARK    8  A    between atoms: C_20  and  C_21
REMARK    9  A    between atoms: N_25  and  C_26
REMARK                            x       y       z     vdW  Elec       q    Type
REMARK                         _______ _______ _______ _____ _____    ______ ____
ROOT
ATOM      1  C   UNL     1      47.201   3.469  16.967  0.00  0.00    +0.000 C 
ENDROOT
BRANCH   1   2
ATOM      2  C   UNL     1      48.675   3.345  17.267  0.00  0.00    +0.000 A 
ATOM      3  C   UNL     1      49.399   4.437  17.759  0.00  0.00    +0.000 A 
ATOM      4  C   UNL     1      50.782   4.346  17.989  0.00  0.00    +0.000 A 
ATOM      5  C   UNL     1      51.485   3.163  17.742  0.00  0.00    +0.000 A 
ATOM      6  C   UNL     1      50.755   2.084  17.219  0.00  0.00    +0.000 A 
ATOM      7  C   UNL     1      49.372   2.164  16.997  0.00  0.00    +0.000 A 
BRANCH   5   8
ATOM      8  N   UNL     1      52.874   3.043  17.837  0.00  0.00    +0.000 N 
ATOM      9  H   UNL     1      53.253   2.443  17.109  0.00  0.00    +0.000 HD
BRANCH   8  10
ATOM     10  C   UNL     1      53.532   2.838  19.134  0.00  0.00    +0.000 C 
BRANCH  10  11
ATOM     11  C   UNL     1      55.068   2.772  18.938  0.00  0.00    +0.000 C 
ATOM     12  C   UNL     1      55.754   1.855  19.964  0.00  0.00    +0.000 C 
ATOM     13  C   UNL     1      55.419   0.389  19.706  0.00  0.00    +0.000 C 
ATOM     14  C   UNL     1      55.716  -0.006  18.258  0.00  0.00    +0.000 C 
ATOM     15  N   UNL     1      55.054   0.891  17.296  0.00  0.00    +0.000 NA
ATOM     16  C   UNL     1      55.371   0.480  15.926  0.00  0.00    +0.000 C 
ATOM     17  C   UNL     1      55.442   2.292  17.521  0.00  0.00    +0.000 C 
ENDBRANCH  10  11
ENDBRANCH   8  10
ENDBRANCH   5   8
ENDBRANCH   1   2
BRANCH   1  20
ATOM     18  C   UNL     1      47.075   4.197  14.611  0.00  0.00    +0.000 C 
ATOM     19  O   UNL     1      47.394   3.080  14.210  0.00  0.00    +0.000 OA
ATOM     20  N   UNL     1      46.960   4.465  15.949  0.00  0.00    +0.000 N 
ATOM     21  H   UNL     1      46.639   5.372  16.256  0.00  0.00    +0.000 HD
BRANCH  18  29
ATOM     22  C   UNL     1      44.326   5.160  12.772  0.00  0.00    +0.000 A 
ATOM     23  N   UNL     1      43.402   5.781  12.008  0.00  0.00    +0.000 NA
ATOM     24  C   UNL     1      43.757   6.909  11.390  0.00  0.00    +0.000 A 
ATOM     25  N   UNL     1      44.946   7.502  11.424  0.00  0.00    +0.000 NA
ATOM     26  C   UNL     1      45.833   6.852  12.197  0.00  0.00    +0.000 A 
ATOM     27  S   UNL     1      47.410   7.460  12.347  0.00  0.00    +0.000 S 
ATOM     28  C   UNL     1      47.847   6.202  13.403  0.00  0.00    +0.000 A 
ATOM     29  C   UNL     1      46.819   5.305  13.670  0.00  0.00    +0.000 A 
ATOM     30  C   UNL     1      45.618   5.682  12.923  0.00  0.00    +0.000 A 
BRANCH  22  32
ATOM     31  C   UNL     1      43.605   2.939  12.466  0.00  0.00    +0.000 C 
ATOM     32  O   UNL     1      43.975   3.970  13.379  0.00  0.00    +0.000 OA
ENDBRANCH  22  32
ENDBRANCH  18  29
ENDBRANCH   1  20
TORSDOF 7
ENDMDL
MODEL 5
REMARK VINA RESULT:    -6.620      3.515      9.198
REMARK INTER + INTRA:         -10.403
REMARK INTER:                  -8.986
REMARK INTRA:                  -1.417
REMARK UNBOUND:                -1.074
REMARK  Name = 
REMARK  9 active torsions:
REMARK  status: ('A' for Active; 'I' for Inactive)
REMARK    1  A    between atoms: C_1  and  O_2
REMARK    2  A    between atoms: O_2  and  C_3
REMARK    3  A    between atoms: C_10  and  C_11
REMARK    4  A    between atoms: N_13  and  C_14
REMARK    5  A    between atoms: C_14  and  C_15
REMARK    6  A    between atoms: C_18  and  N_19
REMARK    7  A    between atoms: N_19  and  C_20
REMARK    8  A    between atoms: C_20  and  C_21
REMARK    9  A    between atoms: N_25  and  C_26
REMARK                            x       y       z     vdW  Elec       q    Type
REMARK                         _______ _______ _______ _____ _____    ______ ____
ROOT
ATOM      1  C   UNL     1      47.156   3.368  17.037  0.00  0.00    +0.000 C 
ENDROOT
BRANCH   1   2
ATOM      2  C   UNL     1      48.572   3.464  17.550  0.00  0.00    +0.000 A 
ATOM      3  C   UNL     1      48.942   4.476  18.444  0.00  0.00    +0.000 A 
ATOM      4  C   UNL     1      50.270   4.606  18.882  0.00  0.00    +0.000 A 
ATOM      5  C   UNL     1      51.269   3.729  18.449  0.00  0.00    +0.000 A 
ATOM      6  C   UNL     1      50.894   2.740  17.528  0.00  0.00    +0.000 A 
ATOM      7  C   UNL     1      49.567   2.596  17.094  0.00  0.00    +0.000 A 
BRANCH   5   8
ATOM      8  N   UNL     1      52.626   3.876  18.754  0.00  0.00    +0.000 N 
ATOM      9  H   UNL     1      52.791   4.670  19.367  0.00  0.00    +0.000 HD
BRANCH   8  10
ATOM     10  C   UNL     1      53.657   3.742  17.717  0.00  0.00    +0.000 C 
BRANCH  10  11
ATOM     11  C   UNL     1      54.732   4.842  17.901  0.00  0.00    +0.000 C 
ATOM     12  C   UNL     1      55.218   5.420  16.561  0.00  0.00    +0.000 C 
ATOM     13  C   UNL     1      54.132   6.260  15.894  0.00  0.00    +0.000 C 
ATOM     14  C   UNL     1      53.589   7.328  16.845  0.00  0.00    +0.000 C 
ATOM     15  N   UNL     1      53.136   6.750  18.122  0.00  0.00    +0.000 NA
ATOM     16  C   UNL     1      52.631   7.807  19.001  0.00  0.00    +0.000 C 
ATOM     17  C   UNL     1      54.218   6.001  18.779  0.00  0.00    +0.000 C 
ENDBRANCH  10  11
ENDBRANCH   8  10
ENDBRANCH   5   8
ENDBRANCH   1   2
BRANCH   1  20
ATOM     18  C   UNL     1      47.027   4.156  14.702  0.00  0.00    +0.000 C 
ATOM     19  O   UNL     1      47.385   3.061  14.273  0.00  0.00    +0.000 OA
ATOM     20  N   UNL     1      46.891   4.384  16.045  0.00  0.00    +0.000 N 
ATOM     21  H   UNL     1      46.538   5.271  16.374  0.00  0.00    +0.000 HD
BRANCH  18  29
ATOM     22  C   UNL     1      44.312   5.008  12.758  0.00  0.00    +0.000 A 
ATOM     23  N   UNL     1      43.388   5.597  11.971  0.00  0.00    +0.000 NA
ATOM     24  C   UNL     1      43.695   6.769  11.412  0.00  0.00    +0.000 A 
ATOM     25  N   UNL     1      44.839   7.437  11.529  0.00  0.00    +0.000 NA
ATOM     26  C   UNL     1      45.728   6.817  12.323  0.00  0.00    +0.000 A 
ATOM     27  S   UNL     1      47.252   7.520  12.576  0.00  0.00    +0.000 S 
ATOM     28  C   UNL     1      47.720   6.254  13.607  0.00  0.00    +0.000 A 
ATOM     29  C   UNL     1      46.742   5.281  13.788  0.00  0.00    +0.000 A 
ATOM     30  C   UNL     1      45.558   5.608  12.994  0.00  0.00    +0.000 A 
BRANCH  22  32
ATOM     31  C   UNL     1      43.618   2.796  12.344  0.00  0.00    +0.000 C 
ATOM     32  O   UNL     1      44.013   3.774  13.304  0.00  0.00    +0.000 OA
ENDBRANCH  22  32
ENDBRANCH  18  29
ENDBRANCH   1  20
TORSDOF 7
ENDMDL
MODEL 6
REMARK VINA RESULT:    -6.490      2.629      3.185
REMARK INTER + INTRA:         -10.219
REMARK INTER:                  -9.056
REMARK INTRA:                  -1.163
REMARK UNBOUND:                -1.074
REMARK  Name = 
REMARK  9 active torsions:
REMARK  status: ('A' for Active; 'I' for Inactive)
REMARK    1  A    between atoms: C_1  and  O_2
REMARK    2  A    between atoms: O_2  and  C_3
REMARK    3  A    between atoms: C_10  and  C_11
REMARK    4  A    between atoms: N_13  and  C_14
REMARK    5  A    between atoms: C_14  and  C_15
REMARK    6  A    between atoms: C_18  and  N_19
REMARK    7  A    between atoms: N_19  and  C_20
REMARK    8  A    between atoms: C_20  and  C_21
REMARK    9  A    between atoms: N_25  and  C_26
REMARK                            x       y       z     vdW  Elec       q    Type
REMARK                         _______ _______ _______ _____ _____    ______ ____
ROOT
ATOM      1  C   UNL     1      48.290   7.534  14.413  0.00  0.00    +0.000 C 
ENDROOT
BRANCH   1   2
ATOM      2  C   UNL     1      47.277   6.673  13.699  0.00  0.00    +0.000 A 
ATOM      3  C   UNL     1      47.207   5.297  13.946  0.00  0.00    +0.000 A 
ATOM      4  C   UNL     1      46.305   4.480  13.244  0.00  0.00    +0.000 A 
ATOM      5  C   UNL     1      45.440   5.009  12.281  0.00  0.00    +0.000 A 
ATOM      6  C   UNL     1      45.541   6.383  12.020  0.00  0.00    +0.000 A 
ATOM      7  C   UNL     1      46.432   7.209  12.723  0.00  0.00    +0.000 A 
BRANCH   5   8
ATOM      8  N   UNL     1      44.606   4.235  11.469  0.00  0.00    +0.000 N 
ATOM      9  H   UNL     1      43.684   4.116  11.879  0.00  0.00    +0.000 HD
BRANCH   8  10
ATOM     10  C   UNL     1      45.097   3.010  10.824  0.00  0.00    +0.000 C 
BRANCH  10  11
ATOM     11  C   UNL     1      44.388   2.816   9.460  0.00  0.00    +0.000 C 
ATOM     12  C   UNL     1      44.551   4.033   8.534  0.00  0.00    +0.000 C 
ATOM     13  C   UNL     1      45.988   4.161   8.037  0.00  0.00    +0.000 C 
ATOM     14  C   UNL     1      46.479   2.858   7.405  0.00  0.00    +0.000 C 
ATOM     15  N   UNL     1      46.307   1.708   8.308  0.00  0.00    +0.000 NA
ATOM     16  C   UNL     1      46.784   0.484   7.661  0.00  0.00    +0.000 C 
ATOM     17  C   UNL     1      44.903   1.563   8.723  0.00  0.00    +0.000 C 
ENDBRANCH  10  11
ENDBRANCH   8  10
ENDBRANCH   5   8
ENDBRANCH   1   2
BRANCH   1  20
ATOM     18  C   UNL     1      49.464   6.723  16.428  0.00  0.00    +0.000 C 
ATOM     19  O   UNL     1      48.765   7.421  17.161  0.00  0.00    +0.000 OA
ATOM     20  N   UNL     1      49.290   6.725  15.070  0.00  0.00    +0.000 N 
ATOM     21  H   UNL     1      49.833   6.101  14.490  0.00  0.00    +0.000 HD
BRANCH  18  29
ATOM     22  C   UNL     1      52.887   6.655  16.045  0.00  0.00    +0.000 A 
ATOM     23  N   UNL     1      54.218   6.444  16.122  0.00  0.00    +0.000 NA
ATOM     24  C   UNL     1      54.654   5.476  16.930  0.00  0.00    +0.000 A 
ATOM     25  N   UNL     1      53.914   4.661  17.676  0.00  0.00    +0.000 NA
ATOM     26  C   UNL     1      52.597   4.908  17.572  0.00  0.00    +0.000 A 
ATOM     27  S   UNL     1      51.499   3.955  18.447  0.00  0.00    +0.000 S 
ATOM     28  C   UNL     1      50.177   4.835  17.842  0.00  0.00    +0.000 A 
ATOM     29  C   UNL     1      50.531   5.865  16.977  0.00  0.00    +0.000 A 
ATOM     30  C   UNL     1      51.983   5.889  16.796  0.00  0.00    +0.000 A 
BRANCH  22  32
ATOM     31  C   UNL     1      52.885   8.943  15.491  0.00  0.00    +0.000 C 
ATOM     32  O   UNL     1      52.430   7.628  15.178  0.00  0.00    +0.000 OA
ENDBRANCH  22  32
ENDBRANCH  18  29
ENDBRANCH   1  20
TORSDOF 7
ENDMDL
MODEL 7
REMARK VINA RESULT:    -6.478      4.291      9.525
REMARK INTER + INTRA:         -10.203
REMARK INTER:                  -8.696
REMARK INTRA:                  -1.507
REMARK UNBOUND:                -1.074
REMARK  Name = 
REMARK  9 active torsions:
REMARK  status: ('A' for Active; 'I' for Inactive)
REMARK    1  A    between atoms: C_1  and  O_2
REMARK    2  A    between atoms: O_2  and  C_3
REMARK    3  A    between atoms: C_10  and  C_11
REMARK    4  A    between atoms: N_13  and  C_14
REMARK    5  A    between atoms: C_14  and  C_15
REMARK    6  A    between atoms: C_18  and  N_19
REMARK    7  A    between atoms: N_19  and  C_20
REMARK    8  A    between atoms: C_20  and  C_21
REMARK    9  A    between atoms: N_25  and  C_26
REMARK                            x       y       z     vdW  Elec       q    Type
REMARK                         _______ _______ _______ _____ _____    ______ ____
ROOT
ATOM      1  C   UNL     1      47.216   3.676  16.904  0.00  0.00    +0.000 C 
ENDROOT
BRANCH   1   2
ATOM      2  C   UNL     1      48.662   3.342  17.182  0.00  0.00    +0.000 A 
ATOM      3  C   UNL     1      49.201   2.114  16.784  0.00  0.00    +0.000 A 
ATOM      4  C   UNL     1      50.530   1.773  17.088  0.00  0.00    +0.000 A 
ATOM      5  C   UNL     1      51.363   2.647  17.792  0.00  0.00    +0.000 A 
ATOM      6  C   UNL     1      50.802   3.862  18.215  0.00  0.00    +0.000 A 
ATOM      7  C   UNL     1      49.480   4.215  17.905  0.00  0.00    +0.000 A 
BRANCH   5   8
ATOM      8  N   UNL     1      52.651   2.321  18.227  0.00  0.00    +0.000 N 
ATOM      9  H   UNL     1      52.681   1.406  18.669  0.00  0.00    +0.000 HD
BRANCH   8  10
ATOM     10  C   UNL     1      53.493   3.307  18.918  0.00  0.00    +0.000 C 
BRANCH  10  11
ATOM     11  C   UNL     1      54.985   2.914  18.774  0.00  0.00    +0.000 C 
ATOM     12  C   UNL     1      55.775   3.119  20.077  0.00  0.00    +0.000 C 
ATOM     13  C   UNL     1      55.364   2.103  21.139  0.00  0.00    +0.000 C 
ATOM     14  C   UNL     1      55.450   0.671  20.606  0.00  0.00    +0.000 C 
ATOM     15  N   UNL     1      54.691   0.503  19.355  0.00  0.00    +0.000 NA
ATOM     16  C   UNL     1      54.806  -0.877  18.879  0.00  0.00    +0.000 C 
ATOM     17  C   UNL     1      55.148   1.448  18.325  0.00  0.00    +0.000 C 
ENDBRANCH  10  11
ENDBRANCH   8  10
ENDBRANCH   5   8
ENDBRANCH   1   2
BRANCH   1  20
ATOM     18  C   UNL     1      47.070   4.315  14.524  0.00  0.00    +0.000 C 
ATOM     19  O   UNL     1      47.136   3.141  14.167  0.00  0.00    +0.000 OA
ATOM     20  N   UNL     1      47.103   4.657  15.849  0.00  0.00    +0.000 N 
ATOM     21  H   UNL     1      46.987   5.622  16.126  0.00  0.00    +0.000 HD
BRANCH  18  29
ATOM     22  C   UNL     1      48.929   7.155  13.933  0.00  0.00    +0.000 A 
ATOM     23  N   UNL     1      49.503   8.279  13.454  0.00  0.00    +0.000 NA
ATOM     24  C   UNL     1      48.959   8.851  12.377  0.00  0.00    +0.000 A 
ATOM     25  N   UNL     1      47.882   8.444  11.712  0.00  0.00    +0.000 NA
ATOM     26  C   UNL     1      47.345   7.322  12.221  0.00  0.00    +0.000 A 
ATOM     27  S   UNL     1      45.954   6.665  11.505  0.00  0.00    +0.000 S 
ATOM     28  C   UNL     1      45.930   5.379  12.615  0.00  0.00    +0.000 A 
ATOM     29  C   UNL     1      46.968   5.411  13.541  0.00  0.00    +0.000 A 
ATOM     30  C   UNL     1      47.800   6.594  13.319  0.00  0.00    +0.000 A 
BRANCH  22  32
ATOM     31  C   UNL     1      50.681   7.188  15.505  0.00  0.00    +0.000 C 
ATOM     32  O   UNL     1      49.464   6.584  15.071  0.00  0.00    +0.000 OA
ENDBRANCH  22  32
ENDBRANCH  18  29
ENDBRANCH   1  20
TORSDOF 7
ENDMDL
MODEL 8
REMARK VINA RESULT:    -6.395      3.235      8.472
REMARK INTER + INTRA:         -10.086
REMARK INTER:                  -8.644
REMARK INTRA:                  -1.442
REMARK UNBOUND:                -1.074
REMARK  Name = 
REMARK  9 active torsions:
REMARK  status: ('A' for Active; 'I' for Inactive)
REMARK    1  A    between atoms: C_1  and  O_2
REMARK    2  A    between atoms: O_2  and  C_3
REMARK    3  A    between atoms: C_10  and  C_11
REMARK    4  A    between atoms: N_13  and  C_14
REMARK    5  A    between atoms: C_14  and  C_15
REMARK    6  A    between atoms: C_18  and  N_19
REMARK    7  A    between atoms: N_19  and  C_20
REMARK    8  A    between atoms: C_20  and  C_21
REMARK    9  A    between atoms: N_25  and  C_26
REMARK                            x       y       z     vdW  Elec       q    Type
REMARK                         _______ _______ _______ _____ _____    ______ ____
ROOT
ATOM      1  C   UNL     1      48.221   8.160  12.027  0.00  0.00    +0.000 C 
ENDROOT
BRANCH   1   2
ATOM      2  C   UNL     1      48.375   7.989  13.518  0.00  0.00    +0.000 A 
ATOM      3  C   UNL     1      48.151   9.062  14.388  0.00  0.00    +0.000 A 
ATOM      4  C   UNL     1      48.346   8.925  15.773  0.00  0.00    +0.000 A 
ATOM      5  C   UNL     1      48.765   7.715  16.334  0.00  0.00    +0.000 A 
ATOM      6  C   UNL     1      49.018   6.656  15.449  0.00  0.00    +0.000 A 
ATOM      7  C   UNL     1      48.814   6.780  14.066  0.00  0.00    +0.000 A 
BRANCH   5   8
ATOM      8  N   UNL     1      49.090   7.548  17.683  0.00  0.00    +0.000 N 
ATOM      9  H   UNL     1      50.081   7.365  17.813  0.00  0.00    +0.000 HD
BRANCH   8  10
ATOM     10  C   UNL     1      48.247   6.740  18.574  0.00  0.00    +0.000 C 
BRANCH  10  11
ATOM     11  C   UNL     1      49.139   5.924  19.542  0.00  0.00    +0.000 C 
ATOM     12  C   UNL     1      48.646   4.478  19.720  0.00  0.00    +0.000 C 
ATOM     13  C   UNL     1      48.865   3.660  18.451  0.00  0.00    +0.000 C 
ATOM     14  C   UNL     1      50.316   3.743  17.975  0.00  0.00    +0.000 C 
ATOM     15  N   UNL     1      50.765   5.136  17.819  0.00  0.00    +0.000 NA
ATOM     16  C   UNL     1      52.159   5.168  17.368  0.00  0.00    +0.000 C 
ATOM     17  C   UNL     1      50.608   5.890  19.072  0.00  0.00    +0.000 C 
ENDBRANCH  10  11
ENDBRANCH   8  10
ENDBRANCH   5   8
ENDBRANCH   1   2
BRANCH   1  20
ATOM     18  C   UNL     1      46.190   6.930  11.350  0.00  0.00    +0.000 C 
ATOM     19  O   UNL     1      45.462   7.825  11.774  0.00  0.00    +0.000 OA
ATOM     20  N   UNL     1      47.553   7.022  11.438  0.00  0.00    +0.000 N 
ATOM     21  H   UNL     1      48.136   6.304  11.031  0.00  0.00    +0.000 HD
BRANCH  18  29
ATOM     22  C   UNL     1      44.432   4.246  12.607  0.00  0.00    +0.000 A 
ATOM     23  N   UNL     1      43.696   3.135  12.817  0.00  0.00    +0.000 NA
ATOM     24  C   UNL     1      43.399   2.371  11.764  0.00  0.00    +0.000 A 
ATOM     25  N   UNL     1      43.764   2.570  10.502  0.00  0.00    +0.000 NA
ATOM     26  C   UNL     1      44.492   3.688  10.337  0.00  0.00    +0.000 A 
ATOM     27  S   UNL     1      45.057   4.094   8.789  0.00  0.00    +0.000 S 
ATOM     28  C   UNL     1      45.795   5.508   9.376  0.00  0.00    +0.000 A 
ATOM     29  C   UNL     1      45.628   5.708  10.743  0.00  0.00    +0.000 A 
ATOM     30  C   UNL     1      44.868   4.599  11.322  0.00  0.00    +0.000 A 
BRANCH  22  32
ATOM     31  C   UNL     1      46.049   4.694  14.259  0.00  0.00    +0.000 C 
ATOM     32  O   UNL     1      44.777   5.017  13.700  0.00  0.00    +0.000 OA
ENDBRANCH  22  32
ENDBRANCH  18  29
ENDBRANCH   1  20
TORSDOF 7
ENDMDL
MODEL 9
REMARK VINA RESULT:    -6.342      3.475      5.140
REMARK INTER + INTRA:         -10.011
REMARK INTER:                  -8.773
REMARK INTRA:                  -1.238
REMARK UNBOUND:                -1.074
REMARK  Name = 
REMARK  9 active torsions:
REMARK  status: ('A' for Active; 'I' for Inactive)
REMARK    1  A    between atoms: C_1  and  O_2
REMARK    2  A    between atoms: O_2  and  C_3
REMARK    3  A    between atoms: C_10  and  C_11
REMARK    4  A    between atoms: N_13  and  C_14
REMARK    5  A    between atoms: C_14  and  C_15
REMARK    6  A    between atoms: C_18  and  N_19
REMARK    7  A    between atoms: N_19  and  C_20
REMARK    8  A    between atoms: C_20  and  C_21
REMARK    9  A    between atoms: N_25  and  C_26
REMARK                            x       y       z     vdW  Elec       q    Type
REMARK                         _______ _______ _______ _____ _____    ______ ____
ROOT
ATOM      1  C   UNL     1      48.529   7.177  14.519  0.00  0.00    +0.000 C 
ENDROOT
BRANCH   1   2
ATOM      2  C   UNL     1      47.608   6.399  13.611  0.00  0.00    +0.000 A 
ATOM      3  C   UNL     1      47.229   6.912  12.366  0.00  0.00    +0.000 A 
ATOM      4  C   UNL     1      46.328   6.220  11.539  0.00  0.00    +0.000 A 
ATOM      5  C   UNL     1      45.782   4.992  11.925  0.00  0.00    +0.000 A 
ATOM      6  C   UNL     1      46.144   4.502  13.190  0.00  0.00    +0.000 A 
ATOM      7  C   UNL     1      47.052   5.182  14.016  0.00  0.00    +0.000 A 
BRANCH   5   8
ATOM      8  N   UNL     1      44.795   4.313  11.205  0.00  0.00    +0.000 N 
ATOM      9  H   UNL     1      43.874   4.435  11.618  0.00  0.00    +0.000 HD
BRANCH   8  10
ATOM     10  C   UNL     1      45.016   2.946  10.716  0.00  0.00    +0.000 C 
BRANCH  10  11
ATOM     11  C   UNL     1      44.386   2.786   9.309  0.00  0.00    +0.000 C 
ATOM     12  C   UNL     1      44.663   3.994   8.399  0.00  0.00    +0.000 C 
ATOM     13  C   UNL     1      46.133   4.056   7.994  0.00  0.00    +0.000 C 
ATOM     14  C   UNL     1      46.603   2.731   7.390  0.00  0.00    +0.000 C 
ATOM     15  N   UNL     1      46.321   1.591   8.278  0.00  0.00    +0.000 NA
ATOM     16  C   UNL     1      46.781   0.345   7.658  0.00  0.00    +0.000 C 
ATOM     17  C   UNL     1      44.888   1.511   8.602  0.00  0.00    +0.000 C 
ENDBRANCH  10  11
ENDBRANCH   8  10
ENDBRANCH   5   8
ENDBRANCH   1   2
BRANCH   1  20
ATOM     18  C   UNL     1      50.799   8.147  14.476  0.00  0.00    +0.000 C 
ATOM     19  O   UNL     1      50.640   8.659  15.582  0.00  0.00    +0.000 OA
ATOM     20  N   UNL     1      49.809   7.405  13.889  0.00  0.00    +0.000 N 
ATOM     21  H   UNL     1      49.980   6.942  13.008  0.00  0.00    +0.000 HD
BRANCH  18  29
ATOM     22  C   UNL     1      51.526   9.204  11.278  0.00  0.00    +0.000 A 
ATOM     23  N   UNL     1      52.084   9.629  10.126  0.00  0.00    +0.000 NA
ATOM     24  C   UNL     1      53.416   9.641  10.042  0.00  0.00    +0.000 A 
ATOM     25  N   UNL     1      54.281   9.259  10.976  0.00  0.00    +0.000 NA
ATOM     26  C   UNL     1      53.683   8.847  12.107  0.00  0.00    +0.000 A 
ATOM     27  S   UNL     1      54.634   8.311  13.406  0.00  0.00    +0.000 S 
ATOM     28  C   UNL     1      53.257   8.017  14.357  0.00  0.00    +0.000 A 
ATOM     29  C   UNL     1      52.056   8.321  13.724  0.00  0.00    +0.000 A 
ATOM     30  C   UNL     1      52.314   8.794  12.363  0.00  0.00    +0.000 A 
BRANCH  22  32
ATOM     31  C   UNL     1      49.508  10.413  11.177  0.00  0.00    +0.000 C 
ATOM     32  O   UNL     1      50.147   9.150  11.354  0.00  0.00    +0.000 OA
ENDBRANCH  22  32
ENDBRANCH  18  29
ENDBRANCH   1  20
TORSDOF 7
ENDMDL
