MODEL 1
REMARK VINA RESULT:    -8.221      0.000      0.000
REMARK INTER + INTRA:         -11.363
REMARK INTER:                 -10.864
REMARK INTRA:                  -0.499
REMARK UNBOUND:                -0.499
REMARK  Name = 
REMARK  6 active torsions:
REMARK  status: ('A' for Active; 'I' for Inactive)
REMARK    1  A    between atoms: N_1  and  C_2
REMARK    2  A    between atoms: C_2  and  C_3
REMARK    3  A    between atoms: C_6  and  C_7
REMARK    4  A    between atoms: C_7  and  N_8
REMARK    5  A    between atoms: N_8  and  C_9
REMARK    6  A    between atoms: C_12  and  C_13
REMARK                            x       y       z     vdW  Elec       q    Type
REMARK                         _______ _______ _______ _____ _____    ______ ____
ROOT
ATOM      1  N   UNL     1      43.712   4.812   9.818  0.00  0.00    +0.000 N 
ATOM      2  H   UNL     1      43.855   5.778   9.534  0.00  0.00    +0.000 HD
ENDROOT
BRANCH   1   3
ATOM      3  C   UNL     1      44.641   4.016   9.162  0.00  0.00    +0.000 A 
ATOM      4  N   UNL     1      45.450   4.676   8.303  0.00  0.00    +0.000 NA
ATOM      5  C   UNL     1      46.344   3.949   7.576  0.00  0.00    +0.000 A 
ATOM      6  C   UNL     1      46.492   2.572   7.666  0.00  0.00    +0.000 A 
ATOM      7  C   UNL     1      45.660   1.903   8.560  0.00  0.00    +0.000 A 
ATOM      8  C   UNL     1      44.729   2.623   9.296  0.00  0.00    +0.000 A 
ATOM      9  F   UNL     1      43.935   1.942  10.136  0.00  0.00    +0.000 F 
BRANCH   6  10
ATOM     10  C   UNL     1      47.468   1.782   6.878  0.00  0.00    +0.000 C 
ATOM     11  N   UNL     1      48.607   2.385   6.427  0.00  0.00    +0.000 N 
ATOM     12  O   UNL     1      47.261   0.599   6.627  0.00  0.00    +0.000 OA
ATOM     13  H   UNL     1      48.865   3.349   6.555  0.00  0.00    +0.000 HD
ATOM     14  H   UNL     1      49.235   1.803   5.883  0.00  0.00    +0.000 HD
ENDBRANCH   6  10
ENDBRANCH   1   3
BRANCH   1  15
ATOM     15  C   UNL     1      43.502   4.608  11.238  0.00  0.00    +0.000 C 
BRANCH  15  19
ATOM     16  C   UNL     1      46.976   6.129  13.334  0.00  0.00    +0.000 A 
ATOM     17  C   UNL     1      46.606   4.782  13.451  0.00  0.00    +0.000 A 
ATOM     18  C   UNL     1      45.462   4.297  12.813  0.00  0.00    +0.000 A 
ATOM     19  C   UNL     1      44.656   5.155  12.048  0.00  0.00    +0.000 A 
ATOM     20  C   UNL     1      45.004   6.508  11.962  0.00  0.00    +0.000 A 
ATOM     21  C   UNL     1      46.152   6.991  12.597  0.00  0.00    +0.000 A 
BRANCH  16  22
ATOM     22  C   UNL     1      48.241   6.633  13.979  0.00  0.00    +0.000 C 
BRANCH  22  23
ATOM     23  N   UNL     1      49.354   6.639  13.036  0.00  0.00    +0.000 NA
ATOM     24  H   UNL     1      50.099   6.043  13.388  0.00  0.00    +0.000 HD
ATOM     25  H   UNL     1      49.735   7.583  12.985  0.00  0.00    +0.000 HD
ENDBRANCH  22  23
ENDBRANCH  16  22
ENDBRANCH  15  19
ENDBRANCH   1  15
TORSDOF 6
ENDMDL
MODEL 2
REMARK VINA RESULT:    -7.973      3.091      6.505
REMARK INTER + INTRA:         -11.035
REMARK INTER:                 -10.488
REMARK INTRA:                  -0.547
REMARK UNBOUND:                -0.499
REMARK  Name = 
REMARK  6 active torsions:
REMARK  status: ('A' for Active; 'I' for Inactive)
REMARK    1  A    between atoms: N_1  and  C_2
REMARK    2  A    between atoms: C_2  and  C_3
REMARK    3  A    between atoms: C_6  and  C_7
REMARK    4  A    between atoms: C_7  and  N_8
REMARK    5  A    between atoms: N_8  and  C_9
REMARK    6  A    between atoms: C_12  and  C_13
REMARK                            x       y       z     vdW  Elec       q    Type
REMARK                         _______ _______ _______ _____ _____    ______ ____
ROOT
ATOM      1  N   UNL     1      44.800   5.764  10.441  0.00  0.00    +0.000 N 
ATOM      2  H   UNL     1      44.324   6.656  10.543  0.00  0.00    +0.000 HD
ENDROOT
BRANCH   1   3
ATOM      3  C   UNL     1      45.522   5.511  11.600  0.00  0.00    +0.000 A 
ATOM      4  N   UNL     1      44.920   4.673  12.473  0.00  0.00    +0.000 NA
ATOM      5  C   UNL     1      45.540   4.431  13.662  0.00  0.00    +0.000 A 
ATOM      6  C   UNL     1      46.761   4.976  14.035  0.00  0.00    +0.000 A 
ATOM      7  C   UNL     1      47.376   5.831  13.124  0.00  0.00    +0.000 A 
ATOM      8  C   UNL     1      46.751   6.107  11.915  0.00  0.00    +0.000 A 
ATOM      9  F   UNL     1      47.368   6.947  11.071  0.00  0.00    +0.000 F 
BRANCH   6  10
ATOM     10  C   UNL     1      47.437   4.708  15.325  0.00  0.00    +0.000 C 
ATOM     11  N   UNL     1      46.989   3.689  16.116  0.00  0.00    +0.000 N 
ATOM     12  O   UNL     1      48.390   5.390  15.689  0.00  0.00    +0.000 OA
ATOM     13  H   UNL     1      46.208   3.084  15.927  0.00  0.00    +0.000 HD
ATOM     14  H   UNL     1      47.480   3.556  16.994  0.00  0.00    +0.000 HD
ENDBRANCH   6  10
ENDBRANCH   1   3
BRANCH   1  15
ATOM     15  C   UNL     1      44.000   4.695   9.876  0.00  0.00    +0.000 C 
BRANCH  15  19
ATOM     16  C   UNL     1      46.608   2.077   7.614  0.00  0.00    +0.000 A 
ATOM     17  C   UNL     1      46.592   3.456   7.365  0.00  0.00    +0.000 A 
ATOM     18  C   UNL     1      45.721   4.298   8.060  0.00  0.00    +0.000 A 
ATOM     19  C   UNL     1      44.839   3.775   9.018  0.00  0.00    +0.000 A 
ATOM     20  C   UNL     1      44.827   2.393   9.239  0.00  0.00    +0.000 A 
ATOM     21  C   UNL     1      45.703   1.551   8.546  0.00  0.00    +0.000 A 
BRANCH  16  22
ATOM     22  C   UNL     1      47.588   1.183   6.900  0.00  0.00    +0.000 C 
BRANCH  22  23
ATOM     23  N   UNL     1      48.379   1.929   5.927  0.00  0.00    +0.000 NA
ATOM     24  H   UNL     1      48.003   1.773   4.995  0.00  0.00    +0.000 HD
ATOM     25  H   UNL     1      49.329   1.559   5.925  0.00  0.00    +0.000 HD
ENDBRANCH  22  23
ENDBRANCH  16  22
ENDBRANCH  15  19
ENDBRANCH   1  15
TORSDOF 6
ENDMDL
MODEL 3
REMARK VINA RESULT:    -7.918      3.016      6.500
REMARK INTER + INTRA:         -10.962
REMARK INTER:                 -10.561
REMARK INTRA:                  -0.401
REMARK UNBOUND:                -0.499
REMARK  Name = 
REMARK  6 active torsions:
REMARK  status: ('A' for Active; 'I' for Inactive)
REMARK    1  A    between atoms: N_1  and  C_2
REMARK    2  A    between atoms: C_2  and  C_3
REMARK    3  A    between atoms: C_6  and  C_7
REMARK    4  A    between atoms: C_7  and  N_8
REMARK    5  A    between atoms: N_8  and  C_9
REMARK    6  A    between atoms: C_12  and  C_13
REMARK                            x       y       z     vdW  Elec       q    Type
REMARK                         _______ _______ _______ _____ _____    ______ ____
ROOT
ATOM      1  N   UNL     1      44.761   3.106  11.597  0.00  0.00    +0.000 N 
ATOM      2  H   UNL     1      45.597   2.540  11.719  0.00  0.00    +0.000 HD
ENDROOT
BRANCH   1   3
ATOM      3  C   UNL     1      45.037   4.399  12.020  0.00  0.00    +0.000 A 
ATOM      4  N   UNL     1      44.226   5.351  11.504  0.00  0.00    +0.000 NA
ATOM      5  C   UNL     1      44.478   6.651  11.824  0.00  0.00    +0.000 A 
ATOM      6  C   UNL     1      45.505   7.068  12.659  0.00  0.00    +0.000 A 
ATOM      7  C   UNL     1      46.329   6.080  13.191  0.00  0.00    +0.000 A 
ATOM      8  C   UNL     1      46.101   4.750  12.862  0.00  0.00    +0.000 A 
ATOM      9  F   UNL     1      46.925   3.828  13.383  0.00  0.00    +0.000 F 
BRANCH   6  10
ATOM     10  C   UNL     1      45.775   8.482  13.010  0.00  0.00    +0.000 C 
ATOM     11  N   UNL     1      46.674   8.766  13.999  0.00  0.00    +0.000 N 
ATOM     12  O   UNL     1      45.201   9.395  12.425  0.00  0.00    +0.000 OA
ATOM     13  H   UNL     1      47.182   8.099  14.554  0.00  0.00    +0.000 HD
ATOM     14  H   UNL     1      46.812   9.749  14.207  0.00  0.00    +0.000 HD
ENDBRANCH   6  10
ENDBRANCH   1   3
BRANCH   1  15
ATOM     15  C   UNL     1      44.066   2.922  10.338  0.00  0.00    +0.000 C 
BRANCH  15  19
ATOM     16  C   UNL     1      46.613   2.805   6.836  0.00  0.00    +0.000 A 
ATOM     17  C   UNL     1      46.441   1.663   7.629  0.00  0.00    +0.000 A 
ATOM     18  C   UNL     1      45.656   1.708   8.784  0.00  0.00    +0.000 A 
ATOM     19  C   UNL     1      45.032   2.902   9.175  0.00  0.00    +0.000 A 
ATOM     20  C   UNL     1      45.235   4.052   8.403  0.00  0.00    +0.000 A 
ATOM     21  C   UNL     1      46.017   4.006   7.245  0.00  0.00    +0.000 A 
BRANCH  16  22
ATOM     22  C   UNL     1      47.416   2.737   5.562  0.00  0.00    +0.000 C 
BRANCH  22  23
ATOM     23  N   UNL     1      48.546   1.823   5.694  0.00  0.00    +0.000 NA
ATOM     24  H   UNL     1      48.450   1.289   6.554  0.00  0.00    +0.000 HD
ATOM     25  H   UNL     1      49.401   2.371   5.784  0.00  0.00    +0.000 HD
ENDBRANCH  22  23
ENDBRANCH  16  22
ENDBRANCH  15  19
ENDBRANCH   1  15
TORSDOF 6
ENDMDL
MODEL 4
REMARK VINA RESULT:    -7.769      2.895      6.352
REMARK INTER + INTRA:         -10.765
REMARK INTER:                 -10.442
REMARK INTRA:                  -0.323
REMARK UNBOUND:                -0.499
REMARK  Name = 
REMARK  6 active torsions:
REMARK  status: ('A' for Active; 'I' for Inactive)
REMARK    1  A    between atoms: N_1  and  C_2
REMARK    2  A    between atoms: C_2  and  C_3
REMARK    3  A    between atoms: C_6  and  C_7
REMARK    4  A    between atoms: C_7  and  N_8
REMARK    5  A    between atoms: N_8  and  C_9
REMARK    6  A    between atoms: C_12  and  C_13
REMARK                            x       y       z     vdW  Elec       q    Type
REMARK                         _______ _______ _______ _____ _____    ______ ____
ROOT
ATOM      1  N   UNL     1      44.394   2.889  11.875  0.00  0.00    +0.000 N 
ATOM      2  H   UNL     1      44.790   1.953  11.918  0.00  0.00    +0.000 HD
ENDROOT
BRANCH   1   3
ATOM      3  C   UNL     1      45.274   3.770  12.488  0.00  0.00    +0.000 A 
ATOM      4  N   UNL     1      46.237   3.184  13.235  0.00  0.00    +0.000 NA
ATOM      5  C   UNL     1      47.097   3.989  13.920  0.00  0.00    +0.000 A 
ATOM      6  C   UNL     1      47.063   5.376  13.892  0.00  0.00    +0.000 A 
ATOM      7  C   UNL     1      46.074   5.969  13.113  0.00  0.00    +0.000 A 
ATOM      8  C   UNL     1      45.174   5.166  12.424  0.00  0.00    +0.000 A 
ATOM      9  F   UNL     1      44.225   5.775  11.696  0.00  0.00    +0.000 F 
BRANCH   6  10
ATOM     10  C   UNL     1      48.002   6.250  14.633  0.00  0.00    +0.000 C 
ATOM     11  N   UNL     1      47.885   7.606  14.519  0.00  0.00    +0.000 N 
ATOM     12  O   UNL     1      48.881   5.770  15.342  0.00  0.00    +0.000 OA
ATOM     13  H   UNL     1      47.219   8.103  13.953  0.00  0.00    +0.000 HD
ATOM     14  H   UNL     1      48.560   8.157  15.038  0.00  0.00    +0.000 HD
ENDBRANCH   6  10
ENDBRANCH   1   3
BRANCH   1  15
ATOM     15  C   UNL     1      43.818   3.261  10.597  0.00  0.00    +0.000 C 
BRANCH  15  19
ATOM     16  C   UNL     1      46.474   2.802   7.206  0.00  0.00    +0.000 A 
ATOM     17  C   UNL     1      46.082   1.688   7.959  0.00  0.00    +0.000 A 
ATOM     18  C   UNL     1      45.262   1.836   9.081  0.00  0.00    +0.000 A 
ATOM     19  C   UNL     1      44.821   3.108   9.477  0.00  0.00    +0.000 A 
ATOM     20  C   UNL     1      45.244   4.225   8.747  0.00  0.00    +0.000 A 
ATOM     21  C   UNL     1      46.061   4.076   7.622  0.00  0.00    +0.000 A 
BRANCH  16  22
ATOM     22  C   UNL     1      47.314   2.630   5.967  0.00  0.00    +0.000 C 
BRANCH  22  23
ATOM     23  N   UNL     1      48.508   1.837   6.239  0.00  0.00    +0.000 NA
ATOM     24  H   UNL     1      49.032   1.708   5.377  0.00  0.00    +0.000 HD
ATOM     25  H   UNL     1      48.221   0.908   6.547  0.00  0.00    +0.000 HD
ENDBRANCH  22  23
ENDBRANCH  16  22
ENDBRANCH  15  19
ENDBRANCH   1  15
TORSDOF 6
ENDMDL
MODEL 5
REMARK VINA RESULT:    -7.724      1.501      2.036
REMARK INTER + INTRA:         -10.706
REMARK INTER:                  -9.997
REMARK INTRA:                  -0.709
REMARK UNBOUND:                -0.499
REMARK  Name = 
REMARK  6 active torsions:
REMARK  status: ('A' for Active; 'I' for Inactive)
REMARK    1  A    between atoms: N_1  and  C_2
REMARK    2  A    between atoms: C_2  and  C_3
REMARK    3  A    between atoms: C_6  and  C_7
REMARK    4  A    between atoms: C_7  and  N_8
REMARK    5  A    between atoms: N_8  and  C_9
REMARK    6  A    between atoms: C_12  and  C_13
REMARK                            x       y       z     vdW  Elec       q    Type
REMARK                         _______ _______ _______ _____ _____    ______ ____
ROOT
ATOM      1  N   UNL     1      43.684   4.731   9.959  0.00  0.00    +0.000 N 
ATOM      2  H   UNL     1      43.819   5.660   9.568  0.00  0.00    +0.000 HD
ENDROOT
BRANCH   1   3
ATOM      3  C   UNL     1      44.505   3.841   9.279  0.00  0.00    +0.000 A 
ATOM      4  N   UNL     1      44.169   2.539   9.419  0.00  0.00    +0.000 NA
ATOM      5  C   UNL     1      44.969   1.603   8.834  0.00  0.00    +0.000 A 
ATOM      6  C   UNL     1      46.101   1.897   8.087  0.00  0.00    +0.000 A 
ATOM      7  C   UNL     1      46.433   3.241   7.942  0.00  0.00    +0.000 A 
ATOM      8  C   UNL     1      45.642   4.209   8.548  0.00  0.00    +0.000 A 
ATOM      9  F   UNL     1      46.002   5.493   8.398  0.00  0.00    +0.000 F 
BRANCH   6  10
ATOM     10  C   UNL     1      46.967   0.879   7.447  0.00  0.00    +0.000 C 
ATOM     11  N   UNL     1      46.692  -0.446   7.633  0.00  0.00    +0.000 N 
ATOM     12  O   UNL     1      47.924   1.214   6.757  0.00  0.00    +0.000 OA
ATOM     13  H   UNL     1      45.950  -0.829   8.193  0.00  0.00    +0.000 HD
ATOM     14  H   UNL     1      47.323  -1.099   7.182  0.00  0.00    +0.000 HD
ENDBRANCH   6  10
ENDBRANCH   1   3
BRANCH   1  15
ATOM     15  C   UNL     1      43.641   4.668  11.407  0.00  0.00    +0.000 C 
BRANCH  15  19
ATOM     16  C   UNL     1      47.187   6.202  13.366  0.00  0.00    +0.000 A 
ATOM     17  C   UNL     1      46.545   6.949  12.369  0.00  0.00    +0.000 A 
ATOM     18  C   UNL     1      45.428   6.438  11.703  0.00  0.00    +0.000 A 
ATOM     19  C   UNL     1      44.932   5.164  12.017  0.00  0.00    +0.000 A 
ATOM     20  C   UNL     1      45.596   4.403  12.987  0.00  0.00    +0.000 A 
ATOM     21  C   UNL     1      46.711   4.916  13.656  0.00  0.00    +0.000 A 
BRANCH  16  22
ATOM     22  C   UNL     1      48.358   6.780  14.118  0.00  0.00    +0.000 C 
BRANCH  22  23
ATOM     23  N   UNL     1      49.553   6.831  13.284  0.00  0.00    +0.000 NA
ATOM     24  H   UNL     1      50.148   6.033  13.496  0.00  0.00    +0.000 HD
ATOM     25  H   UNL     1      50.087   7.665  13.526  0.00  0.00    +0.000 HD
ENDBRANCH  22  23
ENDBRANCH  16  22
ENDBRANCH  15  19
ENDBRANCH   1  15
TORSDOF 6
ENDMDL
MODEL 6
REMARK VINA RESULT:    -6.563      4.355      6.081
REMARK INTER + INTRA:          -9.171
REMARK INTER:                  -8.790
REMARK INTRA:                  -0.382
REMARK UNBOUND:                -0.499
REMARK  Name = 
REMARK  6 active torsions:
REMARK  status: ('A' for Active; 'I' for Inactive)
REMARK    1  A    between atoms: N_1  and  C_2
REMARK    2  A    between atoms: C_2  and  C_3
REMARK    3  A    between atoms: C_6  and  C_7
REMARK    4  A    between atoms: C_7  and  N_8
REMARK    5  A    between atoms: N_8  and  C_9
REMARK    6  A    between atoms: C_12  and  C_13
REMARK                            x       y       z     vdW  Elec       q    Type
REMARK                         _______ _______ _______ _____ _____    ______ ____
ROOT
ATOM      1  N   UNL     1      47.330   5.109  15.025  0.00  0.00    +0.000 N 
ATOM      2  H   UNL     1      48.294   5.179  14.709  0.00  0.00    +0.000 HD
ENDROOT
BRANCH   1   3
ATOM      3  C   UNL     1      46.518   4.877  13.923  0.00  0.00    +0.000 A 
ATOM      4  N   UNL     1      46.318   3.573  13.629  0.00  0.00    +0.000 NA
ATOM      5  C   UNL     1      45.584   3.270  12.521  0.00  0.00    +0.000 A 
ATOM      6  C   UNL     1      45.013   4.212  11.677  0.00  0.00    +0.000 A 
ATOM      7  C   UNL     1      45.218   5.552  11.994  0.00  0.00    +0.000 A 
ATOM      8  C   UNL     1      45.980   5.882  13.108  0.00  0.00    +0.000 A 
ATOM      9  F   UNL     1      46.167   7.184  13.372  0.00  0.00    +0.000 F 
BRANCH   6  10
ATOM     10  C   UNL     1      44.212   3.881  10.476  0.00  0.00    +0.000 C 
ATOM     11  N   UNL     1      44.025   4.833   9.514  0.00  0.00    +0.000 N 
ATOM     12  O   UNL     1      43.715   2.768  10.339  0.00  0.00    +0.000 OA
ATOM     13  H   UNL     1      44.366   5.778   9.534  0.00  0.00    +0.000 HD
ATOM     14  H   UNL     1      43.459   4.558   8.718  0.00  0.00    +0.000 HD
ENDBRANCH   6  10
ENDBRANCH   1   3
BRANCH   1  15
ATOM     15  C   UNL     1      47.125   4.310  16.218  0.00  0.00    +0.000 C 
BRANCH  15  19
ATOM     16  C   UNL     1      50.998   2.894  17.547  0.00  0.00    +0.000 A 
ATOM     17  C   UNL     1      50.026   1.991  17.095  0.00  0.00    +0.000 A 
ATOM     18  C   UNL     1      48.760   2.439  16.708  0.00  0.00    +0.000 A 
ATOM     19  C   UNL     1      48.438   3.803  16.772  0.00  0.00    +0.000 A 
ATOM     20  C   UNL     1      49.395   4.700  17.259  0.00  0.00    +0.000 A 
ATOM     21  C   UNL     1      50.663   4.252  17.642  0.00  0.00    +0.000 A 
BRANCH  16  22
ATOM     22  C   UNL     1      52.378   2.412  17.911  0.00  0.00    +0.000 C 
BRANCH  22  23
ATOM     23  N   UNL     1      52.390   0.976  18.166  0.00  0.00    +0.000 NA
ATOM     24  H   UNL     1      52.885   0.790  19.035  0.00  0.00    +0.000 HD
ATOM     25  H   UNL     1      52.919   0.516  17.425  0.00  0.00    +0.000 HD
ENDBRANCH  22  23
ENDBRANCH  16  22
ENDBRANCH  15  19
ENDBRANCH   1  15
TORSDOF 6
ENDMDL
MODEL 7
REMARK VINA RESULT:    -6.226      4.317      7.473
REMARK INTER + INTRA:          -8.727
REMARK INTER:                  -8.337
REMARK INTRA:                  -0.390
REMARK UNBOUND:                -0.499
REMARK  Name = 
REMARK  6 active torsions:
REMARK  status: ('A' for Active; 'I' for Inactive)
REMARK    1  A    between atoms: N_1  and  C_2
REMARK    2  A    between atoms: C_2  and  C_3
REMARK    3  A    between atoms: C_6  and  C_7
REMARK    4  A    between atoms: C_7  and  N_8
REMARK    5  A    between atoms: N_8  and  C_9
REMARK    6  A    between atoms: C_12  and  C_13
REMARK                            x       y       z     vdW  Elec       q    Type
REMARK                         _______ _______ _______ _____ _____    ______ ____
ROOT
ATOM      1  N   UNL     1      46.485   5.702  13.641  0.00  0.00    +0.000 N 
ATOM      2  H   UNL     1      46.471   6.714  13.749  0.00  0.00    +0.000 HD
ENDROOT
BRANCH   1   3
ATOM      3  C   UNL     1      47.201   5.154  14.697  0.00  0.00    +0.000 A 
ATOM      4  N   UNL     1      46.951   3.847  14.935  0.00  0.00    +0.000 NA
ATOM      5  C   UNL     1      47.569   3.258  15.997  0.00  0.00    +0.000 A 
ATOM      6  C   UNL     1      48.454   3.906  16.847  0.00  0.00    +0.000 A 
ATOM      7  C   UNL     1      48.711   5.250  16.588  0.00  0.00    +0.000 A 
ATOM      8  C   UNL     1      48.076   5.874  15.522  0.00  0.00    +0.000 A 
ATOM      9  F   UNL     1      48.338   7.173  15.314  0.00  0.00    +0.000 F 
BRANCH   6  10
ATOM     10  C   UNL     1      49.129   3.264  17.999  0.00  0.00    +0.000 C 
ATOM     11  N   UNL     1      48.520   3.273  19.222  0.00  0.00    +0.000 N 
ATOM     12  O   UNL     1      50.225   2.729  17.865  0.00  0.00    +0.000 OA
ATOM     13  H   UNL     1      47.638   3.699  19.447  0.00  0.00    +0.000 HD
ATOM     14  H   UNL     1      49.031   2.829  19.977  0.00  0.00    +0.000 HD
ENDBRANCH   6  10
ENDBRANCH   1   3
BRANCH   1  15
ATOM     15  C   UNL     1      45.218   5.100  13.277  0.00  0.00    +0.000 C 
BRANCH  15  19
ATOM     16  C   UNL     1      45.343   4.046   9.077  0.00  0.00    +0.000 A 
ATOM     17  C   UNL     1      45.731   5.324   9.502  0.00  0.00    +0.000 A 
ATOM     18  C   UNL     1      45.649   5.683  10.850  0.00  0.00    +0.000 A 
ATOM     19  C   UNL     1      45.170   4.770  11.802  0.00  0.00    +0.000 A 
ATOM     20  C   UNL     1      44.747   3.507  11.371  0.00  0.00    +0.000 A 
ATOM     21  C   UNL     1      44.833   3.147  10.023  0.00  0.00    +0.000 A 
BRANCH  16  22
ATOM     22  C   UNL     1      45.484   3.646   7.630  0.00  0.00    +0.000 C 
BRANCH  22  23
ATOM     23  N   UNL     1      46.673   4.240   7.028  0.00  0.00    +0.000 NA
ATOM     24  H   UNL     1      46.628   4.135   6.017  0.00  0.00    +0.000 HD
ATOM     25  H   UNL     1      47.492   3.719   7.339  0.00  0.00    +0.000 HD
ENDBRANCH  22  23
ENDBRANCH  16  22
ENDBRANCH  15  19
ENDBRANCH   1  15
TORSDOF 6
ENDMDL
MODEL 8
REMARK VINA RESULT:    -6.117      4.902      6.923
REMARK INTER + INTRA:          -8.582
REMARK INTER:                  -8.059
REMARK INTRA:                  -0.523
REMARK UNBOUND:                -0.499
REMARK  Name = 
REMARK  6 active torsions:
REMARK  status: ('A' for Active; 'I' for Inactive)
REMARK    1  A    between atoms: N_1  and  C_2
REMARK    2  A    between atoms: C_2  and  C_3
REMARK    3  A    between atoms: C_6  and  C_7
REMARK    4  A    between atoms: C_7  and  N_8
REMARK    5  A    between atoms: N_8  and  C_9
REMARK    6  A    between atoms: C_12  and  C_13
REMARK                            x       y       z     vdW  Elec       q    Type
REMARK                         _______ _______ _______ _____ _____    ______ ____
ROOT
ATOM      1  N   UNL     1      47.222   3.478  14.969  0.00  0.00    +0.000 N 
ATOM      2  H   UNL     1      46.903   2.565  14.652  0.00  0.00    +0.000 HD
ENDROOT
BRANCH   1   3
ATOM      3  C   UNL     1      46.598   4.455  14.205  0.00  0.00    +0.000 A 
ATOM      4  N   UNL     1      45.388   4.105  13.713  0.00  0.00    +0.000 NA
ATOM      5  C   UNL     1      44.745   4.990  12.901  0.00  0.00    +0.000 A 
ATOM      6  C   UNL     1      45.242   6.238  12.552  0.00  0.00    +0.000 A 
ATOM      7  C   UNL     1      46.485   6.591  13.071  0.00  0.00    +0.000 A 
ATOM      8  C   UNL     1      47.165   5.696  13.885  0.00  0.00    +0.000 A 
ATOM      9  F   UNL     1      48.367   6.067  14.354  0.00  0.00    +0.000 F 
BRANCH   6  10
ATOM     10  C   UNL     1      44.540   7.201  11.672  0.00  0.00    +0.000 C 
ATOM     11  N   UNL     1      43.299   6.889  11.194  0.00  0.00    +0.000 N 
ATOM     12  O   UNL     1      45.061   8.270  11.369  0.00  0.00    +0.000 OA
ATOM     13  H   UNL     1      42.791   6.038  11.361  0.00  0.00    +0.000 HD
ATOM     14  H   UNL     1      42.869   7.579  10.588  0.00  0.00    +0.000 HD
ENDBRANCH   6  10
ENDBRANCH   1   3
BRANCH   1  15
ATOM     15  C   UNL     1      47.275   3.650  16.407  0.00  0.00    +0.000 C 
BRANCH  15  19
ATOM     16  C   UNL     1      51.386   3.098  17.658  0.00  0.00    +0.000 A 
ATOM     17  C   UNL     1      50.617   2.005  17.235  0.00  0.00    +0.000 A 
ATOM     18  C   UNL     1      49.278   2.171  16.874  0.00  0.00    +0.000 A 
ATOM     19  C   UNL     1      48.676   3.437  16.935  0.00  0.00    +0.000 A 
ATOM     20  C   UNL     1      49.433   4.522  17.393  0.00  0.00    +0.000 A 
ATOM     21  C   UNL     1      50.775   4.356  17.751  0.00  0.00    +0.000 A 
BRANCH  16  22
ATOM     22  C   UNL     1      52.845   2.921  17.994  0.00  0.00    +0.000 C 
BRANCH  22  23
ATOM     23  N   UNL     1      53.078   1.674  18.714  0.00  0.00    +0.000 NA
ATOM     24  H   UNL     1      52.883   0.888  18.099  0.00  0.00    +0.000 HD
ATOM     25  H   UNL     1      52.414   1.612  19.485  0.00  0.00    +0.000 HD
ENDBRANCH  22  23
ENDBRANCH  16  22
ENDBRANCH  15  19
ENDBRANCH   1  15
TORSDOF 6
ENDMDL
MODEL 9
REMARK VINA RESULT:    -5.975      3.467      4.885
REMARK INTER + INTRA:          -8.395
REMARK INTER:                  -7.972
REMARK INTRA:                  -0.423
REMARK UNBOUND:                -0.499
REMARK  Name = 
REMARK  6 active torsions:
REMARK  status: ('A' for Active; 'I' for Inactive)
REMARK    1  A    between atoms: N_1  and  C_2
REMARK    2  A    between atoms: C_2  and  C_3
REMARK    3  A    between atoms: C_6  and  C_7
REMARK    4  A    between atoms: C_7  and  N_8
REMARK    5  A    between atoms: N_8  and  C_9
REMARK    6  A    between atoms: C_12  and  C_13
REMARK                            x       y       z     vdW  Elec       q    Type
REMARK                         _______ _______ _______ _____ _____    ______ ____
ROOT
ATOM      1  N   UNL     1      46.058   5.698  13.857  0.00  0.00    +0.000 N 
ATOM      2  H   UNL     1      45.399   6.439  14.079  0.00  0.00    +0.000 HD
ENDROOT
BRANCH   1   3
ATOM      3  C   UNL     1      45.650   5.076  12.685  0.00  0.00    +0.000 A 
ATOM      4  N   UNL     1      45.342   3.766  12.813  0.00  0.00    +0.000 NA
ATOM      5  C   UNL     1      44.995   3.075  11.691  0.00  0.00    +0.000 A 
ATOM      6  C   UNL     1      44.921   3.629  10.421  0.00  0.00    +0.000 A 
ATOM      7  C   UNL     1      45.232   4.980  10.301  0.00  0.00    +0.000 A 
ATOM      8  C   UNL     1      45.608   5.698  11.429  0.00  0.00    +0.000 A 
ATOM      9  F   UNL     1      45.914   6.995  11.271  0.00  0.00    +0.000 F 
BRANCH   6  10
ATOM     10  C   UNL     1      44.540   2.877   9.202  0.00  0.00    +0.000 C 
ATOM     11  N   UNL     1      44.276   3.562   8.050  0.00  0.00    +0.000 N 
ATOM     12  O   UNL     1      44.457   1.654   9.219  0.00  0.00    +0.000 OA
ATOM     13  H   UNL     1      44.293   4.560   7.930  0.00  0.00    +0.000 HD
ATOM     14  H   UNL     1      44.008   3.000   7.249  0.00  0.00    +0.000 HD
ENDBRANCH   6  10
ENDBRANCH   1   3
BRANCH   1  15
ATOM     15  C   UNL     1      47.458   6.048  14.005  0.00  0.00    +0.000 C 
BRANCH  15  19
ATOM     16  C   UNL     1      48.840   4.749  17.900  0.00  0.00    +0.000 A 
ATOM     17  C   UNL     1      49.357   5.911  17.311  0.00  0.00    +0.000 A 
ATOM     18  C   UNL     1      48.948   6.309  16.036  0.00  0.00    +0.000 A 
ATOM     19  C   UNL     1      48.014   5.547  15.318  0.00  0.00    +0.000 A 
ATOM     20  C   UNL     1      47.526   4.366  15.890  0.00  0.00    +0.000 A 
ATOM     21  C   UNL     1      47.933   3.970  17.168  0.00  0.00    +0.000 A 
BRANCH  16  22
ATOM     22  C   UNL     1      49.245   4.355  19.296  0.00  0.00    +0.000 C 
BRANCH  22  23
ATOM     23  N   UNL     1      48.309   3.394  19.871  0.00  0.00    +0.000 NA
ATOM     24  H   UNL     1      47.383   3.548  19.479  0.00  0.00    +0.000 HD
ATOM     25  H   UNL     1      48.234   3.568  20.872  0.00  0.00    +0.000 HD
ENDBRANCH  22  23
ENDBRANCH  16  22
ENDBRANCH  15  19
ENDBRANCH   1  15
TORSDOF 6
ENDMDL
