MODEL 1
REMARK VINA RESULT:    -6.846      0.000      0.000
REMARK INTER + INTRA:         -10.370
REMARK INTER:                  -9.648
REMARK INTRA:                  -0.722
REMARK UNBOUND:                -0.722
REMARK  Name = 
REMARK  9 active torsions:
REMARK  status: ('A' for Active; 'I' for Inactive)
REMARK    1  A    between atoms: C_1  and  N_2
REMARK    2  A    between atoms: N_2  and  C_3
REMARK    3  A    between atoms: N_2  and  C_4
REMARK    4  A    between atoms: C_4  and  C_5
REMARK    5  A    between atoms: C_5  and  N_6
REMARK    6  A    between atoms: N_6  and  C_7
REMARK    7  A    between atoms: C_7  and  C_8
REMARK    8  A    between atoms: C_11  and  C_12
REMARK    9  A    between atoms: C_12  and  N_13
REMARK                            x       y       z     vdW  Elec       q    Type
REMARK                         _______ _______ _______ _____ _____    ______ ____
ROOT
ATOM      1  C   UNL     1      47.681   7.287  13.737  0.00  0.00    +0.000 A 
ATOM      2  C   UNL     1      46.762   8.224  13.239  0.00  0.00    +0.000 A 
ATOM      3  C   UNL     1      45.573   7.802  12.645  0.00  0.00    +0.000 A 
ATOM      4  C   UNL     1      45.280   6.437  12.520  0.00  0.00    +0.000 A 
ATOM      5  C   UNL     1      46.213   5.502  12.997  0.00  0.00    +0.000 A 
ATOM      6  C   UNL     1      47.395   5.924  13.603  0.00  0.00    +0.000 A 
ENDROOT
BRANCH   1   7
ATOM      7  C   UNL     1      48.979   7.738  14.361  0.00  0.00    +0.000 C 
BRANCH   7   8
ATOM      8  N   UNL     1      49.770   6.610  14.861  0.00  0.00    +0.000 NA
ATOM      9  H   UNL     1      49.192   5.770  14.778  0.00  0.00    +0.000 HD
BRANCH   8  10
ATOM     10  C   UNL     1      50.077   6.763  16.290  0.00  0.00    +0.000 C 
BRANCH  10  11
ATOM     11  C   UNL     1      49.211   5.881  17.227  0.00  0.00    +0.000 C 
BRANCH  11  13
ATOM     12  C   UNL     1      49.775   3.540  17.550  0.00  0.00    +0.000 C 
ATOM     13  N   UNL     1      49.019   4.496  16.735  0.00  0.00    +0.000 NA
ATOM     14  C   UNL     1      47.594   4.156  16.772  0.00  0.00    +0.000 C 
ENDBRANCH  11  13
ENDBRANCH  10  11
ENDBRANCH   8  10
ENDBRANCH   7   8
ENDBRANCH   1   7
BRANCH   4  15
ATOM     15  C   UNL     1      43.993   5.975  11.895  0.00  0.00    +0.000 C 
BRANCH  15  16
ATOM     16  N   UNL     1      44.132   4.681  11.236  0.00  0.00    +0.000 N 
ATOM     17  C   UNL     1      43.496   3.534  11.651  0.00  0.00    +0.000 A 
ATOM     18  C   UNL     1      43.759   2.544  10.733  0.00  0.00    +0.000 A 
ATOM     19  C   UNL     1      44.578   3.103   9.717  0.00  0.00    +0.000 A 
ATOM     20  C   UNL     1      45.138   2.598   8.535  0.00  0.00    +0.000 A 
ATOM     21  C   UNL     1      45.892   3.489   7.792  0.00  0.00    +0.000 A 
ATOM     22 CL   UNL     1      46.606   2.994   6.310  0.00  0.00    +0.000 Cl
ATOM     23  N   UNL     1      46.132   4.775   8.117  0.00  0.00    +0.000 NA
ATOM     24  C   UNL     1      45.597   5.265   9.255  0.00  0.00    +0.000 A 
ATOM     25  C   UNL     1      44.812   4.438  10.058  0.00  0.00    +0.000 A 
ENDBRANCH  15  16
ENDBRANCH   4  15
TORSDOF 7
ENDMDL
MODEL 2
REMARK VINA RESULT:    -6.137      1.722      2.438
REMARK INTER + INTRA:          -9.370
REMARK INTER:                  -8.745
REMARK INTRA:                  -0.624
REMARK UNBOUND:                -0.722
REMARK  Name = 
REMARK  9 active torsions:
REMARK  status: ('A' for Active; 'I' for Inactive)
REMARK    1  A    between atoms: C_1  and  N_2
REMARK    2  A    between atoms: N_2  and  C_3
REMARK    3  A    between atoms: N_2  and  C_4
REMARK    4  A    between atoms: C_4  and  C_5
REMARK    5  A    between atoms: C_5  and  N_6
REMARK    6  A    between atoms: N_6  and  C_7
REMARK    7  A    between atoms: C_7  and  C_8
REMARK    8  A    between atoms: C_11  and  C_12
REMARK    9  A    between atoms: C_12  and  N_13
REMARK                            x       y       z     vdW  Elec       q    Type
REMARK                         _______ _______ _______ _____ _____    ______ ____
ROOT
ATOM      1  C   UNL     1      46.677   7.969  13.032  0.00  0.00    +0.000 A 
ATOM      2  C   UNL     1      46.521   6.593  13.265  0.00  0.00    +0.000 A 
ATOM      3  C   UNL     1      45.511   5.877  12.620  0.00  0.00    +0.000 A 
ATOM      4  C   UNL     1      44.626   6.519  11.743  0.00  0.00    +0.000 A 
ATOM      5  C   UNL     1      44.771   7.900  11.532  0.00  0.00    +0.000 A 
ATOM      6  C   UNL     1      45.788   8.612  12.166  0.00  0.00    +0.000 A 
ENDROOT
BRANCH   1   7
ATOM      7  C   UNL     1      47.754   8.751  13.744  0.00  0.00    +0.000 C 
BRANCH   7   8
ATOM      8  N   UNL     1      47.426   8.979  15.154  0.00  0.00    +0.000 NA
ATOM      9  H   UNL     1      47.210   9.973  15.262  0.00  0.00    +0.000 HD
BRANCH   8  10
ATOM     10  C   UNL     1      48.581   8.708  16.022  0.00  0.00    +0.000 C 
BRANCH  10  11
ATOM     11  C   UNL     1      49.955   9.027  15.375  0.00  0.00    +0.000 C 
BRANCH  11  13
ATOM     12  C   UNL     1      50.598   6.820  16.159  0.00  0.00    +0.000 C 
ATOM     13  N   UNL     1      51.063   8.182  15.878  0.00  0.00    +0.000 NA
ATOM     14  C   UNL     1      52.138   8.139  14.882  0.00  0.00    +0.000 C 
ENDBRANCH  11  13
ENDBRANCH  10  11
ENDBRANCH   8  10
ENDBRANCH   7   8
ENDBRANCH   1   7
BRANCH   4  15
ATOM     15  C   UNL     1      43.546   5.750  11.033  0.00  0.00    +0.000 C 
BRANCH  15  16
ATOM     16  N   UNL     1      43.971   4.399  10.680  0.00  0.00    +0.000 N 
ATOM     17  C   UNL     1      43.492   3.260  11.283  0.00  0.00    +0.000 A 
ATOM     18  C   UNL     1      44.016   2.174  10.623  0.00  0.00    +0.000 A 
ATOM     19  C   UNL     1      44.840   2.663   9.574  0.00  0.00    +0.000 A 
ATOM     20  C   UNL     1      45.605   2.046   8.574  0.00  0.00    +0.000 A 
ATOM     21  C   UNL     1      46.279   2.897   7.715  0.00  0.00    +0.000 A 
ATOM     22 CL   UNL     1      47.227   2.259   6.433  0.00  0.00    +0.000 Cl
ATOM     23  N   UNL     1      46.264   4.243   7.773  0.00  0.00    +0.000 NA
ATOM     24  C   UNL     1      45.532   4.841   8.736  0.00  0.00    +0.000 A 
ATOM     25  C   UNL     1      44.810   4.059   9.636  0.00  0.00    +0.000 A 
ENDBRANCH  15  16
ENDBRANCH   4  15
TORSDOF 7
ENDMDL
MODEL 3
REMARK VINA RESULT:    -5.786      3.315      7.928
REMARK INTER + INTRA:          -8.875
REMARK INTER:                  -8.095
REMARK INTRA:                  -0.779
REMARK UNBOUND:                -0.722
REMARK  Name = 
REMARK  9 active torsions:
REMARK  status: ('A' for Active; 'I' for Inactive)
REMARK    1  A    between atoms: C_1  and  N_2
REMARK    2  A    between atoms: N_2  and  C_3
REMARK    3  A    between atoms: N_2  and  C_4
REMARK    4  A    between atoms: C_4  and  C_5
REMARK    5  A    between atoms: C_5  and  N_6
REMARK    6  A    between atoms: N_6  and  C_7
REMARK    7  A    between atoms: C_7  and  C_8
REMARK    8  A    between atoms: C_11  and  C_12
REMARK    9  A    between atoms: C_12  and  N_13
REMARK                            x       y       z     vdW  Elec       q    Type
REMARK                         _______ _______ _______ _____ _____    ______ ____
ROOT
ATOM      1  C   UNL     1      44.774   4.151  11.313  0.00  0.00    +0.000 A 
ATOM      2  C   UNL     1      44.564   5.391  10.689  0.00  0.00    +0.000 A 
ATOM      3  C   UNL     1      45.126   6.553  11.219  0.00  0.00    +0.000 A 
ATOM      4  C   UNL     1      45.896   6.507  12.390  0.00  0.00    +0.000 A 
ATOM      5  C   UNL     1      46.083   5.267  13.023  0.00  0.00    +0.000 A 
ATOM      6  C   UNL     1      45.532   4.105  12.486  0.00  0.00    +0.000 A 
ENDROOT
BRANCH   1   7
ATOM      7  C   UNL     1      44.150   2.895  10.755  0.00  0.00    +0.000 C 
BRANCH   7   8
ATOM      8  N   UNL     1      44.101   2.909   9.290  0.00  0.00    +0.000 NA
ATOM      9  H   UNL     1      43.319   2.315   9.004  0.00  0.00    +0.000 HD
BRANCH   8  10
ATOM     10  C   UNL     1      45.312   2.312   8.709  0.00  0.00    +0.000 C 
BRANCH  10  11
ATOM     11  C   UNL     1      46.139   3.281   7.822  0.00  0.00    +0.000 C 
BRANCH  11  13
ATOM     12  C   UNL     1      47.282   1.187   7.359  0.00  0.00    +0.000 C 
ATOM     13  N   UNL     1      47.171   2.605   7.001  0.00  0.00    +0.000 NA
ATOM     14  C   UNL     1      46.827   2.729   5.582  0.00  0.00    +0.000 C 
ENDBRANCH  11  13
ENDBRANCH  10  11
ENDBRANCH   8  10
ENDBRANCH   7   8
ENDBRANCH   1   7
BRANCH   4  15
ATOM     15  C   UNL     1      46.518   7.753  12.957  0.00  0.00    +0.000 C 
BRANCH  15  16
ATOM     16  N   UNL     1      47.969   7.764  12.805  0.00  0.00    +0.000 N 
ATOM     17  C   UNL     1      48.615   7.828  11.593  0.00  0.00    +0.000 A 
ATOM     18  C   UNL     1      49.965   7.941  11.833  0.00  0.00    +0.000 A 
ATOM     19  C   UNL     1      50.153   7.953  13.241  0.00  0.00    +0.000 A 
ATOM     20  C   UNL     1      51.280   8.066  14.067  0.00  0.00    +0.000 A 
ATOM     21  C   UNL     1      51.037   8.041  15.430  0.00  0.00    +0.000 A 
ATOM     22 CL   UNL     1      52.335   8.199  16.543  0.00  0.00    +0.000 Cl
ATOM     23  N   UNL     1      49.827   7.910  16.009  0.00  0.00    +0.000 NA
ATOM     24  C   UNL     1      48.740   7.798  15.216  0.00  0.00    +0.000 A 
ATOM     25  C   UNL     1      48.892   7.827  13.831  0.00  0.00    +0.000 A 
ENDBRANCH  15  16
ENDBRANCH   4  15
TORSDOF 7
ENDMDL
MODEL 4
REMARK VINA RESULT:    -5.765      1.734      2.680
REMARK INTER + INTRA:          -8.845
REMARK INTER:                  -8.148
REMARK INTRA:                  -0.697
REMARK UNBOUND:                -0.722
REMARK  Name = 
REMARK  9 active torsions:
REMARK  status: ('A' for Active; 'I' for Inactive)
REMARK    1  A    between atoms: C_1  and  N_2
REMARK    2  A    between atoms: N_2  and  C_3
REMARK    3  A    between atoms: N_2  and  C_4
REMARK    4  A    between atoms: C_4  and  C_5
REMARK    5  A    between atoms: C_5  and  N_6
REMARK    6  A    between atoms: N_6  and  C_7
REMARK    7  A    between atoms: C_7  and  C_8
REMARK    8  A    between atoms: C_11  and  C_12
REMARK    9  A    between atoms: C_12  and  N_13
REMARK                            x       y       z     vdW  Elec       q    Type
REMARK                         _______ _______ _______ _____ _____    ______ ____
ROOT
ATOM      1  C   UNL     1      47.853   6.424  14.292  0.00  0.00    +0.000 A 
ATOM      2  C   UNL     1      47.190   5.187  14.323  0.00  0.00    +0.000 A 
ATOM      3  C   UNL     1      46.039   4.982  13.561  0.00  0.00    +0.000 A 
ATOM      4  C   UNL     1      45.516   6.010  12.763  0.00  0.00    +0.000 A 
ATOM      5  C   UNL     1      46.169   7.253  12.754  0.00  0.00    +0.000 A 
ATOM      6  C   UNL     1      47.326   7.453  13.506  0.00  0.00    +0.000 A 
ENDROOT
BRANCH   1   7
ATOM      7  C   UNL     1      49.085   6.657  15.132  0.00  0.00    +0.000 C 
BRANCH   7   8
ATOM      8  N   UNL     1      49.856   7.814  14.668  0.00  0.00    +0.000 NA
ATOM      9  H   UNL     1      50.787   7.478  14.408  0.00  0.00    +0.000 HD
BRANCH   8  10
ATOM     10  C   UNL     1      50.053   8.793  15.746  0.00  0.00    +0.000 C 
BRANCH  10  11
ATOM     11  C   UNL     1      49.005   8.707  16.887  0.00  0.00    +0.000 C 
BRANCH  11  13
ATOM     12  C   UNL     1      48.467  10.306  18.635  0.00  0.00    +0.000 C 
ATOM     13  N   UNL     1      48.360  10.002  17.205  0.00  0.00    +0.000 NA
ATOM     14  C   UNL     1      48.994  11.070  16.425  0.00  0.00    +0.000 C 
ENDBRANCH  11  13
ENDBRANCH  10  11
ENDBRANCH   8  10
ENDBRANCH   7   8
ENDBRANCH   1   7
BRANCH   4  15
ATOM     15  C   UNL     1      44.286   5.790  11.927  0.00  0.00    +0.000 C 
BRANCH  15  16
ATOM     16  N   UNL     1      44.345   4.540  11.176  0.00  0.00    +0.000 N 
ATOM     17  C   UNL     1      43.664   3.398  11.529  0.00  0.00    +0.000 A 
ATOM     18  C   UNL     1      43.854   2.464  10.538  0.00  0.00    +0.000 A 
ATOM     19  C   UNL     1      44.674   3.054   9.540  0.00  0.00    +0.000 A 
ATOM     20  C   UNL     1      45.177   2.608   8.310  0.00  0.00    +0.000 A 
ATOM     21  C   UNL     1      45.955   3.513   7.609  0.00  0.00    +0.000 A 
ATOM     22 CL   UNL     1      46.605   3.090   6.076  0.00  0.00    +0.000 Cl
ATOM     23  N   UNL     1      46.266   4.760   8.015  0.00  0.00    +0.000 NA
ATOM     24  C   UNL     1      45.785   5.193   9.199  0.00  0.00    +0.000 A 
ATOM     25  C   UNL     1      44.982   4.350   9.965  0.00  0.00    +0.000 A 
ENDBRANCH  15  16
ENDBRANCH   4  15
TORSDOF 7
ENDMDL
MODEL 5
REMARK VINA RESULT:    -5.739      2.010      3.542
REMARK INTER + INTRA:          -8.810
REMARK INTER:                  -8.238
REMARK INTRA:                  -0.572
REMARK UNBOUND:                -0.722
REMARK  Name = 
REMARK  9 active torsions:
REMARK  status: ('A' for Active; 'I' for Inactive)
REMARK    1  A    between atoms: C_1  and  N_2
REMARK    2  A    between atoms: N_2  and  C_3
REMARK    3  A    between atoms: N_2  and  C_4
REMARK    4  A    between atoms: C_4  and  C_5
REMARK    5  A    between atoms: C_5  and  N_6
REMARK    6  A    between atoms: N_6  and  C_7
REMARK    7  A    between atoms: C_7  and  C_8
REMARK    8  A    between atoms: C_11  and  C_12
REMARK    9  A    between atoms: C_12  and  N_13
REMARK                            x       y       z     vdW  Elec       q    Type
REMARK                         _______ _______ _______ _____ _____    ______ ____
ROOT
ATOM      1  C   UNL     1      47.774   7.295  13.626  0.00  0.00    +0.000 A 
ATOM      2  C   UNL     1      47.513   5.926  13.452  0.00  0.00    +0.000 A 
ATOM      3  C   UNL     1      46.333   5.504  12.839  0.00  0.00    +0.000 A 
ATOM      4  C   UNL     1      45.381   6.434  12.400  0.00  0.00    +0.000 A 
ATOM      5  C   UNL     1      45.635   7.802  12.597  0.00  0.00    +0.000 A 
ATOM      6  C   UNL     1      46.820   8.224  13.198  0.00  0.00    +0.000 A 
ENDROOT
BRANCH   1   7
ATOM      7  C   UNL     1      49.039   7.756  14.308  0.00  0.00    +0.000 C 
BRANCH   7   8
ATOM      8  N   UNL     1      49.327   9.166  14.035  0.00  0.00    +0.000 NA
ATOM      9  H   UNL     1      48.700   9.468  13.284  0.00  0.00    +0.000 HD
BRANCH   8  10
ATOM     10  C   UNL     1      50.696   9.345  13.529  0.00  0.00    +0.000 C 
BRANCH  10  11
ATOM     11  C   UNL     1      51.071   8.402  12.355  0.00  0.00    +0.000 C 
BRANCH  11  13
ATOM     12  C   UNL     1      52.310   8.869  10.318  0.00  0.00    +0.000 C 
ATOM     13  N   UNL     1      52.403   8.679  11.769  0.00  0.00    +0.000 NA
ATOM     14  C   UNL     1      52.971   9.881  12.387  0.00  0.00    +0.000 C 
ENDBRANCH  11  13
ENDBRANCH  10  11
ENDBRANCH   8  10
ENDBRANCH   7   8
ENDBRANCH   1   7
BRANCH   4  15
ATOM     15  C   UNL     1      44.114   5.986  11.724  0.00  0.00    +0.000 C 
BRANCH  15  16
ATOM     16  N   UNL     1      44.254   4.671  11.106  0.00  0.00    +0.000 N 
ATOM     17  C   UNL     1      43.631   3.535  11.566  0.00  0.00    +0.000 A 
ATOM     18  C   UNL     1      43.890   2.517  10.678  0.00  0.00    +0.000 A 
ATOM     19  C   UNL     1      44.693   3.048   9.634  0.00  0.00    +0.000 A 
ATOM     20  C   UNL     1      45.241   2.508   8.462  0.00  0.00    +0.000 A 
ATOM     21  C   UNL     1      45.980   3.380   7.681  0.00  0.00    +0.000 A 
ATOM     22 CL   UNL     1      46.679   2.841   6.207  0.00  0.00    +0.000 Cl
ATOM     23  N   UNL     1      46.215   4.677   7.961  0.00  0.00    +0.000 NA
ATOM     24  C   UNL     1      45.691   5.200   9.090  0.00  0.00    +0.000 A 
ATOM     25  C   UNL     1      44.922   4.396   9.928  0.00  0.00    +0.000 A 
ENDBRANCH  15  16
ENDBRANCH   4  15
TORSDOF 7
ENDMDL
MODEL 6
REMARK VINA RESULT:    -5.690      3.457      8.307
REMARK INTER + INTRA:          -8.741
REMARK INTER:                  -8.066
REMARK INTRA:                  -0.675
REMARK UNBOUND:                -0.722
REMARK  Name = 
REMARK  9 active torsions:
REMARK  status: ('A' for Active; 'I' for Inactive)
REMARK    1  A    between atoms: C_1  and  N_2
REMARK    2  A    between atoms: N_2  and  C_3
REMARK    3  A    between atoms: N_2  and  C_4
REMARK    4  A    between atoms: C_4  and  C_5
REMARK    5  A    between atoms: C_5  and  N_6
REMARK    6  A    between atoms: N_6  and  C_7
REMARK    7  A    between atoms: C_7  and  C_8
REMARK    8  A    between atoms: C_11  and  C_12
REMARK    9  A    between atoms: C_12  and  N_13
REMARK                            x       y       z     vdW  Elec       q    Type
REMARK                         _______ _______ _______ _____ _____    ______ ____
ROOT
ATOM      1  C   UNL     1      47.397   5.824  13.777  0.00  0.00    +0.000 A 
ATOM      2  C   UNL     1      48.297   6.607  14.518  0.00  0.00    +0.000 A 
ATOM      3  C   UNL     1      48.649   6.240  15.817  0.00  0.00    +0.000 A 
ATOM      4  C   UNL     1      48.102   5.094  16.412  0.00  0.00    +0.000 A 
ATOM      5  C   UNL     1      47.184   4.328  15.675  0.00  0.00    +0.000 A 
ATOM      6  C   UNL     1      46.842   4.687  14.372  0.00  0.00    +0.000 A 
ENDROOT
BRANCH   1   7
ATOM      7  C   UNL     1      46.996   6.230  12.380  0.00  0.00    +0.000 C 
BRANCH   7   8
ATOM      8  N   UNL     1      45.777   7.043  12.372  0.00  0.00    +0.000 NA
ATOM      9  H   UNL     1      45.356   6.973  13.302  0.00  0.00    +0.000 HD
BRANCH   8  10
ATOM     10  C   UNL     1      44.785   6.513  11.426  0.00  0.00    +0.000 C 
BRANCH  10  11
ATOM     11  C   UNL     1      44.773   4.965  11.315  0.00  0.00    +0.000 C 
BRANCH  11  13
ATOM     12  C   UNL     1      42.819   5.172  12.744  0.00  0.00    +0.000 C 
ATOM     13  N   UNL     1      43.923   4.300  12.330  0.00  0.00    +0.000 NA
ATOM     14  C   UNL     1      43.385   3.053  11.778  0.00  0.00    +0.000 C 
ENDBRANCH  11  13
ENDBRANCH  10  11
ENDBRANCH   8  10
ENDBRANCH   7   8
ENDBRANCH   1   7
BRANCH   4  15
ATOM     15  C   UNL     1      48.490   4.684  17.805  0.00  0.00    +0.000 C 
BRANCH  15  16
ATOM     16  N   UNL     1      49.935   4.548  17.958  0.00  0.00    +0.000 N 
ATOM     17  C   UNL     1      50.751   5.534  18.462  0.00  0.00    +0.000 A 
ATOM     18  C   UNL     1      52.022   5.020  18.575  0.00  0.00    +0.000 A 
ATOM     19  C   UNL     1      51.983   3.671  18.132  0.00  0.00    +0.000 A 
ATOM     20  C   UNL     1      52.943   2.654  18.036  0.00  0.00    +0.000 A 
ATOM     21  C   UNL     1      52.494   1.441  17.545  0.00  0.00    +0.000 A 
ATOM     22 CL   UNL     1      53.572   0.111  17.408  0.00  0.00    +0.000 Cl
ATOM     23  N   UNL     1      51.233   1.172  17.152  0.00  0.00    +0.000 NA
ATOM     24  C   UNL     1      50.306   2.149  17.240  0.00  0.00    +0.000 A 
ATOM     25  C   UNL     1      50.670   3.400  17.736  0.00  0.00    +0.000 A 
ENDBRANCH  15  16
ENDBRANCH   4  15
TORSDOF 7
ENDMDL
MODEL 7
REMARK VINA RESULT:    -5.586      3.335      8.326
REMARK INTER + INTRA:          -8.593
REMARK INTER:                  -7.865
REMARK INTRA:                  -0.728
REMARK UNBOUND:                -0.722
REMARK  Name = 
REMARK  9 active torsions:
REMARK  status: ('A' for Active; 'I' for Inactive)
REMARK    1  A    between atoms: C_1  and  N_2
REMARK    2  A    between atoms: N_2  and  C_3
REMARK    3  A    between atoms: N_2  and  C_4
REMARK    4  A    between atoms: C_4  and  C_5
REMARK    5  A    between atoms: C_5  and  N_6
REMARK    6  A    between atoms: N_6  and  C_7
REMARK    7  A    between atoms: C_7  and  C_8
REMARK    8  A    between atoms: C_11  and  C_12
REMARK    9  A    between atoms: C_12  and  N_13
REMARK                            x       y       z     vdW  Elec       q    Type
REMARK                         _______ _______ _______ _____ _____    ______ ____
ROOT
ATOM      1  C   UNL     1      45.304   5.494  11.867  0.00  0.00    +0.000 A 
ATOM      2  C   UNL     1      45.950   6.644  11.388  0.00  0.00    +0.000 A 
ATOM      3  C   UNL     1      47.143   7.077  11.968  0.00  0.00    +0.000 A 
ATOM      4  C   UNL     1      47.709   6.383  13.046  0.00  0.00    +0.000 A 
ATOM      5  C   UNL     1      47.046   5.246  13.537  0.00  0.00    +0.000 A 
ATOM      6  C   UNL     1      45.861   4.806  12.949  0.00  0.00    +0.000 A 
ENDROOT
BRANCH   1   7
ATOM      7  C   UNL     1      44.001   5.034  11.257  0.00  0.00    +0.000 C 
BRANCH   7   8
ATOM      8  N   UNL     1      44.077   3.651  10.778  0.00  0.00    +0.000 NA
ATOM      9  H   UNL     1      44.787   3.172  11.337  0.00  0.00    +0.000 HD
BRANCH   8  10
ATOM     10  C   UNL     1      44.539   3.593   9.383  0.00  0.00    +0.000 C 
BRANCH  10  11
ATOM     11  C   UNL     1      45.361   2.323   9.036  0.00  0.00    +0.000 C 
BRANCH  11  13
ATOM     12  C   UNL     1      46.594   3.626   7.397  0.00  0.00    +0.000 C 
ATOM     13  N   UNL     1      45.941   2.342   7.673  0.00  0.00    +0.000 NA
ATOM     14  C   UNL     1      46.917   1.256   7.540  0.00  0.00    +0.000 C 
ENDBRANCH  11  13
ENDBRANCH  10  11
ENDBRANCH   8  10
ENDBRANCH   7   8
ENDBRANCH   1   7
BRANCH   4  15
ATOM     15  C   UNL     1      49.003   6.835  13.664  0.00  0.00    +0.000 C 
BRANCH  15  16
ATOM     16  N   UNL     1      48.793   7.573  14.906  0.00  0.00    +0.000 N 
ATOM     17  C   UNL     1      48.428   8.897  14.961  0.00  0.00    +0.000 A 
ATOM     18  C   UNL     1      48.204   9.224  16.278  0.00  0.00    +0.000 A 
ATOM     19  C   UNL     1      48.432   8.059  17.057  0.00  0.00    +0.000 A 
ATOM     20  C   UNL     1      48.343   7.776  18.427  0.00  0.00    +0.000 A 
ATOM     21  C   UNL     1      48.650   6.478  18.799  0.00  0.00    +0.000 A 
ATOM     22 CL   UNL     1      48.551   6.004  20.447  0.00  0.00    +0.000 Cl
ATOM     23  N   UNL     1      49.029   5.491  17.964  0.00  0.00    +0.000 NA
ATOM     24  C   UNL     1      49.118   5.760  16.644  0.00  0.00    +0.000 A 
ATOM     25  C   UNL     1      48.814   7.039  16.181  0.00  0.00    +0.000 A 
ENDBRANCH  15  16
ENDBRANCH   4  15
TORSDOF 7
ENDMDL
MODEL 8
REMARK VINA RESULT:    -4.911      3.442      8.219
REMARK INTER + INTRA:          -7.642
REMARK INTER:                  -6.836
REMARK INTRA:                  -0.805
REMARK UNBOUND:                -0.722
REMARK  Name = 
REMARK  9 active torsions:
REMARK  status: ('A' for Active; 'I' for Inactive)
REMARK    1  A    between atoms: C_1  and  N_2
REMARK    2  A    between atoms: N_2  and  C_3
REMARK    3  A    between atoms: N_2  and  C_4
REMARK    4  A    between atoms: C_4  and  C_5
REMARK    5  A    between atoms: C_5  and  N_6
REMARK    6  A    between atoms: N_6  and  C_7
REMARK    7  A    between atoms: C_7  and  C_8
REMARK    8  A    between atoms: C_11  and  C_12
REMARK    9  A    between atoms: C_12  and  N_13
REMARK                            x       y       z     vdW  Elec       q    Type
REMARK                         _______ _______ _______ _____ _____    ______ ____
ROOT
ATOM      1  C   UNL     1      46.290   7.000  12.244  0.00  0.00    +0.000 A 
ATOM      2  C   UNL     1      47.174   8.088  12.171  0.00  0.00    +0.000 A 
ATOM      3  C   UNL     1      48.282   8.157  13.015  0.00  0.00    +0.000 A 
ATOM      4  C   UNL     1      48.525   7.151  13.961  0.00  0.00    +0.000 A 
ATOM      5  C   UNL     1      47.624   6.077  14.047  0.00  0.00    +0.000 A 
ATOM      6  C   UNL     1      46.525   6.002  13.194  0.00  0.00    +0.000 A 
ENDROOT
BRANCH   1   7
ATOM      7  C   UNL     1      45.078   6.933  11.346  0.00  0.00    +0.000 C 
BRANCH   7   8
ATOM      8  N   UNL     1      45.380   6.295  10.062  0.00  0.00    +0.000 NA
ATOM      9  H   UNL     1      44.703   6.646   9.379  0.00  0.00    +0.000 HD
BRANCH   8  10
ATOM     10  C   UNL     1      45.187   4.840  10.128  0.00  0.00    +0.000 C 
BRANCH  10  11
ATOM     11  C   UNL     1      43.798   4.403  10.665  0.00  0.00    +0.000 C 
BRANCH  11  13
ATOM     12  C   UNL     1      43.095   4.419  12.990  0.00  0.00    +0.000 C 
ATOM     13  N   UNL     1      43.856   3.697  11.966  0.00  0.00    +0.000 NA
ATOM     14  C   UNL     1      43.315   2.343  11.814  0.00  0.00    +0.000 C 
ENDBRANCH  11  13
ENDBRANCH  10  11
ENDBRANCH   8  10
ENDBRANCH   7   8
ENDBRANCH   1   7
BRANCH   4  15
ATOM     15  C   UNL     1      49.726   7.211  14.864  0.00  0.00    +0.000 C 
BRANCH  15  16
ATOM     16  N   UNL     1      49.370   7.563  16.235  0.00  0.00    +0.000 N 
ATOM     17  C   UNL     1      48.947   8.813  16.622  0.00  0.00    +0.000 A 
ATOM     18  C   UNL     1      48.586   8.750  17.948  0.00  0.00    +0.000 A 
ATOM     19  C   UNL     1      48.788   7.414  18.387  0.00  0.00    +0.000 A 
ATOM     20  C   UNL     1      48.582   6.753  19.606  0.00  0.00    +0.000 A 
ATOM     21  C   UNL     1      48.906   5.407  19.627  0.00  0.00    +0.000 A 
ATOM     22 CL   UNL     1      48.671   4.484  21.057  0.00  0.00    +0.000 Cl
ATOM     23  N   UNL     1      49.402   4.703  18.591  0.00  0.00    +0.000 NA
ATOM     24  C   UNL     1      49.604   5.337  17.417  0.00  0.00    +0.000 A 
ATOM     25  C   UNL     1      49.292   6.690  17.303  0.00  0.00    +0.000 A 
ENDBRANCH  15  16
ENDBRANCH   4  15
TORSDOF 7
ENDMDL
MODEL 9
REMARK VINA RESULT:    -4.774      2.907      4.599
REMARK INTER + INTRA:          -7.450
REMARK INTER:                  -6.305
REMARK INTRA:                  -1.145
REMARK UNBOUND:                -0.722
REMARK  Name = 
REMARK  9 active torsions:
REMARK  status: ('A' for Active; 'I' for Inactive)
REMARK    1  A    between atoms: C_1  and  N_2
REMARK    2  A    between atoms: N_2  and  C_3
REMARK    3  A    between atoms: N_2  and  C_4
REMARK    4  A    between atoms: C_4  and  C_5
REMARK    5  A    between atoms: C_5  and  N_6
REMARK    6  A    between atoms: N_6  and  C_7
REMARK    7  A    between atoms: C_7  and  C_8
REMARK    8  A    between atoms: C_11  and  C_12
REMARK    9  A    between atoms: C_12  and  N_13
REMARK                            x       y       z     vdW  Elec       q    Type
REMARK                         _______ _______ _______ _____ _____    ______ ____
ROOT
ATOM      1  C   UNL     1      49.811   7.838  17.434  0.00  0.00    +0.000 A 
ATOM      2  C   UNL     1      48.652   8.502  16.999  0.00  0.00    +0.000 A 
ATOM      3  C   UNL     1      48.318   8.526  15.645  0.00  0.00    +0.000 A 
ATOM      4  C   UNL     1      49.137   7.904  14.693  0.00  0.00    +0.000 A 
ATOM      5  C   UNL     1      50.308   7.262  15.130  0.00  0.00    +0.000 A 
ATOM      6  C   UNL     1      50.635   7.226  16.484  0.00  0.00    +0.000 A 
ENDROOT
BRANCH   1   7
ATOM      7  C   UNL     1      50.188   7.828  18.895  0.00  0.00    +0.000 C 
BRANCH   7   8
ATOM      8  N   UNL     1      49.286   6.989  19.689  0.00  0.00    +0.000 NA
ATOM      9  H   UNL     1      49.343   7.310  20.659  0.00  0.00    +0.000 HD
BRANCH   8  10
ATOM     10  C   UNL     1      49.721   5.585  19.690  0.00  0.00    +0.000 C 
BRANCH  10  11
ATOM     11  C   UNL     1      48.703   4.600  19.058  0.00  0.00    +0.000 C 
BRANCH  11  13
ATOM     12  C   UNL     1      49.235   2.840  17.471  0.00  0.00    +0.000 C 
ATOM     13  N   UNL     1      48.988   4.275  17.641  0.00  0.00    +0.000 NA
ATOM     14  C   UNL     1      47.853   4.681  16.807  0.00  0.00    +0.000 C 
ENDBRANCH  11  13
ENDBRANCH  10  11
ENDBRANCH   8  10
ENDBRANCH   7   8
ENDBRANCH   1   7
BRANCH   4  15
ATOM     15  C   UNL     1      48.774   7.913  13.234  0.00  0.00    +0.000 C 
BRANCH  15  16
ATOM     16  N   UNL     1      47.332   7.827  13.024  0.00  0.00    +0.000 N 
ATOM     17  C   UNL     1      46.539   8.898  12.687  0.00  0.00    +0.000 A 
ATOM     18  C   UNL     1      45.267   8.431  12.453  0.00  0.00    +0.000 A 
ATOM     19  C   UNL     1      45.282   7.024  12.645  0.00  0.00    +0.000 A 
ATOM     20  C   UNL     1      44.310   6.020  12.532  0.00  0.00    +0.000 A 
ATOM     21  C   UNL     1      44.735   4.731  12.805  0.00  0.00    +0.000 A 
ATOM     22 CL   UNL     1      43.642   3.413  12.673  0.00  0.00    +0.000 Cl
ATOM     23  N   UNL     1      45.983   4.378  13.173  0.00  0.00    +0.000 NA
ATOM     24  C   UNL     1      46.920   5.343  13.286  0.00  0.00    +0.000 A 
ATOM     25  C   UNL     1      46.581   6.667  13.016  0.00  0.00    +0.000 A 
ENDBRANCH  15  16
ENDBRANCH   4  15
TORSDOF 7
ENDMDL
