MODEL 1
REMARK VINA RESULT:    -8.084      0.000      0.000
REMARK INTER + INTRA:         -12.968
REMARK INTER:                 -12.101
REMARK INTRA:                  -0.867
REMARK UNBOUND:                -0.867
REMARK  Name = 
REMARK  10 active torsions:
REMARK  status: ('A' for Active; 'I' for Inactive)
REMARK    1  A    between atoms: C_1  and  C_2
REMARK    2  A    between atoms: C_2  and  N_3
REMARK    3  A    between atoms: C_2  and  C_19
REMARK    4  A    between atoms: N_3  and  C_4
REMARK    5  A    between atoms: C_4  and  C_5
REMARK    6  A    between atoms: C_8  and  C_9
REMARK    7  A    between atoms: C_9  and  O_10
REMARK    8  A    between atoms: C_9  and  C_11
REMARK    9  A    between atoms: C_11  and  N_12
REMARK   10  A    between atoms: C_19  and  C_21
REMARK                            x       y       z     vdW  Elec       q    Type
REMARK                         _______ _______ _______ _____ _____    ______ ____
ROOT
ATOM      1  N   UNL     1      47.931   5.527  15.917  0.00  0.00    +0.000 NA
ATOM      2  H   UNL     1      48.009   4.558  15.598  0.00  0.00    +0.000 HD
ENDROOT
BRANCH   1   4
ATOM      3  C   UNL     1      48.627   7.004  17.748  0.00  0.00    +0.000 C 
ATOM      4  C   UNL     1      49.010   5.794  16.898  0.00  0.00    +0.000 C 
BRANCH   4   5
ATOM      5  C   UNL     1      49.268   4.550  17.789  0.00  0.00    +0.000 C 
ATOM      6  O   UNL     1      48.335   3.886  18.243  0.00  0.00    +0.000 OA
BRANCH   5   7
ATOM      7  C   UNL     1      50.664   4.193  18.085  0.00  0.00    +0.000 A 
ATOM      8  C   UNL     1      51.536   5.049  18.732  0.00  0.00    +0.000 A 
ATOM      9  S   UNL     1      53.033   4.322  19.109  0.00  0.00    +0.000 S 
ATOM     10  C   UNL     1      52.558   2.845  18.401  0.00  0.00    +0.000 A 
ATOM     11  N   UNL     1      53.365   1.758  18.451  0.00  0.00    +0.000 NA
ATOM     12  C   UNL     1      52.857   0.704  17.896  0.00  0.00    +0.000 A 
ATOM     13  N   UNL     1      51.645   0.659  17.259  0.00  0.00    +0.000 N 
ATOM     14  C   UNL     1      50.881   1.785  17.033  0.00  0.00    +0.000 A 
ATOM     15  O   UNL     1      50.000   1.807  16.185  0.00  0.00    +0.000 OA
ATOM     16  C   UNL     1      51.316   2.941  17.804  0.00  0.00    +0.000 A 
ATOM     17  H   UNL     1      51.371  -0.171  16.753  0.00  0.00    +0.000 HD
ENDBRANCH   5   7
ENDBRANCH   4   5
ENDBRANCH   1   4
BRANCH   1  18
ATOM     18  C   UNL     1      48.103   6.401  14.755  0.00  0.00    +0.000 C 
BRANCH  18  19
ATOM     19  C   UNL     1      47.208   6.021  13.611  0.00  0.00    +0.000 A 
ATOM     20  C   UNL     1      47.223   6.744  12.411  0.00  0.00    +0.000 A 
ATOM     21  C   UNL     1      46.439   6.331  11.332  0.00  0.00    +0.000 A 
ATOM     22  C   UNL     1      45.629   5.188  11.442  0.00  0.00    +0.000 A 
ATOM     23  C   UNL     1      45.626   4.467  12.647  0.00  0.00    +0.000 A 
ATOM     24  C   UNL     1      46.403   4.884  13.722  0.00  0.00    +0.000 A 
BRANCH  22  25
ATOM     25  C   UNL     1      44.763   4.762  10.279  0.00  0.00    +0.000 C 
BRANCH  25  26
ATOM     26  O   UNL     1      43.591   5.579  10.262  0.00  0.00    +0.000 OA
ATOM     27  H   UNL     1      42.824   4.986  10.236  0.00  0.00    +0.000 HD
ENDBRANCH  25  26
BRANCH  25  28
ATOM     28  C   UNL     1      45.555   4.845   8.939  0.00  0.00    +0.000 C 
BRANCH  28  29
ATOM     29  N   UNL     1      45.157   3.871   7.905  0.00  0.00    +0.000 NA
ATOM     30  C   UNL     1      44.684   2.591   8.451  0.00  0.00    +0.000 C 
ATOM     31  C   UNL     1      45.913   1.710   8.535  0.00  0.00    +0.000 C 
ATOM     32  C   UNL     1      46.735   2.129   7.334  0.00  0.00    +0.000 C 
ATOM     33  C   UNL     1      46.287   3.551   7.015  0.00  0.00    +0.000 C 
ENDBRANCH  28  29
ENDBRANCH  25  28
ENDBRANCH  22  25
ENDBRANCH  18  19
ENDBRANCH   1  18
TORSDOF 9
ENDMDL
MODEL 2
REMARK VINA RESULT:    -7.329      2.140      2.908
REMARK INTER + INTRA:         -11.838
REMARK INTER:                 -10.578
REMARK INTRA:                  -1.260
REMARK UNBOUND:                -0.867
REMARK  Name = 
REMARK  10 active torsions:
REMARK  status: ('A' for Active; 'I' for Inactive)
REMARK    1  A    between atoms: C_1  and  C_2
REMARK    2  A    between atoms: C_2  and  N_3
REMARK    3  A    between atoms: C_2  and  C_19
REMARK    4  A    between atoms: N_3  and  C_4
REMARK    5  A    between atoms: C_4  and  C_5
REMARK    6  A    between atoms: C_8  and  C_9
REMARK    7  A    between atoms: C_9  and  O_10
REMARK    8  A    between atoms: C_9  and  C_11
REMARK    9  A    between atoms: C_11  and  N_12
REMARK   10  A    between atoms: C_19  and  C_21
REMARK                            x       y       z     vdW  Elec       q    Type
REMARK                         _______ _______ _______ _____ _____    ______ ____
ROOT
ATOM      1  N   UNL     1      49.721   6.624  14.701  0.00  0.00    +0.000 NA
ATOM      2  H   UNL     1      50.549   6.555  14.104  0.00  0.00    +0.000 HD
ENDROOT
BRANCH   1   4
ATOM      3  C   UNL     1      50.067   8.732  15.907  0.00  0.00    +0.000 C 
ATOM      4  C   UNL     1      50.120   7.208  16.003  0.00  0.00    +0.000 C 
BRANCH   4   5
ATOM      5  C   UNL     1      49.204   6.694  17.145  0.00  0.00    +0.000 C 
ATOM      6  O   UNL     1      48.691   7.472  17.951  0.00  0.00    +0.000 OA
BRANCH   5   7
ATOM      7  C   UNL     1      48.975   5.245  17.244  0.00  0.00    +0.000 A 
ATOM      8  C   UNL     1      47.728   4.669  17.086  0.00  0.00    +0.000 A 
ATOM      9  S   UNL     1      47.774   2.963  17.069  0.00  0.00    +0.000 S 
ATOM     10  C   UNL     1      49.465   2.950  17.289  0.00  0.00    +0.000 A 
ATOM     11  N   UNL     1      50.158   1.786  17.287  0.00  0.00    +0.000 NA
ATOM     12  C   UNL     1      51.435   1.938  17.436  0.00  0.00    +0.000 A 
ATOM     13  N   UNL     1      52.066   3.138  17.634  0.00  0.00    +0.000 N 
ATOM     14  C   UNL     1      51.375   4.318  17.821  0.00  0.00    +0.000 A 
ATOM     15  O   UNL     1      51.900   5.298  18.332  0.00  0.00    +0.000 OA
ATOM     16  C   UNL     1      49.967   4.225  17.468  0.00  0.00    +0.000 A 
ATOM     17  H   UNL     1      53.050   3.162  17.856  0.00  0.00    +0.000 HD
ENDBRANCH   5   7
ENDBRANCH   4   5
ENDBRANCH   1   4
BRANCH   1  18
ATOM     18  C   UNL     1      48.761   7.513  14.043  0.00  0.00    +0.000 C 
BRANCH  18  19
ATOM     19  C   UNL     1      47.489   6.811  13.666  0.00  0.00    +0.000 A 
ATOM     20  C   UNL     1      47.298   5.455  13.959  0.00  0.00    +0.000 A 
ATOM     21  C   UNL     1      46.080   4.838  13.669  0.00  0.00    +0.000 A 
ATOM     22  C   UNL     1      45.037   5.572  13.080  0.00  0.00    +0.000 A 
ATOM     23  C   UNL     1      45.236   6.933  12.796  0.00  0.00    +0.000 A 
ATOM     24  C   UNL     1      46.452   7.544  13.081  0.00  0.00    +0.000 A 
BRANCH  22  25
ATOM     25  C   UNL     1      43.731   4.892  12.743  0.00  0.00    +0.000 C 
BRANCH  25  26
ATOM     26  O   UNL     1      42.656   5.725  13.183  0.00  0.00    +0.000 OA
ATOM     27  H   UNL     1      43.044   6.455  13.689  0.00  0.00    +0.000 HD
ENDBRANCH  25  26
BRANCH  25  28
ATOM     28  C   UNL     1      43.645   4.580  11.218  0.00  0.00    +0.000 C 
BRANCH  28  29
ATOM     29  N   UNL     1      44.875   4.036  10.611  0.00  0.00    +0.000 NA
ATOM     30  C   UNL     1      45.254   4.695   9.353  0.00  0.00    +0.000 C 
ATOM     31  C   UNL     1      44.586   3.888   8.259  0.00  0.00    +0.000 C 
ATOM     32  C   UNL     1      44.629   2.470   8.784  0.00  0.00    +0.000 C 
ATOM     33  C   UNL     1      44.723   2.604  10.300  0.00  0.00    +0.000 C 
ENDBRANCH  28  29
ENDBRANCH  25  28
ENDBRANCH  22  25
ENDBRANCH  18  19
ENDBRANCH   1  18
TORSDOF 9
ENDMDL
MODEL 3
REMARK VINA RESULT:    -7.129      3.183      3.974
REMARK INTER + INTRA:         -11.538
REMARK INTER:                  -9.520
REMARK INTRA:                  -2.018
REMARK UNBOUND:                -0.867
REMARK  Name = 
REMARK  10 active torsions:
REMARK  status: ('A' for Active; 'I' for Inactive)
REMARK    1  A    between atoms: C_1  and  C_2
REMARK    2  A    between atoms: C_2  and  N_3
REMARK    3  A    between atoms: C_2  and  C_19
REMARK    4  A    between atoms: N_3  and  C_4
REMARK    5  A    between atoms: C_4  and  C_5
REMARK    6  A    between atoms: C_8  and  C_9
REMARK    7  A    between atoms: C_9  and  O_10
REMARK    8  A    between atoms: C_9  and  C_11
REMARK    9  A    between atoms: C_11  and  N_12
REMARK   10  A    between atoms: C_19  and  C_21
REMARK                            x       y       z     vdW  Elec       q    Type
REMARK                         _______ _______ _______ _____ _____    ______ ____
ROOT
ATOM      1  N   UNL     1      50.141   7.205  13.927  0.00  0.00    +0.000 NA
ATOM      2  H   UNL     1      50.964   6.793  13.479  0.00  0.00    +0.000 HD
ENDROOT
BRANCH   1   4
ATOM      3  C   UNL     1      50.835   9.287  15.023  0.00  0.00    +0.000 C 
ATOM      4  C   UNL     1      50.551   7.799  15.222  0.00  0.00    +0.000 C 
BRANCH   4   5
ATOM      5  C   UNL     1      49.457   7.583  16.301  0.00  0.00    +0.000 C 
ATOM      6  O   UNL     1      48.558   8.409  16.471  0.00  0.00    +0.000 OA
BRANCH   5   7
ATOM      7  C   UNL     1      49.533   6.368  17.124  0.00  0.00    +0.000 A 
ATOM      8  C   UNL     1      50.402   6.238  18.192  0.00  0.00    +0.000 A 
ATOM      9  S   UNL     1      50.159   4.803  19.085  0.00  0.00    +0.000 S 
ATOM     10  C   UNL     1      48.894   4.310  18.053  0.00  0.00    +0.000 A 
ATOM     11  N   UNL     1      48.191   3.180  18.306  0.00  0.00    +0.000 NA
ATOM     12  C   UNL     1      47.244   2.951  17.452  0.00  0.00    +0.000 A 
ATOM     13  N   UNL     1      46.975   3.722  16.352  0.00  0.00    +0.000 N 
ATOM     14  C   UNL     1      47.782   4.773  15.966  0.00  0.00    +0.000 A 
ATOM     15  O   UNL     1      47.750   5.227  14.831  0.00  0.00    +0.000 OA
ATOM     16  C   UNL     1      48.729   5.181  16.993  0.00  0.00    +0.000 A 
ATOM     17  H   UNL     1      46.295   3.414  15.673  0.00  0.00    +0.000 HD
ENDBRANCH   5   7
ENDBRANCH   4   5
ENDBRANCH   1   4
BRANCH   1  18
ATOM     18  C   UNL     1      49.628   8.259  13.050  0.00  0.00    +0.000 C 
BRANCH  18  19
ATOM     19  C   UNL     1      48.201   8.028  12.643  0.00  0.00    +0.000 A 
ATOM     20  C   UNL     1      47.854   6.966  11.800  0.00  0.00    +0.000 A 
ATOM     21  C   UNL     1      46.514   6.720  11.494  0.00  0.00    +0.000 A 
ATOM     22  C   UNL     1      45.505   7.538  12.029  0.00  0.00    +0.000 A 
ATOM     23  C   UNL     1      45.863   8.596  12.880  0.00  0.00    +0.000 A 
ATOM     24  C   UNL     1      47.199   8.841  13.178  0.00  0.00    +0.000 A 
BRANCH  22  25
ATOM     25  C   UNL     1      44.059   7.284  11.672  0.00  0.00    +0.000 C 
BRANCH  25  26
ATOM     26  O   UNL     1      43.556   8.422  10.971  0.00  0.00    +0.000 OA
ATOM     27  H   UNL     1      44.090   9.187  11.237  0.00  0.00    +0.000 HD
ENDBRANCH  25  26
BRANCH  25  28
ATOM     28  C   UNL     1      43.916   5.972  10.841  0.00  0.00    +0.000 C 
BRANCH  28  29
ATOM     29  N   UNL     1      42.938   4.996  11.360  0.00  0.00    +0.000 NA
ATOM     30  C   UNL     1      42.803   5.017  12.823  0.00  0.00    +0.000 C 
ATOM     31  C   UNL     1      43.801   4.000  13.335  0.00  0.00    +0.000 C 
ATOM     32  C   UNL     1      43.794   2.924  12.271  0.00  0.00    +0.000 C 
ATOM     33  C   UNL     1      43.322   3.620  10.998  0.00  0.00    +0.000 C 
ENDBRANCH  28  29
ENDBRANCH  25  28
ENDBRANCH  22  25
ENDBRANCH  18  19
ENDBRANCH   1  18
TORSDOF 9
ENDMDL
MODEL 4
REMARK VINA RESULT:    -6.818      2.084      2.990
REMARK INTER + INTRA:         -11.073
REMARK INTER:                  -9.928
REMARK INTRA:                  -1.144
REMARK UNBOUND:                -0.867
REMARK  Name = 
REMARK  10 active torsions:
REMARK  status: ('A' for Active; 'I' for Inactive)
REMARK    1  A    between atoms: C_1  and  C_2
REMARK    2  A    between atoms: C_2  and  N_3
REMARK    3  A    between atoms: C_2  and  C_19
REMARK    4  A    between atoms: N_3  and  C_4
REMARK    5  A    between atoms: C_4  and  C_5
REMARK    6  A    between atoms: C_8  and  C_9
REMARK    7  A    between atoms: C_9  and  O_10
REMARK    8  A    between atoms: C_9  and  C_11
REMARK    9  A    between atoms: C_11  and  N_12
REMARK   10  A    between atoms: C_19  and  C_21
REMARK                            x       y       z     vdW  Elec       q    Type
REMARK                         _______ _______ _______ _____ _____    ______ ____
ROOT
ATOM      1  N   UNL     1      48.541   4.919  15.813  0.00  0.00    +0.000 NA
ATOM      2  H   UNL     1      49.555   4.902  15.948  0.00  0.00    +0.000 HD
ENDROOT
BRANCH   1   4
ATOM      3  C   UNL     1      47.324   3.684  17.548  0.00  0.00    +0.000 C 
ATOM      4  C   UNL     1      47.885   5.044  17.136  0.00  0.00    +0.000 C 
BRANCH   4   5
ATOM      5  C   UNL     1      48.882   5.577  18.199  0.00  0.00    +0.000 C 
ATOM      6  O   UNL     1      48.488   6.198  19.188  0.00  0.00    +0.000 OA
BRANCH   5   7
ATOM      7  C   UNL     1      50.315   5.329  17.983  0.00  0.00    +0.000 A 
ATOM      8  C   UNL     1      50.964   4.207  18.465  0.00  0.00    +0.000 A 
ATOM      9  S   UNL     1      52.576   4.078  17.920  0.00  0.00    +0.000 S 
ATOM     10  C   UNL     1      52.454   5.532  17.038  0.00  0.00    +0.000 A 
ATOM     11  N   UNL     1      53.479   5.967  16.267  0.00  0.00    +0.000 NA
ATOM     12  C   UNL     1      53.228   7.070  15.636  0.00  0.00    +0.000 A 
ATOM     13  N   UNL     1      52.069   7.792  15.747  0.00  0.00    +0.000 N 
ATOM     14  C   UNL     1      51.081   7.475  16.656  0.00  0.00    +0.000 A 
ATOM     15  O   UNL     1      50.234   8.290  16.997  0.00  0.00    +0.000 OA
ATOM     16  C   UNL     1      51.234   6.150  17.237  0.00  0.00    +0.000 A 
ATOM     17  H   UNL     1      51.995   8.699  15.311  0.00  0.00    +0.000 HD
ENDBRANCH   5   7
ENDBRANCH   4   5
ENDBRANCH   1   4
BRANCH   1  18
ATOM     18  C   UNL     1      48.213   6.089  14.995  0.00  0.00    +0.000 C 
BRANCH  18  19
ATOM     19  C   UNL     1      47.366   5.742  13.805  0.00  0.00    +0.000 A 
ATOM     20  C   UNL     1      46.625   4.555  13.767  0.00  0.00    +0.000 A 
ATOM     21  C   UNL     1      45.784   4.285  12.686  0.00  0.00    +0.000 A 
ATOM     22  C   UNL     1      45.677   5.201  11.627  0.00  0.00    +0.000 A 
ATOM     23  C   UNL     1      46.420   6.392  11.677  0.00  0.00    +0.000 A 
ATOM     24  C   UNL     1      47.260   6.655  12.753  0.00  0.00    +0.000 A 
BRANCH  22  25
ATOM     25  C   UNL     1      44.786   4.890  10.446  0.00  0.00    +0.000 C 
BRANCH  25  26
ATOM     26  O   UNL     1      43.680   5.794  10.460  0.00  0.00    +0.000 OA
ATOM     27  H   UNL     1      43.685   6.247  11.317  0.00  0.00    +0.000 HD
ENDBRANCH  25  26
BRANCH  25  28
ATOM     28  C   UNL     1      45.589   4.966   9.112  0.00  0.00    +0.000 C 
BRANCH  28  29
ATOM     29  N   UNL     1      45.152   4.034   8.054  0.00  0.00    +0.000 NA
ATOM     30  C   UNL     1      44.577   2.784   8.571  0.00  0.00    +0.000 C 
ATOM     31  C   UNL     1      45.739   1.818   8.675  0.00  0.00    +0.000 C 
ATOM     32  C   UNL     1      46.620   2.193   7.502  0.00  0.00    +0.000 C 
ATOM     33  C   UNL     1      46.281   3.646   7.191  0.00  0.00    +0.000 C 
ENDBRANCH  28  29
ENDBRANCH  25  28
ENDBRANCH  22  25
ENDBRANCH  18  19
ENDBRANCH   1  18
TORSDOF 9
ENDMDL
MODEL 5
REMARK VINA RESULT:    -6.510      3.279      9.878
REMARK INTER + INTRA:         -10.612
REMARK INTER:                  -9.695
REMARK INTRA:                  -0.917
REMARK UNBOUND:                -0.867
REMARK  Name = 
REMARK  10 active torsions:
REMARK  status: ('A' for Active; 'I' for Inactive)
REMARK    1  A    between atoms: C_1  and  C_2
REMARK    2  A    between atoms: C_2  and  N_3
REMARK    3  A    between atoms: C_2  and  C_19
REMARK    4  A    between atoms: N_3  and  C_4
REMARK    5  A    between atoms: C_4  and  C_5
REMARK    6  A    between atoms: C_8  and  C_9
REMARK    7  A    between atoms: C_9  and  O_10
REMARK    8  A    between atoms: C_9  and  C_11
REMARK    9  A    between atoms: C_11  and  N_12
REMARK   10  A    between atoms: C_19  and  C_21
REMARK                            x       y       z     vdW  Elec       q    Type
REMARK                         _______ _______ _______ _____ _____    ______ ____
ROOT
ATOM      1  N   UNL     1      45.558   6.016  13.554  0.00  0.00    +0.000 NA
ATOM      2  H   UNL     1      45.259   6.325  14.483  0.00  0.00    +0.000 HD
ENDROOT
BRANCH   1   4
ATOM      3  C   UNL     1      46.370   7.520  11.795  0.00  0.00    +0.000 C 
ATOM      4  C   UNL     1      45.140   7.029  12.557  0.00  0.00    +0.000 C 
BRANCH   4   5
ATOM      5  C   UNL     1      44.083   6.444  11.583  0.00  0.00    +0.000 C 
ATOM      6  O   UNL     1      43.284   7.176  10.995  0.00  0.00    +0.000 OA
BRANCH   5   7
ATOM      7  C   UNL     1      44.055   4.987  11.392  0.00  0.00    +0.000 A 
ATOM      8  C   UNL     1      43.473   4.122  12.300  0.00  0.00    +0.000 A 
ATOM      9  S   UNL     1      43.420   2.507  11.750  0.00  0.00    +0.000 S 
ATOM     10  C   UNL     1      44.192   2.921  10.287  0.00  0.00    +0.000 A 
ATOM     11  N   UNL     1      44.386   1.996   9.316  0.00  0.00    +0.000 NA
ATOM     12  C   UNL     1      44.958   2.466   8.253  0.00  0.00    +0.000 A 
ATOM     13  N   UNL     1      45.391   3.757   8.099  0.00  0.00    +0.000 N 
ATOM     14  C   UNL     1      45.372   4.675   9.130  0.00  0.00    +0.000 A 
ATOM     15  O   UNL     1      46.059   5.687   9.104  0.00  0.00    +0.000 OA
ATOM     16  C   UNL     1      44.567   4.251  10.265  0.00  0.00    +0.000 A 
ATOM     17  H   UNL     1      45.930   4.016   7.286  0.00  0.00    +0.000 HD
ENDBRANCH   5   7
ENDBRANCH   4   5
ENDBRANCH   1   4
BRANCH   1  18
ATOM     18  C   UNL     1      47.019   5.913  13.560  0.00  0.00    +0.000 C 
BRANCH  18  19
ATOM     19  C   UNL     1      47.558   5.421  14.872  0.00  0.00    +0.000 A 
ATOM     20  C   UNL     1      47.185   4.172  15.383  0.00  0.00    +0.000 A 
ATOM     21  C   UNL     1      47.754   3.699  16.567  0.00  0.00    +0.000 A 
ATOM     22  C   UNL     1      48.703   4.473  17.255  0.00  0.00    +0.000 A 
ATOM     23  C   UNL     1      49.075   5.721  16.731  0.00  0.00    +0.000 A 
ATOM     24  C   UNL     1      48.502   6.192  15.555  0.00  0.00    +0.000 A 
BRANCH  22  25
ATOM     25  C   UNL     1      49.294   3.966  18.550  0.00  0.00    +0.000 C 
BRANCH  25  26
ATOM     26  O   UNL     1      50.039   2.778  18.277  0.00  0.00    +0.000 OA
ATOM     27  H   UNL     1      50.285   2.798  17.339  0.00  0.00    +0.000 HD
ENDBRANCH  25  26
BRANCH  25  28
ATOM     28  C   UNL     1      50.170   5.065  19.226  0.00  0.00    +0.000 C 
BRANCH  28  29
ATOM     29  N   UNL     1      49.830   5.375  20.628  0.00  0.00    +0.000 NA
ATOM     30  C   UNL     1      48.385   5.371  20.899  0.00  0.00    +0.000 C 
ATOM     31  C   UNL     1      47.930   6.799  20.675  0.00  0.00    +0.000 C 
ATOM     32  C   UNL     1      49.109   7.627  21.139  0.00  0.00    +0.000 C 
ATOM     33  C   UNL     1      50.321   6.710  21.010  0.00  0.00    +0.000 C 
ENDBRANCH  28  29
ENDBRANCH  25  28
ENDBRANCH  22  25
ENDBRANCH  18  19
ENDBRANCH   1  18
TORSDOF 9
ENDMDL
MODEL 6
REMARK VINA RESULT:    -6.504      2.298      2.814
REMARK INTER + INTRA:         -10.603
REMARK INTER:                  -9.527
REMARK INTRA:                  -1.076
REMARK UNBOUND:                -0.867
REMARK  Name = 
REMARK  10 active torsions:
REMARK  status: ('A' for Active; 'I' for Inactive)
REMARK    1  A    between atoms: C_1  and  C_2
REMARK    2  A    between atoms: C_2  and  N_3
REMARK    3  A    between atoms: C_2  and  C_19
REMARK    4  A    between atoms: N_3  and  C_4
REMARK    5  A    between atoms: C_4  and  C_5
REMARK    6  A    between atoms: C_8  and  C_9
REMARK    7  A    between atoms: C_9  and  O_10
REMARK    8  A    between atoms: C_9  and  C_11
REMARK    9  A    between atoms: C_11  and  N_12
REMARK   10  A    between atoms: C_19  and  C_21
REMARK                            x       y       z     vdW  Elec       q    Type
REMARK                         _______ _______ _______ _____ _____    ______ ____
ROOT
ATOM      1  N   UNL     1      49.253   7.026  13.824  0.00  0.00    +0.000 NA
ATOM      2  H   UNL     1      49.398   6.624  12.895  0.00  0.00    +0.000 HD
ENDROOT
BRANCH   1   4
ATOM      3  C   UNL     1      49.721   9.424  13.608  0.00  0.00    +0.000 C 
ATOM      4  C   UNL     1      50.276   8.072  14.056  0.00  0.00    +0.000 C 
BRANCH   4   5
ATOM      5  C   UNL     1      50.697   8.114  15.549  0.00  0.00    +0.000 C 
ATOM      6  O   UNL     1      50.253   8.973  16.313  0.00  0.00    +0.000 OA
BRANCH   5   7
ATOM      7  C   UNL     1      51.654   7.103  16.022  0.00  0.00    +0.000 A 
ATOM      8  C   UNL     1      53.022   7.238  15.876  0.00  0.00    +0.000 A 
ATOM      9  S   UNL     1      53.906   6.013  16.672  0.00  0.00    +0.000 S 
ATOM     10  C   UNL     1      52.477   5.260  17.220  0.00  0.00    +0.000 A 
ATOM     11  N   UNL     1      52.529   4.180  18.035  0.00  0.00    +0.000 NA
ATOM     12  C   UNL     1      51.364   3.736  18.390  0.00  0.00    +0.000 A 
ATOM     13  N   UNL     1      50.166   4.247  17.965  0.00  0.00    +0.000 N 
ATOM     14  C   UNL     1      50.078   5.228  16.998  0.00  0.00    +0.000 A 
ATOM     15  O   UNL     1      49.042   5.431  16.379  0.00  0.00    +0.000 OA
ATOM     16  C   UNL     1      51.348   5.882  16.721  0.00  0.00    +0.000 A 
ATOM     17  H   UNL     1      49.305   3.775  18.196  0.00  0.00    +0.000 HD
ENDBRANCH   5   7
ENDBRANCH   4   5
ENDBRANCH   1   4
BRANCH   1  18
ATOM     18  C   UNL     1      47.921   7.633  13.852  0.00  0.00    +0.000 C 
BRANCH  18  19
ATOM     19  C   UNL     1      46.895   6.808  13.128  0.00  0.00    +0.000 A 
ATOM     20  C   UNL     1      46.294   7.272  11.952  0.00  0.00    +0.000 A 
ATOM     21  C   UNL     1      45.400   6.460  11.253  0.00  0.00    +0.000 A 
ATOM     22  C   UNL     1      45.096   5.172  11.724  0.00  0.00    +0.000 A 
ATOM     23  C   UNL     1      45.709   4.714  12.901  0.00  0.00    +0.000 A 
ATOM     24  C   UNL     1      46.595   5.527  13.598  0.00  0.00    +0.000 A 
BRANCH  22  25
ATOM     25  C   UNL     1      44.106   4.309  10.976  0.00  0.00    +0.000 C 
BRANCH  25  26
ATOM     26  O   UNL     1      43.479   5.104   9.968  0.00  0.00    +0.000 OA
ATOM     27  H   UNL     1      44.123   5.227   9.253  0.00  0.00    +0.000 HD
ENDBRANCH  25  26
BRANCH  25  28
ATOM     28  C   UNL     1      44.808   3.051  10.380  0.00  0.00    +0.000 C 
BRANCH  28  29
ATOM     29  N   UNL     1      44.545   2.796   8.950  0.00  0.00    +0.000 NA
ATOM     30  C   UNL     1      44.840   1.418   8.534  0.00  0.00    +0.000 C 
ATOM     31  C   UNL     1      46.281   1.437   8.067  0.00  0.00    +0.000 C 
ATOM     32  C   UNL     1      46.435   2.806   7.440  0.00  0.00    +0.000 C 
ATOM     33  C   UNL     1      45.365   3.673   8.096  0.00  0.00    +0.000 C 
ENDBRANCH  28  29
ENDBRANCH  25  28
ENDBRANCH  22  25
ENDBRANCH  18  19
ENDBRANCH   1  18
TORSDOF 9
ENDMDL
MODEL 7
REMARK VINA RESULT:    -6.200      2.823      4.059
REMARK INTER + INTRA:         -10.147
REMARK INTER:                  -8.296
REMARK INTRA:                  -1.851
REMARK UNBOUND:                -0.867
REMARK  Name = 
REMARK  10 active torsions:
REMARK  status: ('A' for Active; 'I' for Inactive)
REMARK    1  A    between atoms: C_1  and  C_2
REMARK    2  A    between atoms: C_2  and  N_3
REMARK    3  A    between atoms: C_2  and  C_19
REMARK    4  A    between atoms: N_3  and  C_4
REMARK    5  A    between atoms: C_4  and  C_5
REMARK    6  A    between atoms: C_8  and  C_9
REMARK    7  A    between atoms: C_9  and  O_10
REMARK    8  A    between atoms: C_9  and  C_11
REMARK    9  A    between atoms: C_11  and  N_12
REMARK   10  A    between atoms: C_19  and  C_21
REMARK                            x       y       z     vdW  Elec       q    Type
REMARK                         _______ _______ _______ _____ _____    ______ ____
ROOT
ATOM      1  N   UNL     1      48.584   7.587  18.570  0.00  0.00    +0.000 NA
ATOM      2  H   UNL     1      48.065   6.763  18.256  0.00  0.00    +0.000 HD
ENDROOT
BRANCH   1   4
ATOM      3  C   UNL     1      48.834   8.013  20.973  0.00  0.00    +0.000 C 
ATOM      4  C   UNL     1      49.366   7.226  19.776  0.00  0.00    +0.000 C 
BRANCH   4   5
ATOM      5  C   UNL     1      49.299   5.699  20.043  0.00  0.00    +0.000 C 
ATOM      6  O   UNL     1      48.774   5.253  21.065  0.00  0.00    +0.000 OA
BRANCH   5   7
ATOM      7  C   UNL     1      49.891   4.799  19.043  0.00  0.00    +0.000 A 
ATOM      8  C   UNL     1      51.251   4.560  18.961  0.00  0.00    +0.000 A 
ATOM      9  S   UNL     1      51.651   3.341  17.834  0.00  0.00    +0.000 S 
ATOM     10  C   UNL     1      50.014   3.113  17.416  0.00  0.00    +0.000 A 
ATOM     11  N   UNL     1      49.648   2.144  16.543  0.00  0.00    +0.000 NA
ATOM     12  C   UNL     1      48.370   2.073  16.346  0.00  0.00    +0.000 A 
ATOM     13  N   UNL     1      47.441   2.912  16.905  0.00  0.00    +0.000 N 
ATOM     14  C   UNL     1      47.793   4.017  17.652  0.00  0.00    +0.000 A 
ATOM     15  O   UNL     1      47.011   4.936  17.849  0.00  0.00    +0.000 OA
ATOM     16  C   UNL     1      49.191   4.019  18.056  0.00  0.00    +0.000 A 
ATOM     17  H   UNL     1      46.476   2.864  16.612  0.00  0.00    +0.000 HD
ENDBRANCH   5   7
ENDBRANCH   4   5
ENDBRANCH   1   4
BRANCH   1  18
ATOM     18  C   UNL     1      49.499   7.982  17.497  0.00  0.00    +0.000 C 
BRANCH  18  19
ATOM     19  C   UNL     1      48.865   7.897  16.138  0.00  0.00    +0.000 A 
ATOM     20  C   UNL     1      48.804   6.682  15.445  0.00  0.00    +0.000 A 
ATOM     21  C   UNL     1      48.144   6.607  14.217  0.00  0.00    +0.000 A 
ATOM     22  C   UNL     1      47.538   7.749  13.667  0.00  0.00    +0.000 A 
ATOM     23  C   UNL     1      47.600   8.961  14.374  0.00  0.00    +0.000 A 
ATOM     24  C   UNL     1      48.262   9.034  15.594  0.00  0.00    +0.000 A 
BRANCH  22  25
ATOM     25  C   UNL     1      46.849   7.667  12.325  0.00  0.00    +0.000 C 
BRANCH  25  26
ATOM     26  O   UNL     1      47.672   6.908  11.437  0.00  0.00    +0.000 OA
ATOM     27  H   UNL     1      47.299   6.999  10.546  0.00  0.00    +0.000 HD
ENDBRANCH  25  26
BRANCH  25  28
ATOM     28  C   UNL     1      45.423   7.053  12.471  0.00  0.00    +0.000 C 
BRANCH  28  29
ATOM     29  N   UNL     1      45.304   5.630  12.100  0.00  0.00    +0.000 NA
ATOM     30  C   UNL     1      44.378   5.387  10.984  0.00  0.00    +0.000 C 
ATOM     31  C   UNL     1      43.030   5.135  11.626  0.00  0.00    +0.000 C 
ATOM     32  C   UNL     1      43.376   4.415  12.912  0.00  0.00    +0.000 C 
ATOM     33  C   UNL     1      44.808   4.828  13.232  0.00  0.00    +0.000 C 
ENDBRANCH  28  29
ENDBRANCH  25  28
ENDBRANCH  22  25
ENDBRANCH  18  19
ENDBRANCH   1  18
TORSDOF 9
ENDMDL
MODEL 8
REMARK VINA RESULT:    -6.182      5.922      7.680
REMARK INTER + INTRA:         -10.121
REMARK INTER:                  -8.797
REMARK INTRA:                  -1.323
REMARK UNBOUND:                -0.867
REMARK  Name = 
REMARK  10 active torsions:
REMARK  status: ('A' for Active; 'I' for Inactive)
REMARK    1  A    between atoms: C_1  and  C_2
REMARK    2  A    between atoms: C_2  and  N_3
REMARK    3  A    between atoms: C_2  and  C_19
REMARK    4  A    between atoms: N_3  and  C_4
REMARK    5  A    between atoms: C_4  and  C_5
REMARK    6  A    between atoms: C_8  and  C_9
REMARK    7  A    between atoms: C_9  and  O_10
REMARK    8  A    between atoms: C_9  and  C_11
REMARK    9  A    between atoms: C_11  and  N_12
REMARK   10  A    between atoms: C_19  and  C_21
REMARK                            x       y       z     vdW  Elec       q    Type
REMARK                         _______ _______ _______ _____ _____    ______ ____
ROOT
ATOM      1  N   UNL     1      51.736   8.001  11.737  0.00  0.00    +0.000 NA
ATOM      2  H   UNL     1      51.181   7.386  11.136  0.00  0.00    +0.000 HD
ENDROOT
BRANCH   1   4
ATOM      3  C   UNL     1      52.380  10.361  11.920  0.00  0.00    +0.000 C 
ATOM      4  C   UNL     1      52.128   9.200  10.959  0.00  0.00    +0.000 C 
BRANCH   4   5
ATOM      5  C   UNL     1      53.384   8.913  10.095  0.00  0.00    +0.000 C 
ATOM      6  O   UNL     1      54.519   9.111  10.534  0.00  0.00    +0.000 OA
BRANCH   5   7
ATOM      7  C   UNL     1      53.180   8.408   8.729  0.00  0.00    +0.000 A 
ATOM      8  C   UNL     1      52.876   9.232   7.662  0.00  0.00    +0.000 A 
ATOM      9  S   UNL     1      52.870   8.415   6.163  0.00  0.00    +0.000 S 
ATOM     10  C   UNL     1      53.258   6.931   6.907  0.00  0.00    +0.000 A 
ATOM     11  N   UNL     1      53.478   5.818   6.167  0.00  0.00    +0.000 NA
ATOM     12  C   UNL     1      53.791   4.776   6.869  0.00  0.00    +0.000 A 
ATOM     13  N   UNL     1      53.855   4.742   8.238  0.00  0.00    +0.000 N 
ATOM     14  C   UNL     1      53.463   5.804   9.027  0.00  0.00    +0.000 A 
ATOM     15  O   UNL     1      53.191   5.661  10.211  0.00  0.00    +0.000 OA
ATOM     16  C   UNL     1      53.296   7.043   8.284  0.00  0.00    +0.000 A 
ATOM     17  H   UNL     1      53.994   3.863   8.715  0.00  0.00    +0.000 HD
ENDBRANCH   5   7
ENDBRANCH   4   5
ENDBRANCH   1   4
BRANCH   1  18
ATOM     18  C   UNL     1      50.897   8.407  12.866  0.00  0.00    +0.000 C 
BRANCH  18  19
ATOM     19  C   UNL     1      49.583   7.682  12.899  0.00  0.00    +0.000 A 
ATOM     20  C   UNL     1      49.130   7.058  14.068  0.00  0.00    +0.000 A 
ATOM     21  C   UNL     1      47.873   6.454  14.101  0.00  0.00    +0.000 A 
ATOM     22  C   UNL     1      47.052   6.465  12.961  0.00  0.00    +0.000 A 
ATOM     23  C   UNL     1      47.512   7.099  11.795  0.00  0.00    +0.000 A 
ATOM     24  C   UNL     1      48.767   7.695  11.764  0.00  0.00    +0.000 A 
BRANCH  22  25
ATOM     25  C   UNL     1      45.703   5.785  12.995  0.00  0.00    +0.000 C 
BRANCH  25  26
ATOM     26  O   UNL     1      44.691   6.770  12.780  0.00  0.00    +0.000 OA
ATOM     27  H   UNL     1      44.853   7.495  13.404  0.00  0.00    +0.000 HD
ENDBRANCH  25  26
BRANCH  25  28
ATOM     28  C   UNL     1      45.635   4.635  11.945  0.00  0.00    +0.000 C 
BRANCH  28  29
ATOM     29  N   UNL     1      44.685   4.845  10.835  0.00  0.00    +0.000 NA
ATOM     30  C   UNL     1      43.793   3.701  10.599  0.00  0.00    +0.000 C 
ATOM     31  C   UNL     1      44.504   2.840   9.575  0.00  0.00    +0.000 C 
ATOM     32  C   UNL     1      45.217   3.846   8.697  0.00  0.00    +0.000 C 
ATOM     33  C   UNL     1      45.397   5.085   9.567  0.00  0.00    +0.000 C 
ENDBRANCH  28  29
ENDBRANCH  25  28
ENDBRANCH  22  25
ENDBRANCH  18  19
ENDBRANCH   1  18
TORSDOF 9
ENDMDL
MODEL 9
REMARK VINA RESULT:    -6.118      3.816      4.812
REMARK INTER + INTRA:         -10.024
REMARK INTER:                  -8.686
REMARK INTRA:                  -1.338
REMARK UNBOUND:                -0.867
REMARK  Name = 
REMARK  10 active torsions:
REMARK  status: ('A' for Active; 'I' for Inactive)
REMARK    1  A    between atoms: C_1  and  C_2
REMARK    2  A    between atoms: C_2  and  N_3
REMARK    3  A    between atoms: C_2  and  C_19
REMARK    4  A    between atoms: N_3  and  C_4
REMARK    5  A    between atoms: C_4  and  C_5
REMARK    6  A    between atoms: C_8  and  C_9
REMARK    7  A    between atoms: C_9  and  O_10
REMARK    8  A    between atoms: C_9  and  C_11
REMARK    9  A    between atoms: C_11  and  N_12
REMARK   10  A    between atoms: C_19  and  C_21
REMARK                            x       y       z     vdW  Elec       q    Type
REMARK                         _______ _______ _______ _____ _____    ______ ____
ROOT
ATOM      1  N   UNL     1      49.576   8.473  12.442  0.00  0.00    +0.000 NA
ATOM      2  H   UNL     1      49.757   8.200  11.472  0.00  0.00    +0.000 HD
ENDROOT
BRANCH   1   4
ATOM      3  C   UNL     1      49.812  10.708  13.424  0.00  0.00    +0.000 C 
ATOM      4  C   UNL     1      50.557   9.511  12.836  0.00  0.00    +0.000 C 
BRANCH   4   5
ATOM      5  C   UNL     1      51.584   8.945  13.852  0.00  0.00    +0.000 C 
ATOM      6  O   UNL     1      52.578   8.322  13.473  0.00  0.00    +0.000 OA
BRANCH   5   7
ATOM      7  C   UNL     1      51.329   9.164  15.283  0.00  0.00    +0.000 A 
ATOM      8  C   UNL     1      52.025  10.091  16.036  0.00  0.00    +0.000 A 
ATOM      9  S   UNL     1      51.409  10.270  17.618  0.00  0.00    +0.000 S 
ATOM     10  C   UNL     1      50.202   9.098  17.340  0.00  0.00    +0.000 A 
ATOM     11  N   UNL     1      49.271   8.821  18.284  0.00  0.00    +0.000 NA
ATOM     12  C   UNL     1      48.405   7.930  17.919  0.00  0.00    +0.000 A 
ATOM     13  N   UNL     1      48.420   7.265  16.721  0.00  0.00    +0.000 N 
ATOM     14  C   UNL     1      49.452   7.390  15.814  0.00  0.00    +0.000 A 
ATOM     15  O   UNL     1      49.642   6.561  14.935  0.00  0.00    +0.000 OA
ATOM     16  C   UNL     1      50.333   8.514  16.095  0.00  0.00    +0.000 A 
ATOM     17  H   UNL     1      47.777   6.504  16.558  0.00  0.00    +0.000 HD
ENDBRANCH   5   7
ENDBRANCH   4   5
ENDBRANCH   1   4
BRANCH   1  18
ATOM     18  C   UNL     1      48.224   9.031  12.509  0.00  0.00    +0.000 C 
BRANCH  18  19
ATOM     19  C   UNL     1      47.165   8.020  12.173  0.00  0.00    +0.000 A 
ATOM     20  C   UNL     1      47.460   6.652  12.129  0.00  0.00    +0.000 A 
ATOM     21  C   UNL     1      46.448   5.722  11.889  0.00  0.00    +0.000 A 
ATOM     22  C   UNL     1      45.125   6.151  11.689  0.00  0.00    +0.000 A 
ATOM     23  C   UNL     1      44.838   7.525  11.742  0.00  0.00    +0.000 A 
ATOM     24  C   UNL     1      45.850   8.450  11.975  0.00  0.00    +0.000 A 
BRANCH  22  25
ATOM     25  C   UNL     1      44.039   5.141  11.404  0.00  0.00    +0.000 C 
BRANCH  25  26
ATOM     26  O   UNL     1      43.095   5.729  10.505  0.00  0.00    +0.000 OA
ATOM     27  H   UNL     1      43.593   6.081   9.751  0.00  0.00    +0.000 HD
ENDBRANCH  25  26
BRANCH  25  28
ATOM     28  C   UNL     1      44.645   3.821  10.837  0.00  0.00    +0.000 C 
BRANCH  28  29
ATOM     29  N   UNL     1      44.280   3.502   9.443  0.00  0.00    +0.000 NA
ATOM     30  C   UNL     1      44.441   2.082   9.102  0.00  0.00    +0.000 C 
ATOM     31  C   UNL     1      45.850   1.954   8.560  0.00  0.00    +0.000 C 
ATOM     32  C   UNL     1      46.075   3.265   7.838  0.00  0.00    +0.000 C 
ATOM     33  C   UNL     1      45.117   4.255   8.492  0.00  0.00    +0.000 C 
ENDBRANCH  28  29
ENDBRANCH  25  28
ENDBRANCH  22  25
ENDBRANCH  18  19
ENDBRANCH   1  18
TORSDOF 9
ENDMDL
