MODEL 1
REMARK VINA RESULT:    -9.653      0.000      0.000
REMARK INTER + INTRA:         -13.914
REMARK INTER:                 -13.039
REMARK INTRA:                  -0.875
REMARK UNBOUND:                -0.875
REMARK  Name = 
REMARK  6 active torsions:
REMARK  status: ('A' for Active; 'I' for Inactive)
REMARK    1  A    between atoms: C_2  and  C_20
REMARK    2  A    between atoms: N_3  and  C_4
REMARK    3  A    between atoms: C_4  and  C_5
REMARK    4  A    between atoms: C_8  and  C_9
REMARK    5  A    between atoms: C_9  and  N_10
REMARK    6  A    between atoms: C_11  and  C_13
REMARK                            x       y       z     vdW  Elec       q    Type
REMARK                         _______ _______ _______ _____ _____    ______ ____
ROOT
ATOM      1  C   UNL     1      45.976   4.391  14.660  0.00  0.00    +0.000 C 
ENDROOT
BRANCH   1   2
ATOM      2  C   UNL     1      46.116   4.864  13.203  0.00  0.00    +0.000 C 
ATOM      3  C   UNL     1      45.966   3.701  12.199  0.00  0.00    +0.000 C 
ATOM      4  C   UNL     1      44.524   3.196  12.051  0.00  0.00    +0.000 C 
ATOM      5  C   UNL     1      43.510   4.325  11.780  0.00  0.00    +0.000 C 
ATOM      6  C   UNL     1      43.663   5.398  12.874  0.00  0.00    +0.000 C 
ATOM      7  C   UNL     1      45.083   5.964  12.914  0.00  0.00    +0.000 C 
BRANCH   5   8
ATOM      8  C   UNL     1      43.671   4.886  10.349  0.00  0.00    +0.000 C 
BRANCH   8   9
ATOM      9  N   UNL     1      44.163   3.903   9.396  0.00  0.00    +0.000 N 
ATOM     10  C   UNL     1      45.273   4.150   8.620  0.00  0.00    +0.000 C 
ATOM     11  O   UNL     1      45.892   5.214   8.659  0.00  0.00    +0.000 OA
ATOM     12  H   UNL     1      43.648   3.045   9.246  0.00  0.00    +0.000 HD
BRANCH  10  13
ATOM     13  C   UNL     1      45.636   3.010   7.684  0.00  0.00    +0.000 C 
ATOM     14  C   UNL     1      45.996   1.728   8.430  0.00  0.00    +0.000 C 
ATOM     15  C   UNL     1      46.858   0.928   7.459  0.00  0.00    +0.000 C 
ATOM     16  C   UNL     1      47.351   1.916   6.405  0.00  0.00    +0.000 C 
ATOM     17  C   UNL     1      46.898   3.291   6.873  0.00  0.00    +0.000 C 
ENDBRANCH  10  13
ENDBRANCH   8   9
ENDBRANCH   5   8
ENDBRANCH   1   2
BRANCH   1  20
ATOM     18  O   UNL     1      46.498   3.286  17.149  0.00  0.00    +0.000 OA
ATOM     19  C   UNL     1      47.350   4.006  16.634  0.00  0.00    +0.000 C 
ATOM     20  N   UNL     1      47.169   4.631  15.421  0.00  0.00    +0.000 N 
ATOM     21  H   UNL     1      47.956   5.044  14.942  0.00  0.00    +0.000 HD
BRANCH  19  22
ATOM     22  C   UNL     1      48.625   4.279  17.280  0.00  0.00    +0.000 A 
ATOM     23  C   UNL     1      48.867   5.455  17.973  0.00  0.00    +0.000 A 
ATOM     24  S   UNL     1      50.431   5.499  18.671  0.00  0.00    +0.000 S 
ATOM     25  C   UNL     1      50.806   3.951  18.075  0.00  0.00    +0.000 A 
ATOM     26  N   UNL     1      52.004   3.361  18.313  0.00  0.00    +0.000 NA
ATOM     27  C   UNL     1      52.128   2.175  17.809  0.00  0.00    +0.000 A 
ATOM     28  N   UNL     1      51.160   1.526  17.086  0.00  0.00    +0.000 N 
ATOM     29  C   UNL     1      49.971   2.096  16.764  0.00  0.00    +0.000 A 
ATOM     30  O   UNL     1      49.193   1.529  15.977  0.00  0.00    +0.000 OA
ATOM     31  C   UNL     1      49.766   3.413  17.334  0.00  0.00    +0.000 A 
ATOM     32  H   UNL     1      51.344   0.615  16.687  0.00  0.00    +0.000 HD
ENDBRANCH  19  22
ENDBRANCH   1  20
TORSDOF 6
ENDMDL
MODEL 2
REMARK VINA RESULT:    -8.312      2.263      2.909
REMARK INTER + INTRA:         -12.102
REMARK INTER:                 -11.039
REMARK INTRA:                  -1.063
REMARK UNBOUND:                -0.875
REMARK  Name = 
REMARK  6 active torsions:
REMARK  status: ('A' for Active; 'I' for Inactive)
REMARK    1  A    between atoms: C_2  and  C_20
REMARK    2  A    between atoms: N_3  and  C_4
REMARK    3  A    between atoms: C_4  and  C_5
REMARK    4  A    between atoms: C_8  and  C_9
REMARK    5  A    between atoms: C_9  and  N_10
REMARK    6  A    between atoms: C_11  and  C_13
REMARK                            x       y       z     vdW  Elec       q    Type
REMARK                         _______ _______ _______ _____ _____    ______ ____
ROOT
ATOM      1  C   UNL     1      46.367   4.076  14.502  0.00  0.00    +0.000 C 
ENDROOT
BRANCH   1   2
ATOM      2  C   UNL     1      46.385   4.459  13.013  0.00  0.00    +0.000 C 
ATOM      3  C   UNL     1      45.746   3.369  12.126  0.00  0.00    +0.000 C 
ATOM      4  C   UNL     1      44.217   3.298  12.241  0.00  0.00    +0.000 C 
ATOM      5  C   UNL     1      43.530   4.664  12.056  0.00  0.00    +0.000 C 
ATOM      6  C   UNL     1      44.160   5.670  13.038  0.00  0.00    +0.000 C 
ATOM      7  C   UNL     1      45.668   5.804  12.815  0.00  0.00    +0.000 C 
BRANCH   5   8
ATOM      8  C   UNL     1      43.595   5.126  10.584  0.00  0.00    +0.000 C 
BRANCH   8   9
ATOM      9  N   UNL     1      44.048   4.087   9.672  0.00  0.00    +0.000 N 
ATOM     10  C   UNL     1      45.127   4.282   8.840  0.00  0.00    +0.000 C 
ATOM     11  O   UNL     1      45.749   5.344   8.790  0.00  0.00    +0.000 OA
ATOM     12  H   UNL     1      43.526   3.223   9.594  0.00  0.00    +0.000 HD
BRANCH  10  13
ATOM     13  C   UNL     1      45.451   3.087   7.960  0.00  0.00    +0.000 C 
ATOM     14  C   UNL     1      45.643   1.801   8.761  0.00  0.00    +0.000 C 
ATOM     15  C   UNL     1      46.495   0.900   7.874  0.00  0.00    +0.000 C 
ATOM     16  C   UNL     1      47.146   1.808   6.834  0.00  0.00    +0.000 C 
ATOM     17  C   UNL     1      46.787   3.231   7.235  0.00  0.00    +0.000 C 
ENDBRANCH  10  13
ENDBRANCH   8   9
ENDBRANCH   5   8
ENDBRANCH   1   2
BRANCH   1  20
ATOM     18  O   UNL     1      48.393   3.574  16.328  0.00  0.00    +0.000 OA
ATOM     19  C   UNL     1      48.011   4.732  16.175  0.00  0.00    +0.000 C 
ATOM     20  N   UNL     1      46.987   5.077  15.323  0.00  0.00    +0.000 N 
ATOM     21  H   UNL     1      46.838   6.044  15.075  0.00  0.00    +0.000 HD
BRANCH  19  22
ATOM     22  C   UNL     1      48.601   5.843  16.906  0.00  0.00    +0.000 A 
ATOM     23  C   UNL     1      48.515   5.950  18.286  0.00  0.00    +0.000 A 
ATOM     24  S   UNL     1      49.332   7.329  18.892  0.00  0.00    +0.000 S 
ATOM     25  C   UNL     1      49.824   7.798  17.332  0.00  0.00    +0.000 A 
ATOM     26  N   UNL     1      50.575   8.907  17.120  0.00  0.00    +0.000 NA
ATOM     27  C   UNL     1      50.885   9.116  15.881  0.00  0.00    +0.000 A 
ATOM     28  N   UNL     1      50.508   8.315  14.833  0.00  0.00    +0.000 N 
ATOM     29  C   UNL     1      49.703   7.232  14.983  0.00  0.00    +0.000 A 
ATOM     30  O   UNL     1      49.264   6.632  13.987  0.00  0.00    +0.000 OA
ATOM     31  C   UNL     1      49.356   6.932  16.358  0.00  0.00    +0.000 A 
ATOM     32  H   UNL     1      50.753   8.565  13.885  0.00  0.00    +0.000 HD
ENDBRANCH  19  22
ENDBRANCH   1  20
TORSDOF 6
ENDMDL
MODEL 3
REMARK VINA RESULT:    -8.180      1.960      2.803
REMARK INTER + INTRA:         -11.924
REMARK INTER:                 -10.896
REMARK INTRA:                  -1.029
REMARK UNBOUND:                -0.875
REMARK  Name = 
REMARK  6 active torsions:
REMARK  status: ('A' for Active; 'I' for Inactive)
REMARK    1  A    between atoms: C_2  and  C_20
REMARK    2  A    between atoms: N_3  and  C_4
REMARK    3  A    between atoms: C_4  and  C_5
REMARK    4  A    between atoms: C_8  and  C_9
REMARK    5  A    between atoms: C_9  and  N_10
REMARK    6  A    between atoms: C_11  and  C_13
REMARK                            x       y       z     vdW  Elec       q    Type
REMARK                         _______ _______ _______ _____ _____    ______ ____
ROOT
ATOM      1  C   UNL     1      46.334   4.384  14.713  0.00  0.00    +0.000 C 
ENDROOT
BRANCH   1   2
ATOM      2  C   UNL     1      46.343   4.910  13.268  0.00  0.00    +0.000 C 
ATOM      3  C   UNL     1      46.242   3.768  12.234  0.00  0.00    +0.000 C 
ATOM      4  C   UNL     1      44.848   3.132  12.150  0.00  0.00    +0.000 C 
ATOM      5  C   UNL     1      43.718   4.165  11.976  0.00  0.00    +0.000 C 
ATOM      6  C   UNL     1      43.834   5.217  13.097  0.00  0.00    +0.000 C 
ATOM      7  C   UNL     1      45.195   5.915  13.075  0.00  0.00    +0.000 C 
BRANCH   5   8
ATOM      8  C   UNL     1      43.740   4.780  10.559  0.00  0.00    +0.000 C 
BRANCH   8   9
ATOM      9  N   UNL     1      44.225   3.864   9.539  0.00  0.00    +0.000 N 
ATOM     10  C   UNL     1      45.281   4.195   8.721  0.00  0.00    +0.000 C 
ATOM     11  O   UNL     1      45.852   5.285   8.776  0.00  0.00    +0.000 OA
ATOM     12  H   UNL     1      43.742   2.989   9.377  0.00  0.00    +0.000 HD
BRANCH  10  13
ATOM     13  C   UNL     1      45.645   3.114   7.718  0.00  0.00    +0.000 C 
ATOM     14  C   UNL     1      46.063   1.807   8.387  0.00  0.00    +0.000 C 
ATOM     15  C   UNL     1      46.915   1.081   7.351  0.00  0.00    +0.000 C 
ATOM     16  C   UNL     1      47.349   2.134   6.335  0.00  0.00    +0.000 C 
ATOM     17  C   UNL     1      46.874   3.471   6.885  0.00  0.00    +0.000 C 
ENDBRANCH  10  13
ENDBRANCH   8   9
ENDBRANCH   5   8
ENDBRANCH   1   2
BRANCH   1  20
ATOM     18  O   UNL     1      48.328   3.330  16.326  0.00  0.00    +0.000 OA
ATOM     19  C   UNL     1      48.165   4.548  16.311  0.00  0.00    +0.000 C 
ATOM     20  N   UNL     1      47.179   5.163  15.574  0.00  0.00    +0.000 N 
ATOM     21  H   UNL     1      47.203   6.161  15.429  0.00  0.00    +0.000 HD
BRANCH  19  22
ATOM     22  C   UNL     1      48.996   5.448  17.095  0.00  0.00    +0.000 A 
ATOM     23  C   UNL     1      50.300   5.753  16.737  0.00  0.00    +0.000 A 
ATOM     24  S   UNL     1      51.033   6.870  17.809  0.00  0.00    +0.000 S 
ATOM     25  C   UNL     1      49.625   6.977  18.758  0.00  0.00    +0.000 A 
ATOM     26  N   UNL     1      49.555   7.777  19.851  0.00  0.00    +0.000 NA
ATOM     27  C   UNL     1      48.410   7.763  20.454  0.00  0.00    +0.000 A 
ATOM     28  N   UNL     1      47.327   7.019  20.060  0.00  0.00    +0.000 N 
ATOM     29  C   UNL     1      47.365   6.155  19.014  0.00  0.00    +0.000 A 
ATOM     30  O   UNL     1      46.409   5.391  18.795  0.00  0.00    +0.000 OA
ATOM     31  C   UNL     1      48.615   6.157  18.282  0.00  0.00    +0.000 A 
ATOM     32  H   UNL     1      46.476   7.027  20.606  0.00  0.00    +0.000 HD
ENDBRANCH  19  22
ENDBRANCH   1  20
TORSDOF 6
ENDMDL
MODEL 4
REMARK VINA RESULT:    -8.070      2.080      2.579
REMARK INTER + INTRA:         -11.777
REMARK INTER:                 -11.384
REMARK INTRA:                  -0.393
REMARK UNBOUND:                -0.875
REMARK  Name = 
REMARK  6 active torsions:
REMARK  status: ('A' for Active; 'I' for Inactive)
REMARK    1  A    between atoms: C_2  and  C_20
REMARK    2  A    between atoms: N_3  and  C_4
REMARK    3  A    between atoms: C_4  and  C_5
REMARK    4  A    between atoms: C_8  and  C_9
REMARK    5  A    between atoms: C_9  and  N_10
REMARK    6  A    between atoms: C_11  and  C_13
REMARK                            x       y       z     vdW  Elec       q    Type
REMARK                         _______ _______ _______ _____ _____    ______ ____
ROOT
ATOM      1  C   UNL     1      47.046   6.918  13.221  0.00  0.00    +0.000 C 
ENDROOT
BRANCH   1   2
ATOM      2  C   UNL     1      46.681   5.677  12.389  0.00  0.00    +0.000 C 
ATOM      3  C   UNL     1      45.576   4.833  13.059  0.00  0.00    +0.000 C 
ATOM      4  C   UNL     1      44.182   5.473  12.987  0.00  0.00    +0.000 C 
ATOM      5  C   UNL     1      43.788   5.910  11.563  0.00  0.00    +0.000 C 
ATOM      6  C   UNL     1      44.897   6.819  11.001  0.00  0.00    +0.000 C 
ATOM      7  C   UNL     1      46.251   6.107  10.978  0.00  0.00    +0.000 C 
BRANCH   5   8
ATOM      8  C   UNL     1      43.490   4.687  10.668  0.00  0.00    +0.000 C 
BRANCH   8   9
ATOM      9  N   UNL     1      44.603   4.317   9.807  0.00  0.00    +0.000 N 
ATOM     10  C   UNL     1      44.761   3.026   9.354  0.00  0.00    +0.000 C 
ATOM     11  O   UNL     1      44.002   2.109   9.671  0.00  0.00    +0.000 OA
ATOM     12  H   UNL     1      45.316   4.999   9.584  0.00  0.00    +0.000 HD
BRANCH  10  13
ATOM     13  C   UNL     1      45.980   2.829   8.469  0.00  0.00    +0.000 C 
ATOM     14  C   UNL     1      45.807   3.448   7.084  0.00  0.00    +0.000 C 
ATOM     15  C   UNL     1      46.784   2.698   6.185  0.00  0.00    +0.000 C 
ATOM     16  C   UNL     1      47.140   1.407   6.918  0.00  0.00    +0.000 C 
ATOM     17  C   UNL     1      46.245   1.361   8.148  0.00  0.00    +0.000 C 
ENDBRANCH  10  13
ENDBRANCH   8   9
ENDBRANCH   5   8
ENDBRANCH   1   2
BRANCH   1  20
ATOM     18  O   UNL     1      49.649   6.922  14.176  0.00  0.00    +0.000 OA
ATOM     19  C   UNL     1      48.738   6.642  14.951  0.00  0.00    +0.000 C 
ATOM     20  N   UNL     1      47.419   6.575  14.564  0.00  0.00    +0.000 N 
ATOM     21  H   UNL     1      46.688   6.541  15.259  0.00  0.00    +0.000 HD
BRANCH  19  22
ATOM     22  C   UNL     1      48.982   6.332  16.351  0.00  0.00    +0.000 A 
ATOM     23  C   UNL     1      49.551   7.247  17.223  0.00  0.00    +0.000 A 
ATOM     24  S   UNL     1      49.685   6.640  18.820  0.00  0.00    +0.000 S 
ATOM     25  C   UNL     1      48.977   5.158  18.381  0.00  0.00    +0.000 A 
ATOM     26  N   UNL     1      48.779   4.163  19.281  0.00  0.00    +0.000 NA
ATOM     27  C   UNL     1      48.211   3.105  18.795  0.00  0.00    +0.000 A 
ATOM     28  N   UNL     1      47.825   2.954  17.488  0.00  0.00    +0.000 N 
ATOM     29  C   UNL     1      48.060   3.891  16.535  0.00  0.00    +0.000 A 
ATOM     30  O   UNL     1      47.832   3.642  15.338  0.00  0.00    +0.000 OA
ATOM     31  C   UNL     1      48.662   5.112  17.032  0.00  0.00    +0.000 A 
ATOM     32  H   UNL     1      47.424   2.081  17.171  0.00  0.00    +0.000 HD
ENDBRANCH  19  22
ENDBRANCH   1  20
TORSDOF 6
ENDMDL
MODEL 5
REMARK VINA RESULT:    -7.514      4.864      5.425
REMARK INTER + INTRA:         -11.024
REMARK INTER:                 -10.378
REMARK INTRA:                  -0.646
REMARK UNBOUND:                -0.875
REMARK  Name = 
REMARK  6 active torsions:
REMARK  status: ('A' for Active; 'I' for Inactive)
REMARK    1  A    between atoms: C_2  and  C_20
REMARK    2  A    between atoms: N_3  and  C_4
REMARK    3  A    between atoms: C_4  and  C_5
REMARK    4  A    between atoms: C_8  and  C_9
REMARK    5  A    between atoms: C_9  and  N_10
REMARK    6  A    between atoms: C_11  and  C_13
REMARK                            x       y       z     vdW  Elec       q    Type
REMARK                         _______ _______ _______ _____ _____    ______ ____
ROOT
ATOM      1  C   UNL     1      45.157   7.348  12.890  0.00  0.00    +0.000 C 
ENDROOT
BRANCH   1   2
ATOM      2  C   UNL     1      44.870   6.571  11.594  0.00  0.00    +0.000 C 
ATOM      3  C   UNL     1      45.792   5.342  11.438  0.00  0.00    +0.000 C 
ATOM      4  C   UNL     1      45.443   4.185  12.384  0.00  0.00    +0.000 C 
ATOM      5  C   UNL     1      43.953   3.794  12.342  0.00  0.00    +0.000 C 
ATOM      6  C   UNL     1      43.105   5.055  12.595  0.00  0.00    +0.000 C 
ATOM      7  C   UNL     1      43.394   6.145  11.561  0.00  0.00    +0.000 C 
BRANCH   5   8
ATOM      8  C   UNL     1      43.602   3.080  11.018  0.00  0.00    +0.000 C 
BRANCH   8   9
ATOM      9  N   UNL     1      44.767   2.758  10.209  0.00  0.00    +0.000 N 
ATOM     10  C   UNL     1      44.962   3.330   8.972  0.00  0.00    +0.000 C 
ATOM     11  O   UNL     1      44.158   4.113   8.464  0.00  0.00    +0.000 OA
ATOM     12  H   UNL     1      45.420   2.052  10.524  0.00  0.00    +0.000 HD
BRANCH  10  13
ATOM     13  C   UNL     1      46.232   2.873   8.275  0.00  0.00    +0.000 C 
ATOM     14  C   UNL     1      46.342   3.400   6.847  0.00  0.00    +0.000 C 
ATOM     15  C   UNL     1      47.284   2.435   6.135  0.00  0.00    +0.000 C 
ATOM     16  C   UNL     1      47.324   1.166   6.983  0.00  0.00    +0.000 C 
ATOM     17  C   UNL     1      46.286   1.360   8.079  0.00  0.00    +0.000 C 
ENDBRANCH  10  13
ENDBRANCH   8   9
ENDBRANCH   5   8
ENDBRANCH   1   2
BRANCH   1  20
ATOM     18  O   UNL     1      45.664   9.809  11.718  0.00  0.00    +0.000 OA
ATOM     19  C   UNL     1      46.585   9.226  12.285  0.00  0.00    +0.000 C 
ATOM     20  N   UNL     1      46.444   7.985  12.861  0.00  0.00    +0.000 N 
ATOM     21  H   UNL     1      47.155   7.631  13.484  0.00  0.00    +0.000 HD
BRANCH  19  22
ATOM     22  C   UNL     1      47.921   9.795  12.374  0.00  0.00    +0.000 A 
ATOM     23  C   UNL     1      48.152  11.067  12.874  0.00  0.00    +0.000 A 
ATOM     24  S   UNL     1      49.817  11.470  12.907  0.00  0.00    +0.000 S 
ATOM     25  C   UNL     1      50.258   9.955  12.272  0.00  0.00    +0.000 A 
ATOM     26  N   UNL     1      51.553   9.620  12.048  0.00  0.00    +0.000 NA
ATOM     27  C   UNL     1      51.726   8.426  11.581  0.00  0.00    +0.000 A 
ATOM     28  N   UNL     1      50.717   7.535  11.316  0.00  0.00    +0.000 N 
ATOM     29  C   UNL     1      49.402   7.843  11.459  0.00  0.00    +0.000 A 
ATOM     30  O   UNL     1      48.525   7.058  11.059  0.00  0.00    +0.000 OA
ATOM     31  C   UNL     1      49.154   9.159  12.014  0.00  0.00    +0.000 A 
ATOM     32  H   UNL     1      50.925   6.632  10.912  0.00  0.00    +0.000 HD
ENDBRANCH  19  22
ENDBRANCH   1  20
TORSDOF 6
ENDMDL
MODEL 6
REMARK VINA RESULT:    -7.174      2.742      3.810
REMARK INTER + INTRA:         -10.565
REMARK INTER:                 -10.346
REMARK INTRA:                  -0.219
REMARK UNBOUND:                -0.875
REMARK  Name = 
REMARK  6 active torsions:
REMARK  status: ('A' for Active; 'I' for Inactive)
REMARK    1  A    between atoms: C_2  and  C_20
REMARK    2  A    between atoms: N_3  and  C_4
REMARK    3  A    between atoms: C_4  and  C_5
REMARK    4  A    between atoms: C_8  and  C_9
REMARK    5  A    between atoms: C_9  and  N_10
REMARK    6  A    between atoms: C_11  and  C_13
REMARK                            x       y       z     vdW  Elec       q    Type
REMARK                         _______ _______ _______ _____ _____    ______ ____
ROOT
ATOM      1  C   UNL     1      47.420   7.021  13.294  0.00  0.00    +0.000 C 
ENDROOT
BRANCH   1   2
ATOM      2  C   UNL     1      46.960   5.842  12.420  0.00  0.00    +0.000 C 
ATOM      3  C   UNL     1      45.895   4.976  13.127  0.00  0.00    +0.000 C 
ATOM      4  C   UNL     1      44.515   5.643  13.212  0.00  0.00    +0.000 C 
ATOM      5  C   UNL     1      44.014   6.177  11.857  0.00  0.00    +0.000 C 
ATOM      6  C   UNL     1      45.093   7.101  11.261  0.00  0.00    +0.000 C 
ATOM      7  C   UNL     1      46.424   6.369  11.080  0.00  0.00    +0.000 C 
BRANCH   5   8
ATOM      8  C   UNL     1      43.616   5.019  10.915  0.00  0.00    +0.000 C 
BRANCH   8   9
ATOM      9  N   UNL     1      44.706   4.565  10.065  0.00  0.00    +0.000 N 
ATOM     10  C   UNL     1      44.764   3.270   9.603  0.00  0.00    +0.000 C 
ATOM     11  O   UNL     1      43.928   2.416   9.902  0.00  0.00    +0.000 OA
ATOM     12  H   UNL     1      45.475   5.189   9.856  0.00  0.00    +0.000 HD
BRANCH  10  13
ATOM     13  C   UNL     1      45.973   2.981   8.730  0.00  0.00    +0.000 C 
ATOM     14  C   UNL     1      45.906   3.687   7.378  0.00  0.00    +0.000 C 
ATOM     15  C   UNL     1      46.812   2.876   6.458  0.00  0.00    +0.000 C 
ATOM     16  C   UNL     1      47.001   1.517   7.126  0.00  0.00    +0.000 C 
ATOM     17  C   UNL     1      46.077   1.510   8.335  0.00  0.00    +0.000 C 
ENDBRANCH  10  13
ENDBRANCH   8   9
ENDBRANCH   5   8
ENDBRANCH   1   2
BRANCH   1  20
ATOM     18  O   UNL     1      49.841   6.752  14.620  0.00  0.00    +0.000 OA
ATOM     19  C   UNL     1      48.801   6.575  15.251  0.00  0.00    +0.000 C 
ATOM     20  N   UNL     1      47.554   6.647  14.674  0.00  0.00    +0.000 N 
ATOM     21  H   UNL     1      46.729   6.696  15.255  0.00  0.00    +0.000 HD
BRANCH  19  22
ATOM     22  C   UNL     1      48.803   6.250  16.669  0.00  0.00    +0.000 A 
ATOM     23  C   UNL     1      49.107   4.980  17.136  0.00  0.00    +0.000 A 
ATOM     24  S   UNL     1      49.078   4.884  18.846  0.00  0.00    +0.000 S 
ATOM     25  C   UNL     1      48.675   6.530  18.993  0.00  0.00    +0.000 A 
ATOM     26  N   UNL     1      48.503   7.122  20.201  0.00  0.00    +0.000 NA
ATOM     27  C   UNL     1      48.220   8.383  20.145  0.00  0.00    +0.000 A 
ATOM     28  N   UNL     1      48.092   9.107  18.987  0.00  0.00    +0.000 N 
ATOM     29  C   UNL     1      48.189   8.549  17.753  0.00  0.00    +0.000 A 
ATOM     30  O   UNL     1      47.911   9.213  16.739  0.00  0.00    +0.000 OA
ATOM     31  C   UNL     1      48.541   7.143  17.758  0.00  0.00    +0.000 A 
ATOM     32  H   UNL     1      47.827  10.082  19.020  0.00  0.00    +0.000 HD
ENDBRANCH  19  22
ENDBRANCH   1  20
TORSDOF 6
ENDMDL
MODEL 7
REMARK VINA RESULT:    -7.116      3.608      4.126
REMARK INTER + INTRA:         -10.487
REMARK INTER:                 -10.049
REMARK INTRA:                  -0.438
REMARK UNBOUND:                -0.875
REMARK  Name = 
REMARK  6 active torsions:
REMARK  status: ('A' for Active; 'I' for Inactive)
REMARK    1  A    between atoms: C_2  and  C_20
REMARK    2  A    between atoms: N_3  and  C_4
REMARK    3  A    between atoms: C_4  and  C_5
REMARK    4  A    between atoms: C_8  and  C_9
REMARK    5  A    between atoms: C_9  and  N_10
REMARK    6  A    between atoms: C_11  and  C_13
REMARK                            x       y       z     vdW  Elec       q    Type
REMARK                         _______ _______ _______ _____ _____    ______ ____
ROOT
ATOM      1  C   UNL     1      45.519   6.692  13.264  0.00  0.00    +0.000 C 
ENDROOT
BRANCH   1   2
ATOM      2  C   UNL     1      45.201   6.045  11.905  0.00  0.00    +0.000 C 
ATOM      3  C   UNL     1      45.955   4.713  11.707  0.00  0.00    +0.000 C 
ATOM      4  C   UNL     1      45.400   3.558  12.552  0.00  0.00    +0.000 C 
ATOM      5  C   UNL     1      43.876   3.382  12.414  0.00  0.00    +0.000 C 
ATOM      6  C   UNL     1      43.194   4.730  12.716  0.00  0.00    +0.000 C 
ATOM      7  C   UNL     1      43.685   5.833  11.775  0.00  0.00    +0.000 C 
BRANCH   5   8
ATOM      8  C   UNL     1      43.504   2.808  11.029  0.00  0.00    +0.000 C 
BRANCH   8   9
ATOM      9  N   UNL     1      44.662   2.496  10.204  0.00  0.00    +0.000 N 
ATOM     10  C   UNL     1      44.908   3.170   9.029  0.00  0.00    +0.000 C 
ATOM     11  O   UNL     1      44.159   4.043   8.590  0.00  0.00    +0.000 OA
ATOM     12  H   UNL     1      45.268   1.726  10.458  0.00  0.00    +0.000 HD
BRANCH  10  13
ATOM     13  C   UNL     1      46.161   2.707   8.305  0.00  0.00    +0.000 C 
ATOM     14  C   UNL     1      46.257   3.258   6.885  0.00  0.00    +0.000 C 
ATOM     15  C   UNL     1      47.174   2.293   6.141  0.00  0.00    +0.000 C 
ATOM     16  C   UNL     1      47.206   1.008   6.965  0.00  0.00    +0.000 C 
ATOM     17  C   UNL     1      46.188   1.197   8.080  0.00  0.00    +0.000 C 
ENDBRANCH  10  13
ENDBRANCH   8   9
ENDBRANCH   5   8
ENDBRANCH   1   2
BRANCH   1  20
ATOM     18  O   UNL     1      47.834   5.582  14.311  0.00  0.00    +0.000 OA
ATOM     19  C   UNL     1      47.900   6.688  13.779  0.00  0.00    +0.000 C 
ATOM     20  N   UNL     1      46.801   7.338  13.266  0.00  0.00    +0.000 N 
ATOM     21  H   UNL     1      46.922   8.141  12.666  0.00  0.00    +0.000 HD
BRANCH  19  22
ATOM     22  C   UNL     1      49.153   7.419  13.667  0.00  0.00    +0.000 A 
ATOM     23  C   UNL     1      49.787   7.618  12.451  0.00  0.00    +0.000 A 
ATOM     24  S   UNL     1      51.219   8.546  12.599  0.00  0.00    +0.000 S 
ATOM     25  C   UNL     1      51.011   8.711  14.279  0.00  0.00    +0.000 A 
ATOM     26  N   UNL     1      51.886   9.407  15.047  0.00  0.00    +0.000 NA
ATOM     27  C   UNL     1      51.578   9.457  16.303  0.00  0.00    +0.000 A 
ATOM     28  N   UNL     1      50.471   8.870  16.861  0.00  0.00    +0.000 N 
ATOM     29  C   UNL     1      49.600   8.109  16.151  0.00  0.00    +0.000 A 
ATOM     30  O   UNL     1      48.702   7.473  16.730  0.00  0.00    +0.000 OA
ATOM     31  C   UNL     1      49.880   8.049  14.730  0.00  0.00    +0.000 A 
ATOM     32  H   UNL     1      50.317   8.916  17.859  0.00  0.00    +0.000 HD
ENDBRANCH  19  22
ENDBRANCH   1  20
TORSDOF 6
ENDMDL
MODEL 8
REMARK VINA RESULT:    -7.079      1.696      2.151
REMARK INTER + INTRA:         -10.438
REMARK INTER:                  -9.783
REMARK INTRA:                  -0.655
REMARK UNBOUND:                -0.875
REMARK  Name = 
REMARK  6 active torsions:
REMARK  status: ('A' for Active; 'I' for Inactive)
REMARK    1  A    between atoms: C_2  and  C_20
REMARK    2  A    between atoms: N_3  and  C_4
REMARK    3  A    between atoms: C_4  and  C_5
REMARK    4  A    between atoms: C_8  and  C_9
REMARK    5  A    between atoms: C_9  and  N_10
REMARK    6  A    between atoms: C_11  and  C_13
REMARK                            x       y       z     vdW  Elec       q    Type
REMARK                         _______ _______ _______ _____ _____    ______ ____
ROOT
ATOM      1  C   UNL     1      47.871   6.431  15.287  0.00  0.00    +0.000 C 
ENDROOT
BRANCH   1   2
ATOM      2  C   UNL     1      48.075   6.639  13.777  0.00  0.00    +0.000 C 
ATOM      3  C   UNL     1      47.626   5.412  12.956  0.00  0.00    +0.000 C 
ATOM      4  C   UNL     1      46.102   5.247  12.876  0.00  0.00    +0.000 C 
ATOM      5  C   UNL     1      45.374   6.531  12.435  0.00  0.00    +0.000 C 
ATOM      6  C   UNL     1      45.806   7.686  13.359  0.00  0.00    +0.000 C 
ATOM      7  C   UNL     1      47.321   7.899  13.321  0.00  0.00    +0.000 C 
BRANCH   5   8
ATOM      8  C   UNL     1      45.618   6.823  10.938  0.00  0.00    +0.000 C 
BRANCH   8   9
ATOM      9  N   UNL     1      45.574   5.633  10.103  0.00  0.00    +0.000 N 
ATOM     10  C   UNL     1      44.389   4.980   9.847  0.00  0.00    +0.000 C 
ATOM     11  O   UNL     1      43.313   5.335  10.329  0.00  0.00    +0.000 OA
ATOM     12  H   UNL     1      46.434   5.233   9.750  0.00  0.00    +0.000 HD
BRANCH  10  13
ATOM     13  C   UNL     1      44.539   3.759   8.956  0.00  0.00    +0.000 C 
ATOM     14  C   UNL     1      44.864   2.492   9.743  0.00  0.00    +0.000 C 
ATOM     15  C   UNL     1      45.534   1.558   8.741  0.00  0.00    +0.000 C 
ATOM     16  C   UNL     1      45.993   2.433   7.576  0.00  0.00    +0.000 C 
ATOM     17  C   UNL     1      45.722   3.870   7.997  0.00  0.00    +0.000 C 
ENDBRANCH  10  13
ENDBRANCH   8   9
ENDBRANCH   5   8
ENDBRANCH   1   2
BRANCH   1  20
ATOM     18  O   UNL     1      47.945   4.611  17.378  0.00  0.00    +0.000 OA
ATOM     19  C   UNL     1      49.006   5.052  16.944  0.00  0.00    +0.000 C 
ATOM     20  N   UNL     1      49.073   5.987  15.936  0.00  0.00    +0.000 N 
ATOM     21  H   UNL     1      49.951   6.173  15.474  0.00  0.00    +0.000 HD
BRANCH  19  22
ATOM     22  C   UNL     1      50.293   4.636  17.479  0.00  0.00    +0.000 A 
ATOM     23  C   UNL     1      51.136   5.512  18.145  0.00  0.00    +0.000 A 
ATOM     24  S   UNL     1      52.565   4.752  18.709  0.00  0.00    +0.000 S 
ATOM     25  C   UNL     1      52.079   3.244  18.088  0.00  0.00    +0.000 A 
ATOM     26  N   UNL     1      52.843   2.132  18.227  0.00  0.00    +0.000 NA
ATOM     27  C   UNL     1      52.326   1.060  17.718  0.00  0.00    +0.000 A 
ATOM     28  N   UNL     1      51.113   1.001  17.081  0.00  0.00    +0.000 N 
ATOM     29  C   UNL     1      50.341   2.095  16.858  0.00  0.00    +0.000 A 
ATOM     30  O   UNL     1      49.328   2.016  16.142  0.00  0.00    +0.000 OA
ATOM     31  C   UNL     1      50.857   3.319  17.440  0.00  0.00    +0.000 A 
ATOM     32  H   UNL     1      50.792   0.134  16.672  0.00  0.00    +0.000 HD
ENDBRANCH  19  22
ENDBRANCH   1  20
TORSDOF 6
ENDMDL
MODEL 9
REMARK VINA RESULT:    -6.853      4.540      5.085
REMARK INTER + INTRA:         -10.132
REMARK INTER:                  -8.947
REMARK INTRA:                  -1.185
REMARK UNBOUND:                -0.875
REMARK  Name = 
REMARK  6 active torsions:
REMARK  status: ('A' for Active; 'I' for Inactive)
REMARK    1  A    between atoms: C_2  and  C_20
REMARK    2  A    between atoms: N_3  and  C_4
REMARK    3  A    between atoms: C_4  and  C_5
REMARK    4  A    between atoms: C_8  and  C_9
REMARK    5  A    between atoms: C_9  and  N_10
REMARK    6  A    between atoms: C_11  and  C_13
REMARK                            x       y       z     vdW  Elec       q    Type
REMARK                         _______ _______ _______ _____ _____    ______ ____
ROOT
ATOM      1  C   UNL     1      47.188   7.818  13.666  0.00  0.00    +0.000 C 
ENDROOT
BRANCH   1   2
ATOM      2  C   UNL     1      46.467   7.889  12.309  0.00  0.00    +0.000 C 
ATOM      3  C   UNL     1      46.927   6.771  11.348  0.00  0.00    +0.000 C 
ATOM      4  C   UNL     1      46.397   5.380  11.722  0.00  0.00    +0.000 C 
ATOM      5  C   UNL     1      44.874   5.351  11.951  0.00  0.00    +0.000 C 
ATOM      6  C   UNL     1      44.510   6.432  12.987  0.00  0.00    +0.000 C 
ATOM      7  C   UNL     1      44.947   7.823  12.526  0.00  0.00    +0.000 C 
BRANCH   5   8
ATOM      8  C   UNL     1      44.108   5.501  10.618  0.00  0.00    +0.000 C 
BRANCH   8   9
ATOM      9  N   UNL     1      44.738   4.804   9.508  0.00  0.00    +0.000 N 
ATOM     10  C   UNL     1      44.509   3.467   9.277  0.00  0.00    +0.000 C 
ATOM     11  O   UNL     1      43.793   2.777  10.004  0.00  0.00    +0.000 OA
ATOM     12  H   UNL     1      45.411   5.288   8.926  0.00  0.00    +0.000 HD
BRANCH  10  13
ATOM     13  C   UNL     1      45.253   2.913   8.074  0.00  0.00    +0.000 C 
ATOM     14  C   UNL     1      45.978   1.605   8.382  0.00  0.00    +0.000 C 
ATOM     15  C   UNL     1      47.086   1.506   7.339  0.00  0.00    +0.000 C 
ATOM     16  C   UNL     1      47.275   2.912   6.776  0.00  0.00    +0.000 C 
ATOM     17  C   UNL     1      46.388   3.823   7.612  0.00  0.00    +0.000 C 
ENDBRANCH  10  13
ENDBRANCH   8   9
ENDBRANCH   5   8
ENDBRANCH   1   2
BRANCH   1  20
ATOM     18  O   UNL     1      49.480   6.596  14.635  0.00  0.00    +0.000 OA
ATOM     19  C   UNL     1      49.584   7.690  14.086  0.00  0.00    +0.000 C 
ATOM     20  N   UNL     1      48.502   8.393  13.608  0.00  0.00    +0.000 N 
ATOM     21  H   UNL     1      48.642   9.181  12.992  0.00  0.00    +0.000 HD
BRANCH  19  22
ATOM     22  C   UNL     1      50.869   8.350  13.914  0.00  0.00    +0.000 A 
ATOM     23  C   UNL     1      51.559   8.914  14.976  0.00  0.00    +0.000 A 
ATOM     24  S   UNL     1      53.062   9.586  14.503  0.00  0.00    +0.000 S 
ATOM     25  C   UNL     1      52.825   9.127  12.882  0.00  0.00    +0.000 A 
ATOM     26  N   UNL     1      53.745   9.389  11.920  0.00  0.00    +0.000 NA
ATOM     27  C   UNL     1      53.427   8.958  10.742  0.00  0.00    +0.000 A 
ATOM     28  N   UNL     1      52.269   8.288  10.439  0.00  0.00    +0.000 N 
ATOM     29  C   UNL     1      51.288   8.059  11.349  0.00  0.00    +0.000 A 
ATOM     30  O   UNL     1      50.195   7.588  10.991  0.00  0.00    +0.000 OA
ATOM     31  C   UNL     1      51.609   8.490  12.695  0.00  0.00    +0.000 A 
ATOM     32  H   UNL     1      52.069   8.018   9.486  0.00  0.00    +0.000 HD
ENDBRANCH  19  22
ENDBRANCH   1  20
TORSDOF 6
ENDMDL
