MODEL 1
REMARK VINA RESULT:    -6.725      0.000      0.000
REMARK INTER + INTRA:         -10.981
REMARK INTER:                  -9.870
REMARK INTRA:                  -1.111
REMARK UNBOUND:                -1.111
REMARK  Name = 
REMARK  9 active torsions:
REMARK  status: ('A' for Active; 'I' for Inactive)
REMARK    1  A    between atoms: C_1  and  O_2
REMARK    2  A    between atoms: O_2  and  C_3
REMARK    3  A    between atoms: C_10  and  C_11
REMARK    4  A    between atoms: N_13  and  C_14
REMARK    5  A    between atoms: C_14  and  C_15
REMARK    6  A    between atoms: C_18  and  N_19
REMARK    7  A    between atoms: N_19  and  C_20
REMARK    8  A    between atoms: C_20  and  C_21
REMARK    9  A    between atoms: C_21  and  N_22
REMARK                            x       y       z     vdW  Elec       q    Type
REMARK                         _______ _______ _______ _____ _____    ______ ____
ROOT
ATOM      1  C   UNL     1      48.226   8.747  14.305  0.00  0.00    +0.000 C 
ENDROOT
BRANCH   1   2
ATOM      2  C   UNL     1      47.143   8.435  13.309  0.00  0.00    +0.000 A 
ATOM      3  C   UNL     1      47.235   7.306  12.487  0.00  0.00    +0.000 A 
ATOM      4  C   UNL     1      46.156   6.923  11.681  0.00  0.00    +0.000 A 
ATOM      5  C   UNL     1      44.957   7.639  11.695  0.00  0.00    +0.000 A 
ATOM      6  C   UNL     1      44.929   8.847  12.401  0.00  0.00    +0.000 A 
ATOM      7  C   UNL     1      46.003   9.239  13.210  0.00  0.00    +0.000 A 
BRANCH   5   8
ATOM      8  N   UNL     1      43.825   7.281  10.944  0.00  0.00    +0.000 N 
ATOM      9  H   UNL     1      44.067   7.291   9.955  0.00  0.00    +0.000 HD
BRANCH   8  10
ATOM     10  C   UNL     1      43.112   6.042  11.313  0.00  0.00    +0.000 C 
BRANCH  10  11
ATOM     11  C   UNL     1      43.447   4.901  10.321  0.00  0.00    +0.000 C 
BRANCH  11  12
ATOM     12  N   UNL     1      44.857   4.450  10.304  0.00  0.00    +0.000 NA
ATOM     13  C   UNL     1      45.559   4.656   9.021  0.00  0.00    +0.000 C 
ATOM     14  C   UNL     1      45.180   3.673   7.897  0.00  0.00    +0.000 C 
ATOM     15  O   UNL     1      45.248   2.305   8.319  0.00  0.00    +0.000 OA
ATOM     16  C   UNL     1      44.461   2.092   9.495  0.00  0.00    +0.000 C 
ATOM     17  C   UNL     1      44.942   3.006  10.635  0.00  0.00    +0.000 C 
ENDBRANCH  11  12
ENDBRANCH  10  11
ENDBRANCH   8  10
ENDBRANCH   5   8
ENDBRANCH   1   2
BRANCH   1  20
ATOM     18  C   UNL     1      49.426   6.983  15.480  0.00  0.00    +0.000 C 
ATOM     19  O   UNL     1      50.353   7.071  14.676  0.00  0.00    +0.000 OA
ATOM     20  N   UNL     1      48.314   7.774  15.363  0.00  0.00    +0.000 N 
ATOM     21  H   UNL     1      47.572   7.738  16.048  0.00  0.00    +0.000 HD
BRANCH  18  29
ATOM     22  C   UNL     1      47.443   4.305  16.381  0.00  0.00    +0.000 A 
ATOM     23  N   UNL     1      46.851   3.248  16.973  0.00  0.00    +0.000 NA
ATOM     24  C   UNL     1      47.402   2.756  18.086  0.00  0.00    +0.000 A 
ATOM     25  N   UNL     1      48.498   3.197  18.699  0.00  0.00    +0.000 NA
ATOM     26  C   UNL     1      49.050   4.256  18.088  0.00  0.00    +0.000 A 
ATOM     27  S   UNL     1      50.458   4.947  18.734  0.00  0.00    +0.000 S 
ATOM     28  C   UNL     1      50.506   6.116  17.504  0.00  0.00    +0.000 A 
ATOM     29  C   UNL     1      49.470   6.010  16.583  0.00  0.00    +0.000 A 
ATOM     30  C   UNL     1      48.601   4.891  16.930  0.00  0.00    +0.000 A 
BRANCH  22  32
ATOM     31  C   UNL     1      47.012   3.962  14.111  0.00  0.00    +0.000 C 
ATOM     32  O   UNL     1      46.861   4.821  15.241  0.00  0.00    +0.000 OA
ENDBRANCH  22  32
ENDBRANCH  18  29
ENDBRANCH   1  20
TORSDOF 8
ENDMDL
MODEL 2
REMARK VINA RESULT:    -6.530      3.002      4.642
REMARK INTER + INTRA:         -10.695
REMARK INTER:                  -9.646
REMARK INTRA:                  -1.049
REMARK UNBOUND:                -1.111
REMARK  Name = 
REMARK  9 active torsions:
REMARK  status: ('A' for Active; 'I' for Inactive)
REMARK    1  A    between atoms: C_1  and  O_2
REMARK    2  A    between atoms: O_2  and  C_3
REMARK    3  A    between atoms: C_10  and  C_11
REMARK    4  A    between atoms: N_13  and  C_14
REMARK    5  A    between atoms: C_14  and  C_15
REMARK    6  A    between atoms: C_18  and  N_19
REMARK    7  A    between atoms: N_19  and  C_20
REMARK    8  A    between atoms: C_20  and  C_21
REMARK    9  A    between atoms: C_21  and  N_22
REMARK                            x       y       z     vdW  Elec       q    Type
REMARK                         _______ _______ _______ _____ _____    ______ ____
ROOT
ATOM      1  C   UNL     1      47.795   3.464  17.193  0.00  0.00    +0.000 C 
ENDROOT
BRANCH   1   2
ATOM      2  C   UNL     1      47.683   4.222  15.897  0.00  0.00    +0.000 A 
ATOM      3  C   UNL     1      47.002   3.671  14.807  0.00  0.00    +0.000 A 
ATOM      4  C   UNL     1      46.754   4.438  13.662  0.00  0.00    +0.000 A 
ATOM      5  C   UNL     1      47.156   5.773  13.588  0.00  0.00    +0.000 A 
ATOM      6  C   UNL     1      47.968   6.265  14.618  0.00  0.00    +0.000 A 
ATOM      7  C   UNL     1      48.221   5.506  15.767  0.00  0.00    +0.000 A 
BRANCH   5   8
ATOM      8  N   UNL     1      46.900   6.607  12.488  0.00  0.00    +0.000 N 
ATOM      9  H   UNL     1      47.603   6.436  11.771  0.00  0.00    +0.000 HD
BRANCH   8  10
ATOM     10  C   UNL     1      45.538   6.603  11.917  0.00  0.00    +0.000 C 
BRANCH  10  11
ATOM     11  C   UNL     1      45.456   5.650  10.699  0.00  0.00    +0.000 C 
BRANCH  11  12
ATOM     12  N   UNL     1      44.093   5.288  10.250  0.00  0.00    +0.000 NA
ATOM     13  C   UNL     1      43.144   4.979  11.339  0.00  0.00    +0.000 C 
ATOM     14  C   UNL     1      43.339   3.608  12.014  0.00  0.00    +0.000 C 
ATOM     15  O   UNL     1      43.418   2.536  11.065  0.00  0.00    +0.000 OA
ATOM     16  C   UNL     1      44.430   2.792  10.086  0.00  0.00    +0.000 C 
ATOM     17  C   UNL     1      44.141   4.111   9.348  0.00  0.00    +0.000 C 
ENDBRANCH  11  12
ENDBRANCH  10  11
ENDBRANCH   8  10
ENDBRANCH   5   8
ENDBRANCH   1   2
BRANCH   1  20
ATOM     18  C   UNL     1      49.959   2.366  16.989  0.00  0.00    +0.000 C 
ATOM     19  O   UNL     1      49.527   1.673  16.070  0.00  0.00    +0.000 OA
ATOM     20  N   UNL     1      49.158   3.280  17.620  0.00  0.00    +0.000 N 
ATOM     21  H   UNL     1      49.522   3.885  18.342  0.00  0.00    +0.000 HD
BRANCH  18  29
ATOM     22  C   UNL     1      52.416   4.615  17.893  0.00  0.00    +0.000 A 
ATOM     23  N   UNL     1      53.546   5.246  18.272  0.00  0.00    +0.000 NA
ATOM     24  C   UNL     1      54.606   4.502  18.601  0.00  0.00    +0.000 A 
ATOM     25  N   UNL     1      54.683   3.173  18.600  0.00  0.00    +0.000 NA
ATOM     26  C   UNL     1      53.544   2.583  18.206  0.00  0.00    +0.000 A 
ATOM     27  S   UNL     1      53.463   0.890  18.146  0.00  0.00    +0.000 S 
ATOM     28  C   UNL     1      51.856   0.937  17.603  0.00  0.00    +0.000 A 
ATOM     29  C   UNL     1      51.347   2.223  17.458  0.00  0.00    +0.000 A 
ATOM     30  C   UNL     1      52.357   3.209  17.825  0.00  0.00    +0.000 A 
BRANCH  22  32
ATOM     31  C   UNL     1      51.668   6.417  16.609  0.00  0.00    +0.000 C 
ATOM     32  O   UNL     1      51.329   5.387  17.537  0.00  0.00    +0.000 OA
ENDBRANCH  22  32
ENDBRANCH  18  29
ENDBRANCH   1  20
TORSDOF 8
ENDMDL
MODEL 3
REMARK VINA RESULT:    -6.519      1.401      1.814
REMARK INTER + INTRA:         -10.680
REMARK INTER:                  -9.641
REMARK INTRA:                  -1.038
REMARK UNBOUND:                -1.111
REMARK  Name = 
REMARK  9 active torsions:
REMARK  status: ('A' for Active; 'I' for Inactive)
REMARK    1  A    between atoms: C_1  and  O_2
REMARK    2  A    between atoms: O_2  and  C_3
REMARK    3  A    between atoms: C_10  and  C_11
REMARK    4  A    between atoms: N_13  and  C_14
REMARK    5  A    between atoms: C_14  and  C_15
REMARK    6  A    between atoms: C_18  and  N_19
REMARK    7  A    between atoms: N_19  and  C_20
REMARK    8  A    between atoms: C_20  and  C_21
REMARK    9  A    between atoms: C_21  and  N_22
REMARK                            x       y       z     vdW  Elec       q    Type
REMARK                         _______ _______ _______ _____ _____    ______ ____
ROOT
ATOM      1  C   UNL     1      47.945   8.863  14.152  0.00  0.00    +0.000 C 
ENDROOT
BRANCH   1   2
ATOM      2  C   UNL     1      47.075   8.163  13.142  0.00  0.00    +0.000 A 
ATOM      3  C   UNL     1      47.461   6.932  12.602  0.00  0.00    +0.000 A 
ATOM      4  C   UNL     1      46.582   6.202  11.793  0.00  0.00    +0.000 A 
ATOM      5  C   UNL     1      45.293   6.670  11.526  0.00  0.00    +0.000 A 
ATOM      6  C   UNL     1      44.974   7.968  11.943  0.00  0.00    +0.000 A 
ATOM      7  C   UNL     1      45.847   8.705  12.752  0.00  0.00    +0.000 A 
BRANCH   5   8
ATOM      8  N   UNL     1      44.350   5.967  10.759  0.00  0.00    +0.000 N 
ATOM      9  H   UNL     1      44.594   6.052   9.774  0.00  0.00    +0.000 HD
BRANCH   8  10
ATOM     10  C   UNL     1      44.067   4.564  11.125  0.00  0.00    +0.000 C 
BRANCH  10  11
ATOM     11  C   UNL     1      44.987   3.596  10.340  0.00  0.00    +0.000 C 
BRANCH  11  12
ATOM     12  N   UNL     1      44.413   3.013   9.108  0.00  0.00    +0.000 NA
ATOM     13  C   UNL     1      44.818   1.618   8.834  0.00  0.00    +0.000 C 
ATOM     14  C   UNL     1      46.255   1.442   8.307  0.00  0.00    +0.000 C 
ATOM     15  O   UNL     1      46.540   2.299   7.195  0.00  0.00    +0.000 OA
ATOM     16  C   UNL     1      46.260   3.666   7.516  0.00  0.00    +0.000 C 
ATOM     17  C   UNL     1      44.786   3.829   7.926  0.00  0.00    +0.000 C 
ENDBRANCH  11  12
ENDBRANCH  10  11
ENDBRANCH   8  10
ENDBRANCH   5   8
ENDBRANCH   1   2
BRANCH   1  20
ATOM     18  C   UNL     1      49.197   8.280  16.158  0.00  0.00    +0.000 C 
ATOM     19  O   UNL     1      50.113   9.021  15.807  0.00  0.00    +0.000 OA
ATOM     20  N   UNL     1      48.077   8.129  15.383  0.00  0.00    +0.000 N 
ATOM     21  H   UNL     1      47.302   7.558  15.690  0.00  0.00    +0.000 HD
BRANCH  18  29
ATOM     22  C   UNL     1      48.600   4.982  16.982  0.00  0.00    +0.000 A 
ATOM     23  N   UNL     1      48.422   3.788  17.584  0.00  0.00    +0.000 NA
ATOM     24  C   UNL     1      48.664   3.700  18.895  0.00  0.00    +0.000 A 
ATOM     25  N   UNL     1      49.072   4.678  19.703  0.00  0.00    +0.000 NA
ATOM     26  C   UNL     1      49.224   5.850  19.069  0.00  0.00    +0.000 A 
ATOM     27  S   UNL     1      49.741   7.207  19.946  0.00  0.00    +0.000 S 
ATOM     28  C   UNL     1      49.684   8.185  18.559  0.00  0.00    +0.000 A 
ATOM     29  C   UNL     1      49.279   7.514  17.411  0.00  0.00    +0.000 A 
ATOM     30  C   UNL     1      49.010   6.113  17.716  0.00  0.00    +0.000 A 
BRANCH  22  32
ATOM     31  C   UNL     1      47.150   4.366  15.257  0.00  0.00    +0.000 C 
ATOM     32  O   UNL     1      48.332   5.074  15.631  0.00  0.00    +0.000 OA
ENDBRANCH  22  32
ENDBRANCH  18  29
ENDBRANCH   1  20
TORSDOF 8
ENDMDL
MODEL 4
REMARK VINA RESULT:    -6.472      3.256      8.847
REMARK INTER + INTRA:         -10.610
REMARK INTER:                  -9.574
REMARK INTRA:                  -1.035
REMARK UNBOUND:                -1.111
REMARK  Name = 
REMARK  9 active torsions:
REMARK  status: ('A' for Active; 'I' for Inactive)
REMARK    1  A    between atoms: C_1  and  O_2
REMARK    2  A    between atoms: O_2  and  C_3
REMARK    3  A    between atoms: C_10  and  C_11
REMARK    4  A    between atoms: N_13  and  C_14
REMARK    5  A    between atoms: C_14  and  C_15
REMARK    6  A    between atoms: C_18  and  N_19
REMARK    7  A    between atoms: N_19  and  C_20
REMARK    8  A    between atoms: C_20  and  C_21
REMARK    9  A    between atoms: C_21  and  N_22
REMARK                            x       y       z     vdW  Elec       q    Type
REMARK                         _______ _______ _______ _____ _____    ______ ____
ROOT
ATOM      1  C   UNL     1      47.235   3.420  16.847  0.00  0.00    +0.000 C 
ENDROOT
BRANCH   1   2
ATOM      2  C   UNL     1      48.723   3.304  17.047  0.00  0.00    +0.000 A 
ATOM      3  C   UNL     1      49.460   4.383  17.544  0.00  0.00    +0.000 A 
ATOM      4  C   UNL     1      50.808   4.227  17.887  0.00  0.00    +0.000 A 
ATOM      5  C   UNL     1      51.443   2.988  17.767  0.00  0.00    +0.000 A 
ATOM      6  C   UNL     1      50.741   1.958  17.129  0.00  0.00    +0.000 A 
ATOM      7  C   UNL     1      49.393   2.106  16.782  0.00  0.00    +0.000 A 
BRANCH   5   8
ATOM      8  N   UNL     1      52.778   2.756  18.135  0.00  0.00    +0.000 N 
ATOM      9  H   UNL     1      53.250   2.266  17.377  0.00  0.00    +0.000 HD
BRANCH   8  10
ATOM     10  C   UNL     1      53.575   3.903  18.614  0.00  0.00    +0.000 C 
BRANCH  10  11
ATOM     11  C   UNL     1      54.516   4.420  17.498  0.00  0.00    +0.000 C 
BRANCH  11  12
ATOM     12  N   UNL     1      54.794   5.874  17.508  0.00  0.00    +0.000 NA
ATOM     13  C   UNL     1      53.594   6.735  17.488  0.00  0.00    +0.000 C 
ATOM     14  C   UNL     1      52.875   6.832  16.129  0.00  0.00    +0.000 C 
ATOM     15  O   UNL     1      53.771   7.154  15.058  0.00  0.00    +0.000 OA
ATOM     16  C   UNL     1      54.867   6.234  15.011  0.00  0.00    +0.000 C 
ATOM     17  C   UNL     1      55.635   6.248  16.344  0.00  0.00    +0.000 C 
ENDBRANCH  11  12
ENDBRANCH  10  11
ENDBRANCH   8  10
ENDBRANCH   5   8
ENDBRANCH   1   2
BRANCH   1  20
ATOM     18  C   UNL     1      46.880   4.247  14.584  0.00  0.00    +0.000 C 
ATOM     19  O   UNL     1      47.218   3.157  14.127  0.00  0.00    +0.000 OA
ATOM     20  N   UNL     1      46.872   4.473  15.935  0.00  0.00    +0.000 N 
ATOM     21  H   UNL     1      46.550   5.351  16.317  0.00  0.00    +0.000 HD
BRANCH  18  29
ATOM     22  C   UNL     1      44.096   4.891  12.648  0.00  0.00    +0.000 A 
ATOM     23  N   UNL     1      43.167   5.383  11.803  0.00  0.00    +0.000 NA
ATOM     24  C   UNL     1      43.409   6.556  11.211  0.00  0.00    +0.000 A 
ATOM     25  N   UNL     1      44.489   7.321  11.360  0.00  0.00    +0.000 NA
ATOM     26  C   UNL     1      45.393   6.792  12.197  0.00  0.00    +0.000 A 
ATOM     27  S   UNL     1      46.832   7.635  12.505  0.00  0.00    +0.000 S 
ATOM     28  C   UNL     1      47.379   6.416  13.554  0.00  0.00    +0.000 A 
ATOM     29  C   UNL     1      46.492   5.354  13.695  0.00  0.00    +0.000 A 
ATOM     30  C   UNL     1      45.300   5.583  12.887  0.00  0.00    +0.000 A 
BRANCH  22  32
ATOM     31  C   UNL     1      43.526   2.653  12.297  0.00  0.00    +0.000 C 
ATOM     32  O   UNL     1      43.850   3.670  13.244  0.00  0.00    +0.000 OA
ENDBRANCH  22  32
ENDBRANCH  18  29
ENDBRANCH   1  20
TORSDOF 8
ENDMDL
MODEL 5
REMARK VINA RESULT:    -6.454      4.902      9.441
REMARK INTER + INTRA:         -10.584
REMARK INTER:                  -9.763
REMARK INTRA:                  -0.821
REMARK UNBOUND:                -1.111
REMARK  Name = 
REMARK  9 active torsions:
REMARK  status: ('A' for Active; 'I' for Inactive)
REMARK    1  A    between atoms: C_1  and  O_2
REMARK    2  A    between atoms: O_2  and  C_3
REMARK    3  A    between atoms: C_10  and  C_11
REMARK    4  A    between atoms: N_13  and  C_14
REMARK    5  A    between atoms: C_14  and  C_15
REMARK    6  A    between atoms: C_18  and  N_19
REMARK    7  A    between atoms: N_19  and  C_20
REMARK    8  A    between atoms: C_20  and  C_21
REMARK    9  A    between atoms: C_21  and  N_22
REMARK                            x       y       z     vdW  Elec       q    Type
REMARK                         _______ _______ _______ _____ _____    ______ ____
ROOT
ATOM      1  C   UNL     1      47.459   3.455  16.908  0.00  0.00    +0.000 C 
ENDROOT
BRANCH   1   2
ATOM      2  C   UNL     1      48.938   3.268  17.116  0.00  0.00    +0.000 A 
ATOM      3  C   UNL     1      49.719   4.299  17.649  0.00  0.00    +0.000 A 
ATOM      4  C   UNL     1      51.055   4.072  17.997  0.00  0.00    +0.000 A 
ATOM      5  C   UNL     1      51.635   2.810  17.846  0.00  0.00    +0.000 A 
ATOM      6  C   UNL     1      50.894   1.831  17.173  0.00  0.00    +0.000 A 
ATOM      7  C   UNL     1      49.556   2.049  16.821  0.00  0.00    +0.000 A 
BRANCH   5   8
ATOM      8  N   UNL     1      52.955   2.508  18.217  0.00  0.00    +0.000 N 
ATOM      9  H   UNL     1      52.973   2.257  19.204  0.00  0.00    +0.000 HD
BRANCH   8  10
ATOM     10  C   UNL     1      53.698   1.528  17.398  0.00  0.00    +0.000 C 
BRANCH  10  11
ATOM     11  C   UNL     1      54.020   0.257  18.222  0.00  0.00    +0.000 C 
BRANCH  11  12
ATOM     12  N   UNL     1      55.372  -0.313  18.031  0.00  0.00    +0.000 NA
ATOM     13  C   UNL     1      55.722  -0.622  16.629  0.00  0.00    +0.000 C 
ATOM     14  C   UNL     1      55.055  -1.881  16.045  0.00  0.00    +0.000 C 
ATOM     15  O   UNL     1      55.214  -3.028  16.891  0.00  0.00    +0.000 OA
ATOM     16  C   UNL     1      54.754  -2.753  18.218  0.00  0.00    +0.000 C 
ATOM     17  C   UNL     1      55.523  -1.563  18.817  0.00  0.00    +0.000 C 
ENDBRANCH  11  12
ENDBRANCH  10  11
ENDBRANCH   8  10
ENDBRANCH   5   8
ENDBRANCH   1   2
BRANCH   1  20
ATOM     18  C   UNL     1      47.055   4.264  14.647  0.00  0.00    +0.000 C 
ATOM     19  O   UNL     1      47.250   3.135  14.202  0.00  0.00    +0.000 OA
ATOM     20  N   UNL     1      47.153   4.521  15.989  0.00  0.00    +0.000 N 
ATOM     21  H   UNL     1      46.946   5.436  16.363  0.00  0.00    +0.000 HD
BRANCH  18  29
ATOM     22  C   UNL     1      44.320   5.043  12.690  0.00  0.00    +0.000 A 
ATOM     23  N   UNL     1      43.423   5.578  11.836  0.00  0.00    +0.000 NA
ATOM     24  C   UNL     1      43.730   6.734  11.241  0.00  0.00    +0.000 A 
ATOM     25  N   UNL     1      44.846   7.443  11.393  0.00  0.00    +0.000 NA
ATOM     26  C   UNL     1      45.717   6.871  12.239  0.00  0.00    +0.000 A 
ATOM     27  S   UNL     1      47.196   7.640  12.553  0.00  0.00    +0.000 S 
ATOM     28  C   UNL     1      47.672   6.400  13.610  0.00  0.00    +0.000 A 
ATOM     29  C   UNL     1      46.731   5.386  13.751  0.00  0.00    +0.000 A 
ATOM     30  C   UNL     1      45.557   5.672  12.934  0.00  0.00    +0.000 A 
BRANCH  22  32
ATOM     31  C   UNL     1      43.571   2.856  12.352  0.00  0.00    +0.000 C 
ATOM     32  O   UNL     1      44.007   3.839  13.290  0.00  0.00    +0.000 OA
ENDBRANCH  22  32
ENDBRANCH  18  29
ENDBRANCH   1  20
TORSDOF 8
ENDMDL
MODEL 6
REMARK VINA RESULT:    -6.222      5.822      7.376
REMARK INTER + INTRA:         -10.244
REMARK INTER:                  -9.551
REMARK INTRA:                  -0.692
REMARK UNBOUND:                -1.111
REMARK  Name = 
REMARK  9 active torsions:
REMARK  status: ('A' for Active; 'I' for Inactive)
REMARK    1  A    between atoms: C_1  and  O_2
REMARK    2  A    between atoms: O_2  and  C_3
REMARK    3  A    between atoms: C_10  and  C_11
REMARK    4  A    between atoms: N_13  and  C_14
REMARK    5  A    between atoms: C_14  and  C_15
REMARK    6  A    between atoms: C_18  and  N_19
REMARK    7  A    between atoms: N_19  and  C_20
REMARK    8  A    between atoms: C_20  and  C_21
REMARK    9  A    between atoms: C_21  and  N_22
REMARK                            x       y       z     vdW  Elec       q    Type
REMARK                         _______ _______ _______ _____ _____    ______ ____
ROOT
ATOM      1  C   UNL     1      51.016   8.336  11.293  0.00  0.00    +0.000 C 
ENDROOT
BRANCH   1   2
ATOM      2  C   UNL     1      49.823   7.855  12.075  0.00  0.00    +0.000 A 
ATOM      3  C   UNL     1      48.604   7.610  11.434  0.00  0.00    +0.000 A 
ATOM      4  C   UNL     1      47.546   7.006  12.125  0.00  0.00    +0.000 A 
ATOM      5  C   UNL     1      47.687   6.613  13.457  0.00  0.00    +0.000 A 
ATOM      6  C   UNL     1      48.853   7.000  14.129  0.00  0.00    +0.000 A 
ATOM      7  C   UNL     1      49.916   7.604  13.447  0.00  0.00    +0.000 A 
BRANCH   5   8
ATOM      8  N   UNL     1      46.680   5.965  14.191  0.00  0.00    +0.000 N 
ATOM      9  H   UNL     1      45.779   6.371  13.948  0.00  0.00    +0.000 HD
BRANCH   8  10
ATOM     10  C   UNL     1      46.634   4.490  14.152  0.00  0.00    +0.000 C 
BRANCH  10  11
ATOM     11  C   UNL     1      45.866   3.998  12.901  0.00  0.00    +0.000 C 
BRANCH  11  12
ATOM     12  N   UNL     1      44.392   3.940  13.027  0.00  0.00    +0.000 NA
ATOM     13  C   UNL     1      43.716   3.097  12.020  0.00  0.00    +0.000 C 
ATOM     14  C   UNL     1      43.621   3.705  10.608  0.00  0.00    +0.000 C 
ATOM     15  O   UNL     1      43.091   5.036  10.619  0.00  0.00    +0.000 OA
ATOM     16  C   UNL     1      43.835   5.877  11.507  0.00  0.00    +0.000 C 
ATOM     17  C   UNL     1      43.812   5.303  12.934  0.00  0.00    +0.000 C 
ENDBRANCH  11  12
ENDBRANCH  10  11
ENDBRANCH   8  10
ENDBRANCH   5   8
ENDBRANCH   1   2
BRANCH   1  20
ATOM     18  C   UNL     1      53.022   7.530  10.173  0.00  0.00    +0.000 C 
ATOM     19  O   UNL     1      53.394   8.689   9.993  0.00  0.00    +0.000 OA
ATOM     20  N   UNL     1      51.837   7.260  10.803  0.00  0.00    +0.000 N 
ATOM     21  H   UNL     1      51.551   6.310  10.995  0.00  0.00    +0.000 HD
BRANCH  18  29
ATOM     22  C   UNL     1      53.135   5.754   7.216  0.00  0.00    +0.000 A 
ATOM     23  N   UNL     1      53.379   4.890   6.209  0.00  0.00    +0.000 NA
ATOM     24  C   UNL     1      54.320   3.959   6.390  0.00  0.00    +0.000 A 
ATOM     25  N   UNL     1      55.068   3.775   7.476  0.00  0.00    +0.000 NA
ATOM     26  C   UNL     1      54.787   4.645   8.458  0.00  0.00    +0.000 A 
ATOM     27  S   UNL     1      55.649   4.558   9.916  0.00  0.00    +0.000 S 
ATOM     28  C   UNL     1      54.780   5.865  10.564  0.00  0.00    +0.000 A 
ATOM     29  C   UNL     1      53.828   6.394   9.698  0.00  0.00    +0.000 A 
ATOM     30  C   UNL     1      53.838   5.667   8.434  0.00  0.00    +0.000 A 
BRANCH  22  32
ATOM     31  C   UNL     1      52.662   7.929   6.509  0.00  0.00    +0.000 C 
ATOM     32  O   UNL     1      52.151   6.703   7.032  0.00  0.00    +0.000 OA
ENDBRANCH  22  32
ENDBRANCH  18  29
ENDBRANCH   1  20
TORSDOF 8
ENDMDL
MODEL 7
REMARK VINA RESULT:    -6.202      1.933      2.680
REMARK INTER + INTRA:         -10.213
REMARK INTER:                  -9.253
REMARK INTRA:                  -0.960
REMARK UNBOUND:                -1.111
REMARK  Name = 
REMARK  9 active torsions:
REMARK  status: ('A' for Active; 'I' for Inactive)
REMARK    1  A    between atoms: C_1  and  O_2
REMARK    2  A    between atoms: O_2  and  C_3
REMARK    3  A    between atoms: C_10  and  C_11
REMARK    4  A    between atoms: N_13  and  C_14
REMARK    5  A    between atoms: C_14  and  C_15
REMARK    6  A    between atoms: C_18  and  N_19
REMARK    7  A    between atoms: N_19  and  C_20
REMARK    8  A    between atoms: C_20  and  C_21
REMARK    9  A    between atoms: C_21  and  N_22
REMARK                            x       y       z     vdW  Elec       q    Type
REMARK                         _______ _______ _______ _____ _____    ______ ____
ROOT
ATOM      1  C   UNL     1      48.123   8.084  13.315  0.00  0.00    +0.000 C 
ENDROOT
BRANCH   1   2
ATOM      2  C   UNL     1      47.042   7.116  12.916  0.00  0.00    +0.000 A 
ATOM      3  C   UNL     1      46.864   5.919  13.617  0.00  0.00    +0.000 A 
ATOM      4  C   UNL     1      45.761   5.099  13.356  0.00  0.00    +0.000 A 
ATOM      5  C   UNL     1      44.799   5.465  12.412  0.00  0.00    +0.000 A 
ATOM      6  C   UNL     1      45.065   6.583  11.613  0.00  0.00    +0.000 A 
ATOM      7  C   UNL     1      46.167   7.409  11.866  0.00  0.00    +0.000 A 
BRANCH   5   8
ATOM      8  N   UNL     1      43.648   4.708  12.135  0.00  0.00    +0.000 N 
ATOM      9  H   UNL     1      43.106   5.181  11.414  0.00  0.00    +0.000 HD
BRANCH   8  10
ATOM     10  C   UNL     1      43.818   3.274  11.828  0.00  0.00    +0.000 C 
BRANCH  10  11
ATOM     11  C   UNL     1      44.858   3.075  10.698  0.00  0.00    +0.000 C 
BRANCH  11  12
ATOM     12  N   UNL     1      44.308   2.770   9.358  0.00  0.00    +0.000 NA
ATOM     13  C   UNL     1      44.857   1.554   8.724  0.00  0.00    +0.000 C 
ATOM     14  C   UNL     1      46.284   1.691   8.161  0.00  0.00    +0.000 C 
ATOM     15  O   UNL     1      46.431   2.837   7.313  0.00  0.00    +0.000 OA
ATOM     16  C   UNL     1      46.012   4.029   7.985  0.00  0.00    +0.000 C 
ATOM     17  C   UNL     1      44.545   3.905   8.431  0.00  0.00    +0.000 C 
ENDBRANCH  11  12
ENDBRANCH  10  11
ENDBRANCH   8  10
ENDBRANCH   5   8
ENDBRANCH   1   2
BRANCH   1  20
ATOM     18  C   UNL     1      49.522   7.688  15.269  0.00  0.00    +0.000 C 
ATOM     19  O   UNL     1      48.840   8.474  15.923  0.00  0.00    +0.000 OA
ATOM     20  N   UNL     1      49.245   7.442  13.951  0.00  0.00    +0.000 N 
ATOM     21  H   UNL     1      49.773   6.762  13.423  0.00  0.00    +0.000 HD
BRANCH  18  29
ATOM     22  C   UNL     1      49.840   5.059  17.483  0.00  0.00    +0.000 A 
ATOM     23  N   UNL     1      50.257   4.096  18.330  0.00  0.00    +0.000 NA
ATOM     24  C   UNL     1      51.572   3.937  18.507  0.00  0.00    +0.000 A 
ATOM     25  N   UNL     1      52.548   4.634  17.930  0.00  0.00    +0.000 NA
ATOM     26  C   UNL     1      52.092   5.589  17.105  0.00  0.00    +0.000 A 
ATOM     27  S   UNL     1      53.201   6.573  16.281  0.00  0.00    +0.000 S 
ATOM     28  C   UNL     1      51.948   7.435  15.525  0.00  0.00    +0.000 A 
ATOM     29  C   UNL     1      50.674   7.000  15.873  0.00  0.00    +0.000 A 
ATOM     30  C   UNL     1      50.761   5.889  16.815  0.00  0.00    +0.000 A 
BRANCH  22  32
ATOM     31  C   UNL     1      47.864   4.129  16.651  0.00  0.00    +0.000 C 
ATOM     32  O   UNL     1      48.480   5.232  17.316  0.00  0.00    +0.000 OA
ENDBRANCH  22  32
ENDBRANCH  18  29
ENDBRANCH   1  20
TORSDOF 8
ENDMDL
MODEL 8
REMARK VINA RESULT:    -5.968      3.197      7.615
REMARK INTER + INTRA:          -9.870
REMARK INTER:                  -8.873
REMARK INTRA:                  -0.997
REMARK UNBOUND:                -1.111
REMARK  Name = 
REMARK  9 active torsions:
REMARK  status: ('A' for Active; 'I' for Inactive)
REMARK    1  A    between atoms: C_1  and  O_2
REMARK    2  A    between atoms: O_2  and  C_3
REMARK    3  A    between atoms: C_10  and  C_11
REMARK    4  A    between atoms: N_13  and  C_14
REMARK    5  A    between atoms: C_14  and  C_15
REMARK    6  A    between atoms: C_18  and  N_19
REMARK    7  A    between atoms: N_19  and  C_20
REMARK    8  A    between atoms: C_20  and  C_21
REMARK    9  A    between atoms: C_21  and  N_22
REMARK                            x       y       z     vdW  Elec       q    Type
REMARK                         _______ _______ _______ _____ _____    ______ ____
ROOT
ATOM      1  C   UNL     1      48.282   8.076  11.922  0.00  0.00    +0.000 C 
ENDROOT
BRANCH   1   2
ATOM      2  C   UNL     1      49.121   7.733  13.124  0.00  0.00    +0.000 A 
ATOM      3  C   UNL     1      50.456   8.141  13.200  0.00  0.00    +0.000 A 
ATOM      4  C   UNL     1      51.187   7.969  14.382  0.00  0.00    +0.000 A 
ATOM      5  C   UNL     1      50.597   7.411  15.518  0.00  0.00    +0.000 A 
ATOM      6  C   UNL     1      49.313   6.869  15.384  0.00  0.00    +0.000 A 
ATOM      7  C   UNL     1      48.575   7.036  14.206  0.00  0.00    +0.000 A 
BRANCH   5   8
ATOM      8  N   UNL     1      51.261   7.252  16.745  0.00  0.00    +0.000 N 
ATOM      9  H   UNL     1      51.033   8.039  17.350  0.00  0.00    +0.000 HD
BRANCH   8  10
ATOM     10  C   UNL     1      51.109   5.966  17.454  0.00  0.00    +0.000 C 
BRANCH  10  11
ATOM     11  C   UNL     1      50.208   6.130  18.702  0.00  0.00    +0.000 C 
BRANCH  11  12
ATOM     12  N   UNL     1      49.557   4.897  19.198  0.00  0.00    +0.000 NA
ATOM     13  C   UNL     1      49.273   3.885  18.159  0.00  0.00    +0.000 C 
ATOM     14  C   UNL     1      48.080   4.204  17.239  0.00  0.00    +0.000 C 
ATOM     15  O   UNL     1      46.898   4.550  17.972  0.00  0.00    +0.000 OA
ATOM     16  C   UNL     1      47.158   5.618  18.888  0.00  0.00    +0.000 C 
ATOM     17  C   UNL     1      48.274   5.223  19.870  0.00  0.00    +0.000 C 
ENDBRANCH  11  12
ENDBRANCH  10  11
ENDBRANCH   8  10
ENDBRANCH   5   8
ENDBRANCH   1   2
BRANCH   1  20
ATOM     18  C   UNL     1      46.250   6.877  11.319  0.00  0.00    +0.000 C 
ATOM     19  O   UNL     1      45.568   7.787  11.788  0.00  0.00    +0.000 OA
ATOM     20  N   UNL     1      47.618   6.931  11.356  0.00  0.00    +0.000 N 
ATOM     21  H   UNL     1      48.181   6.209  10.929  0.00  0.00    +0.000 HD
BRANCH  18  29
ATOM     22  C   UNL     1      44.380   4.271  12.595  0.00  0.00    +0.000 A 
ATOM     23  N   UNL     1      43.665   3.148  12.812  0.00  0.00    +0.000 NA
ATOM     24  C   UNL     1      43.386   2.366  11.766  0.00  0.00    +0.000 A 
ATOM     25  N   UNL     1      43.739   2.567  10.497  0.00  0.00    +0.000 NA
ATOM     26  C   UNL     1      44.458   3.686  10.325  0.00  0.00    +0.000 A 
ATOM     27  S   UNL     1      44.990   4.101   8.770  0.00  0.00    +0.000 S 
ATOM     28  C   UNL     1      45.752   5.502   9.351  0.00  0.00    +0.000 A 
ATOM     29  C   UNL     1      45.620   5.689  10.722  0.00  0.00    +0.000 A 
ATOM     30  C   UNL     1      44.839   4.604  11.305  0.00  0.00    +0.000 A 
BRANCH  22  32
ATOM     31  C   UNL     1      45.971   4.788  14.226  0.00  0.00    +0.000 C 
ATOM     32  O   UNL     1      44.681   5.069  13.681  0.00  0.00    +0.000 OA
ENDBRANCH  22  32
ENDBRANCH  18  29
ENDBRANCH   1  20
TORSDOF 8
ENDMDL
MODEL 9
REMARK VINA RESULT:    -5.790      3.233      8.601
REMARK INTER + INTRA:          -9.609
REMARK INTER:                  -8.050
REMARK INTRA:                  -1.559
REMARK UNBOUND:                -1.111
REMARK  Name = 
REMARK  9 active torsions:
REMARK  status: ('A' for Active; 'I' for Inactive)
REMARK    1  A    between atoms: C_1  and  O_2
REMARK    2  A    between atoms: O_2  and  C_3
REMARK    3  A    between atoms: C_10  and  C_11
REMARK    4  A    between atoms: N_13  and  C_14
REMARK    5  A    between atoms: C_14  and  C_15
REMARK    6  A    between atoms: C_18  and  N_19
REMARK    7  A    between atoms: N_19  and  C_20
REMARK    8  A    between atoms: C_20  and  C_21
REMARK    9  A    between atoms: C_21  and  N_22
REMARK                            x       y       z     vdW  Elec       q    Type
REMARK                         _______ _______ _______ _____ _____    ______ ____
ROOT
ATOM      1  C   UNL     1      47.573   3.726  16.363  0.00  0.00    +0.000 C 
ENDROOT
BRANCH   1   2
ATOM      2  C   UNL     1      48.078   4.574  17.500  0.00  0.00    +0.000 A 
ATOM      3  C   UNL     1      47.183   5.197  18.375  0.00  0.00    +0.000 A 
ATOM      4  C   UNL     1      47.647   5.846  19.525  0.00  0.00    +0.000 A 
ATOM      5  C   UNL     1      49.008   5.867  19.841  0.00  0.00    +0.000 A 
ATOM      6  C   UNL     1      49.904   5.375  18.884  0.00  0.00    +0.000 A 
ATOM      7  C   UNL     1      49.448   4.725  17.731  0.00  0.00    +0.000 A 
BRANCH   5   8
ATOM      8  N   UNL     1      49.532   6.462  20.999  0.00  0.00    +0.000 N 
ATOM      9  H   UNL     1      50.111   5.782  21.488  0.00  0.00    +0.000 HD
BRANCH   8  10
ATOM     10  C   UNL     1      50.224   7.758  20.860  0.00  0.00    +0.000 C 
BRANCH  10  11
ATOM     11  C   UNL     1      49.257   8.842  20.322  0.00  0.00    +0.000 C 
BRANCH  11  12
ATOM     12  N   UNL     1      49.787   9.705  19.243  0.00  0.00    +0.000 NA
ATOM     13  C   UNL     1      49.014  10.941  19.001  0.00  0.00    +0.000 C 
ATOM     14  C   UNL     1      47.679  10.747  18.257  0.00  0.00    +0.000 C 
ATOM     15  O   UNL     1      47.827   9.976  17.058  0.00  0.00    +0.000 OA
ATOM     16  C   UNL     1      48.467   8.725  17.329  0.00  0.00    +0.000 C 
ATOM     17  C   UNL     1      49.849   8.956  17.964  0.00  0.00    +0.000 C 
ENDBRANCH  11  12
ENDBRANCH  10  11
ENDBRANCH   8  10
ENDBRANCH   5   8
ENDBRANCH   1   2
BRANCH   1  20
ATOM     18  C   UNL     1      46.742   4.123  14.109  0.00  0.00    +0.000 C 
ATOM     19  O   UNL     1      47.446   3.210  13.683  0.00  0.00    +0.000 OA
ATOM     20  N   UNL     1      46.752   4.461  15.436  0.00  0.00    +0.000 N 
ATOM     21  H   UNL     1      46.140   5.179  15.798  0.00  0.00    +0.000 HD
BRANCH  18  29
ATOM     22  C   UNL     1      46.643   7.444  13.171  0.00  0.00    +0.000 A 
ATOM     23  N   UNL     1      46.357   8.657  12.656  0.00  0.00    +0.000 NA
ATOM     24  C   UNL     1      45.331   8.756  11.806  0.00  0.00    +0.000 A 
ATOM     25  N   UNL     1      44.533   7.773  11.395  0.00  0.00    +0.000 NA
ATOM     26  C   UNL     1      44.842   6.586  11.939  0.00  0.00    +0.000 A 
ATOM     27  S   UNL     1      43.928   5.219  11.523  0.00  0.00    +0.000 S 
ATOM     28  C   UNL     1      44.862   4.227  12.537  0.00  0.00    +0.000 A 
ATOM     29  C   UNL     1      45.879   4.900  13.204  0.00  0.00    +0.000 A 
ATOM     30  C   UNL     1      45.871   6.313  12.841  0.00  0.00    +0.000 A 
BRANCH  22  32
ATOM     31  C   UNL     1      48.937   7.074  13.417  0.00  0.00    +0.000 C 
ATOM     32  O   UNL     1      47.694   7.348  14.062  0.00  0.00    +0.000 OA
ENDBRANCH  22  32
ENDBRANCH  18  29
ENDBRANCH   1  20
TORSDOF 8
ENDMDL
