MODEL 1
REMARK VINA RESULT:    -8.431      0.000      0.000
REMARK INTER + INTRA:         -13.021
REMARK INTER:                 -11.880
REMARK INTRA:                  -1.140
REMARK UNBOUND:                -1.140
REMARK  Name = 
REMARK  8 active torsions:
REMARK  status: ('A' for Active; 'I' for Inactive)
REMARK    1  A    between atoms: C_1  and  C_2
REMARK    2  A    between atoms: C_2  and  N_3
REMARK    3  A    between atoms: C_2  and  C_25
REMARK    4  A    between atoms: N_3  and  C_4
REMARK    5  A    between atoms: C_4  and  C_5
REMARK    6  A    between atoms: C_8  and  C_9
REMARK    7  A    between atoms: C_9  and  N_10
REMARK    8  A    between atoms: C_11  and  C_13
REMARK                            x       y       z     vdW  Elec       q    Type
REMARK                         _______ _______ _______ _____ _____    ______ ____
ROOT
ATOM      1  C   UNL     1      44.602   5.578  10.972  0.00  0.00    +0.000 A 
ATOM      2  C   UNL     1      45.866   5.936  10.499  0.00  0.00    +0.000 A 
ATOM      3  C   UNL     1      46.685   6.761  11.264  0.00  0.00    +0.000 A 
ATOM      4  C   UNL     1      46.223   7.209  12.499  0.00  0.00    +0.000 A 
ATOM      5  N   UNL     1      44.989   6.898  12.969  0.00  0.00    +0.000 NA
ATOM      6  C   UNL     1      44.214   6.096  12.202  0.00  0.00    +0.000 A 
ENDROOT
BRANCH   1   7
ATOM      7  C   UNL     1      43.675   4.715  10.159  0.00  0.00    +0.000 C 
BRANCH   7   8
ATOM      8  N   UNL     1      44.329   4.234   8.944  0.00  0.00    +0.000 NA
ATOM      9  H   UNL     1      44.994   4.945   8.632  0.00  0.00    +0.000 HD
BRANCH   8  11
ATOM     10  C   UNL     1      44.185   1.776   9.417  0.00  0.00    +0.000 C 
ATOM     11  C   UNL     1      45.090   2.984   9.149  0.00  0.00    +0.000 C 
BRANCH  11  12
ATOM     12  C   UNL     1      46.001   2.702   7.950  0.00  0.00    +0.000 A 
ATOM     13  C   UNL     1      46.141   3.637   6.922  0.00  0.00    +0.000 A 
ATOM     14  C   UNL     1      46.980   3.344   5.849  0.00  0.00    +0.000 A 
ATOM     15  C   UNL     1      47.664   2.136   5.833  0.00  0.00    +0.000 A 
ATOM     16  C   UNL     1      47.475   1.265   6.893  0.00  0.00    +0.000 A 
ATOM     17  N   UNL     1      46.665   1.520   7.945  0.00  0.00    +0.000 NA
ENDBRANCH  11  12
ENDBRANCH   8  11
ENDBRANCH   7   8
ENDBRANCH   1   7
BRANCH   4  18
ATOM     18  C   UNL     1      47.088   8.107  13.351  0.00  0.00    +0.000 C 
BRANCH  18  19
ATOM     19  N   UNL     1      47.511   7.442  14.564  0.00  0.00    +0.000 N 
ATOM     20  C   UNL     1      48.735   6.834  14.657  0.00  0.00    +0.000 C 
ATOM     21  O   UNL     1      49.558   6.886  13.747  0.00  0.00    +0.000 OA
ATOM     22  H   UNL     1      46.771   7.200  15.218  0.00  0.00    +0.000 HD
BRANCH  20  23
ATOM     23  C   UNL     1      49.052   6.172  15.929  0.00  0.00    +0.000 A 
ATOM     24  C   UNL     1      50.100   6.654  16.703  0.00  0.00    +0.000 A 
ATOM     25  S   UNL     1      50.333   5.793  18.155  0.00  0.00    +0.000 S 
ATOM     26  C   UNL     1      49.071   4.715  17.780  0.00  0.00    +0.000 A 
ATOM     27  N   UNL     1      48.764   3.684  18.612  0.00  0.00    +0.000 NA
ATOM     28  C   UNL     1      47.810   2.924  18.188  0.00  0.00    +0.000 A 
ATOM     29  N   UNL     1      47.126   3.110  17.015  0.00  0.00    +0.000 N 
ATOM     30  C   UNL     1      47.373   4.162  16.164  0.00  0.00    +0.000 A 
ATOM     31  O   UNL     1      46.700   4.339  15.155  0.00  0.00    +0.000 OA
ATOM     32  C   UNL     1      48.460   5.028  16.578  0.00  0.00    +0.000 A 
ATOM     33  H   UNL     1      46.377   2.489  16.748  0.00  0.00    +0.000 HD
ENDBRANCH  20  23
ENDBRANCH  18  19
ENDBRANCH   4  18
TORSDOF 7
ENDMDL
MODEL 2
REMARK VINA RESULT:    -8.235      1.959      2.268
REMARK INTER + INTRA:         -12.745
REMARK INTER:                 -11.963
REMARK INTRA:                  -0.782
REMARK UNBOUND:                -1.140
REMARK  Name = 
REMARK  8 active torsions:
REMARK  status: ('A' for Active; 'I' for Inactive)
REMARK    1  A    between atoms: C_1  and  C_2
REMARK    2  A    between atoms: C_2  and  N_3
REMARK    3  A    between atoms: C_2  and  C_25
REMARK    4  A    between atoms: N_3  and  C_4
REMARK    5  A    between atoms: C_4  and  C_5
REMARK    6  A    between atoms: C_8  and  C_9
REMARK    7  A    between atoms: C_9  and  N_10
REMARK    8  A    between atoms: C_11  and  C_13
REMARK                            x       y       z     vdW  Elec       q    Type
REMARK                         _______ _______ _______ _____ _____    ______ ____
ROOT
ATOM      1  C   UNL     1      45.490   4.499  12.375  0.00  0.00    +0.000 A 
ATOM      2  C   UNL     1      45.413   5.856  12.055  0.00  0.00    +0.000 A 
ATOM      3  C   UNL     1      46.351   6.745  12.571  0.00  0.00    +0.000 A 
ATOM      4  C   UNL     1      47.361   6.255  13.396  0.00  0.00    +0.000 A 
ATOM      5  N   UNL     1      47.442   4.945  13.743  0.00  0.00    +0.000 NA
ATOM      6  C   UNL     1      46.514   4.105  13.228  0.00  0.00    +0.000 A 
ENDROOT
BRANCH   1   7
ATOM      7  C   UNL     1      44.474   3.514  11.864  0.00  0.00    +0.000 C 
BRANCH   7   8
ATOM      8  N   UNL     1      45.059   2.617  10.870  0.00  0.00    +0.000 NA
ATOM      9  H   UNL     1      44.820   1.656  11.123  0.00  0.00    +0.000 HD
BRANCH   8  11
ATOM     10  C   UNL     1      44.111   4.302   9.274  0.00  0.00    +0.000 C 
ATOM     11  C   UNL     1      44.547   2.849   9.504  0.00  0.00    +0.000 C 
BRANCH  11  12
ATOM     12  C   UNL     1      45.589   2.442   8.458  0.00  0.00    +0.000 A 
ATOM     13  C   UNL     1      46.109   3.379   7.563  0.00  0.00    +0.000 A 
ATOM     14  C   UNL     1      47.058   2.970   6.628  0.00  0.00    +0.000 A 
ATOM     15  C   UNL     1      47.469   1.644   6.616  0.00  0.00    +0.000 A 
ATOM     16  C   UNL     1      46.909   0.778   7.540  0.00  0.00    +0.000 A 
ATOM     17  N   UNL     1      45.985   1.145   8.456  0.00  0.00    +0.000 NA
ENDBRANCH  11  12
ENDBRANCH   8  11
ENDBRANCH   7   8
ENDBRANCH   1   7
BRANCH   4  18
ATOM     18  C   UNL     1      48.392   7.194  13.972  0.00  0.00    +0.000 C 
BRANCH  18  19
ATOM     19  N   UNL     1      48.282   7.288  15.411  0.00  0.00    +0.000 N 
ATOM     20  C   UNL     1      49.248   6.781  16.238  0.00  0.00    +0.000 C 
ATOM     21  O   UNL     1      50.286   6.291  15.801  0.00  0.00    +0.000 OA
ATOM     22  H   UNL     1      47.350   7.475  15.772  0.00  0.00    +0.000 HD
BRANCH  20  23
ATOM     23  C   UNL     1      49.023   6.913  17.683  0.00  0.00    +0.000 A 
ATOM     24  C   UNL     1      48.984   8.180  18.251  0.00  0.00    +0.000 A 
ATOM     25  S   UNL     1      48.698   8.169  19.931  0.00  0.00    +0.000 S 
ATOM     26  C   UNL     1      48.662   6.468  19.968  0.00  0.00    +0.000 A 
ATOM     27  N   UNL     1      48.488   5.800  21.139  0.00  0.00    +0.000 NA
ATOM     28  C   UNL     1      48.517   4.514  21.027  0.00  0.00    +0.000 A 
ATOM     29  N   UNL     1      48.690   3.836  19.848  0.00  0.00    +0.000 N 
ATOM     30  C   UNL     1      48.827   4.470  18.635  0.00  0.00    +0.000 A 
ATOM     31  O   UNL     1      48.913   3.835  17.589  0.00  0.00    +0.000 OA
ATOM     32  C   UNL     1      48.835   5.917  18.710  0.00  0.00    +0.000 A 
ATOM     33  H   UNL     1      48.686   2.828  19.825  0.00  0.00    +0.000 HD
ENDBRANCH  20  23
ENDBRANCH  18  19
ENDBRANCH   4  18
TORSDOF 7
ENDMDL
MODEL 3
REMARK VINA RESULT:    -8.145      2.732      3.298
REMARK INTER + INTRA:         -12.618
REMARK INTER:                 -11.650
REMARK INTRA:                  -0.968
REMARK UNBOUND:                -1.140
REMARK  Name = 
REMARK  8 active torsions:
REMARK  status: ('A' for Active; 'I' for Inactive)
REMARK    1  A    between atoms: C_1  and  C_2
REMARK    2  A    between atoms: C_2  and  N_3
REMARK    3  A    between atoms: C_2  and  C_25
REMARK    4  A    between atoms: N_3  and  C_4
REMARK    5  A    between atoms: C_4  and  C_5
REMARK    6  A    between atoms: C_8  and  C_9
REMARK    7  A    between atoms: C_9  and  N_10
REMARK    8  A    between atoms: C_11  and  C_13
REMARK                            x       y       z     vdW  Elec       q    Type
REMARK                         _______ _______ _______ _____ _____    ______ ____
ROOT
ATOM      1  C   UNL     1      45.512   4.316  12.476  0.00  0.00    +0.000 A 
ATOM      2  C   UNL     1      45.556   5.693  12.247  0.00  0.00    +0.000 A 
ATOM      3  C   UNL     1      46.523   6.471  12.877  0.00  0.00    +0.000 A 
ATOM      4  C   UNL     1      47.438   5.851  13.724  0.00  0.00    +0.000 A 
ATOM      5  N   UNL     1      47.400   4.519  13.984  0.00  0.00    +0.000 NA
ATOM      6  C   UNL     1      46.448   3.789  13.359  0.00  0.00    +0.000 A 
ENDROOT
BRANCH   1   7
ATOM      7  C   UNL     1      44.461   3.448  11.840  0.00  0.00    +0.000 C 
BRANCH   7   8
ATOM      8  N   UNL     1      45.042   2.570  10.826  0.00  0.00    +0.000 NA
ATOM      9  H   UNL     1      44.801   1.604  11.060  0.00  0.00    +0.000 HD
BRANCH   8  11
ATOM     10  C   UNL     1      44.057   4.278   9.278  0.00  0.00    +0.000 C 
ATOM     11  C   UNL     1      44.527   2.830   9.466  0.00  0.00    +0.000 C 
BRANCH  11  12
ATOM     12  C   UNL     1      45.580   2.479   8.411  0.00  0.00    +0.000 A 
ATOM     13  C   UNL     1      46.035   3.440   7.506  0.00  0.00    +0.000 A 
ATOM     14  C   UNL     1      46.997   3.082   6.563  0.00  0.00    +0.000 A 
ATOM     15  C   UNL     1      47.485   1.782   6.554  0.00  0.00    +0.000 A 
ATOM     16  C   UNL     1      46.987   0.890   7.488  0.00  0.00    +0.000 A 
ATOM     17  N   UNL     1      46.052   1.208   8.412  0.00  0.00    +0.000 NA
ENDBRANCH  11  12
ENDBRANCH   8  11
ENDBRANCH   7   8
ENDBRANCH   1   7
BRANCH   4  18
ATOM     18  C   UNL     1      48.498   6.668  14.423  0.00  0.00    +0.000 C 
BRANCH  18  19
ATOM     19  N   UNL     1      48.199   6.836  15.828  0.00  0.00    +0.000 N 
ATOM     20  C   UNL     1      48.947   6.223  16.797  0.00  0.00    +0.000 C 
ATOM     21  O   UNL     1      49.947   5.563  16.527  0.00  0.00    +0.000 OA
ATOM     22  H   UNL     1      47.266   7.177  16.044  0.00  0.00    +0.000 HD
BRANCH  20  23
ATOM     23  C   UNL     1      48.541   6.446  18.191  0.00  0.00    +0.000 A 
ATOM     24  C   UNL     1      48.575   5.386  19.087  0.00  0.00    +0.000 A 
ATOM     25  S   UNL     1      48.092   5.807  20.666  0.00  0.00    +0.000 S 
ATOM     26  C   UNL     1      47.776   7.412  20.199  0.00  0.00    +0.000 A 
ATOM     27  N   UNL     1      47.289   8.315  21.091  0.00  0.00    +0.000 NA
ATOM     28  C   UNL     1      47.061   9.485  20.594  0.00  0.00    +0.000 A 
ATOM     29  N   UNL     1      47.291   9.837  19.289  0.00  0.00    +0.000 N 
ATOM     30  C   UNL     1      47.823   8.970  18.363  0.00  0.00    +0.000 A 
ATOM     31  O   UNL     1      48.079   9.334  17.221  0.00  0.00    +0.000 OA
ATOM     32  C   UNL     1      48.065   7.632  18.863  0.00  0.00    +0.000 A 
ATOM     33  H   UNL     1      47.108  10.776  18.967  0.00  0.00    +0.000 HD
ENDBRANCH  20  23
ENDBRANCH  18  19
ENDBRANCH   4  18
TORSDOF 7
ENDMDL
MODEL 4
REMARK VINA RESULT:    -7.552      2.724      3.649
REMARK INTER + INTRA:         -11.783
REMARK INTER:                 -11.152
REMARK INTRA:                  -0.632
REMARK UNBOUND:                -1.140
REMARK  Name = 
REMARK  8 active torsions:
REMARK  status: ('A' for Active; 'I' for Inactive)
REMARK    1  A    between atoms: C_1  and  C_2
REMARK    2  A    between atoms: C_2  and  N_3
REMARK    3  A    between atoms: C_2  and  C_25
REMARK    4  A    between atoms: N_3  and  C_4
REMARK    5  A    between atoms: C_4  and  C_5
REMARK    6  A    between atoms: C_8  and  C_9
REMARK    7  A    between atoms: C_9  and  N_10
REMARK    8  A    between atoms: C_11  and  C_13
REMARK                            x       y       z     vdW  Elec       q    Type
REMARK                         _______ _______ _______ _____ _____    ______ ____
ROOT
ATOM      1  C   UNL     1      46.281   4.292  13.287  0.00  0.00    +0.000 A 
ATOM      2  C   UNL     1      46.571   5.588  12.855  0.00  0.00    +0.000 A 
ATOM      3  C   UNL     1      47.415   6.399  13.609  0.00  0.00    +0.000 A 
ATOM      4  C   UNL     1      47.963   5.890  14.784  0.00  0.00    +0.000 A 
ATOM      5  N   UNL     1      47.676   4.645  15.240  0.00  0.00    +0.000 NA
ATOM      6  C   UNL     1      46.850   3.881  14.487  0.00  0.00    +0.000 A 
ENDROOT
BRANCH   1   7
ATOM      7  C   UNL     1      45.347   3.400  12.518  0.00  0.00    +0.000 C 
BRANCH   7   8
ATOM      8  N   UNL     1      43.953   3.790  12.720  0.00  0.00    +0.000 NA
ATOM      9  H   UNL     1      43.933   4.604  13.339  0.00  0.00    +0.000 HD
BRANCH   8  11
ATOM     10  C   UNL     1      42.995   5.684  11.385  0.00  0.00    +0.000 C 
ATOM     11  C   UNL     1      43.270   4.177  11.468  0.00  0.00    +0.000 C 
BRANCH  11  12
ATOM     12  C   UNL     1      44.076   3.722  10.248  0.00  0.00    +0.000 A 
ATOM     13  C   UNL     1      44.824   4.636   9.502  0.00  0.00    +0.000 A 
ATOM     14  C   UNL     1      45.546   4.182   8.401  0.00  0.00    +0.000 A 
ATOM     15  C   UNL     1      45.512   2.833   8.077  0.00  0.00    +0.000 A 
ATOM     16  C   UNL     1      44.750   1.990   8.869  0.00  0.00    +0.000 A 
ATOM     17  N   UNL     1      44.037   2.402   9.942  0.00  0.00    +0.000 NA
ENDBRANCH  11  12
ENDBRANCH   8  11
ENDBRANCH   7   8
ENDBRANCH   1   7
BRANCH   4  18
ATOM     18  C   UNL     1      48.881   6.745  15.624  0.00  0.00    +0.000 C 
BRANCH  18  19
ATOM     19  N   UNL     1      49.950   5.964  16.206  0.00  0.00    +0.000 N 
ATOM     20  C   UNL     1      49.875   5.492  17.489  0.00  0.00    +0.000 C 
ATOM     21  O   UNL     1      48.871   5.644  18.181  0.00  0.00    +0.000 OA
ATOM     22  H   UNL     1      50.851   6.030  15.740  0.00  0.00    +0.000 HD
BRANCH  20  23
ATOM     23  C   UNL     1      51.027   4.728  17.985  0.00  0.00    +0.000 A 
ATOM     24  C   UNL     1      52.031   5.387  18.681  0.00  0.00    +0.000 A 
ATOM     25  S   UNL     1      53.290   4.364  19.205  0.00  0.00    +0.000 S 
ATOM     26  C   UNL     1      52.560   3.008  18.479  0.00  0.00    +0.000 A 
ATOM     27  N   UNL     1      53.156   1.787  18.525  0.00  0.00    +0.000 NA
ATOM     28  C   UNL     1      52.512   0.856  17.904  0.00  0.00    +0.000 A 
ATOM     29  N   UNL     1      51.318   1.033  17.254  0.00  0.00    +0.000 N 
ATOM     30  C   UNL     1      50.658   2.240  17.218  0.00  0.00    +0.000 A 
ATOM     31  O   UNL     1      49.559   2.351  16.686  0.00  0.00    +0.000 OA
ATOM     32  C   UNL     1      51.357   3.327  17.873  0.00  0.00    +0.000 A 
ATOM     33  H   UNL     1      50.856   0.259  16.802  0.00  0.00    +0.000 HD
ENDBRANCH  20  23
ENDBRANCH  18  19
ENDBRANCH   4  18
TORSDOF 7
ENDMDL
MODEL 5
REMARK VINA RESULT:    -7.367      2.832      8.492
REMARK INTER + INTRA:         -11.522
REMARK INTER:                 -10.044
REMARK INTRA:                  -1.479
REMARK UNBOUND:                -1.140
REMARK  Name = 
REMARK  8 active torsions:
REMARK  status: ('A' for Active; 'I' for Inactive)
REMARK    1  A    between atoms: C_1  and  C_2
REMARK    2  A    between atoms: C_2  and  N_3
REMARK    3  A    between atoms: C_2  and  C_25
REMARK    4  A    between atoms: N_3  and  C_4
REMARK    5  A    between atoms: C_4  and  C_5
REMARK    6  A    between atoms: C_8  and  C_9
REMARK    7  A    between atoms: C_9  and  N_10
REMARK    8  A    between atoms: C_11  and  C_13
REMARK                            x       y       z     vdW  Elec       q    Type
REMARK                         _______ _______ _______ _____ _____    ______ ____
ROOT
ATOM      1  C   UNL     1      48.802   7.899  16.154  0.00  0.00    +0.000 A 
ATOM      2  C   UNL     1      48.183   9.000  15.557  0.00  0.00    +0.000 A 
ATOM      3  C   UNL     1      47.814   8.947  14.216  0.00  0.00    +0.000 A 
ATOM      4  C   UNL     1      48.067   7.783  13.495  0.00  0.00    +0.000 A 
ATOM      5  N   UNL     1      48.691   6.710  14.043  0.00  0.00    +0.000 NA
ATOM      6  C   UNL     1      49.039   6.792  15.349  0.00  0.00    +0.000 A 
ENDROOT
BRANCH   1   7
ATOM      7  C   UNL     1      49.245   7.932  17.591  0.00  0.00    +0.000 C 
BRANCH   7   8
ATOM      8  N   UNL     1      48.156   7.554  18.490  0.00  0.00    +0.000 NA
ATOM      9  H   UNL     1      47.344   7.300  17.924  0.00  0.00    +0.000 HD
BRANCH   8  11
ATOM     10  C   UNL     1      47.570   6.277  20.566  0.00  0.00    +0.000 C 
ATOM     11  C   UNL     1      48.480   6.387  19.337  0.00  0.00    +0.000 C 
BRANCH  11  12
ATOM     12  C   UNL     1      48.419   5.092  18.521  0.00  0.00    +0.000 A 
ATOM     13  C   UNL     1      47.243   4.711  17.870  0.00  0.00    +0.000 A 
ATOM     14  C   UNL     1      47.229   3.527  17.136  0.00  0.00    +0.000 A 
ATOM     15  C   UNL     1      48.385   2.761  17.061  0.00  0.00    +0.000 A 
ATOM     16  C   UNL     1      49.510   3.211  17.729  0.00  0.00    +0.000 A 
ATOM     17  N   UNL     1      49.554   4.353  18.453  0.00  0.00    +0.000 NA
ENDBRANCH  11  12
ENDBRANCH   8  11
ENDBRANCH   7   8
ENDBRANCH   1   7
BRANCH   4  18
ATOM     18  C   UNL     1      47.680   7.695  12.038  0.00  0.00    +0.000 C 
BRANCH  18  19
ATOM     19  N   UNL     1      46.957   6.475  11.753  0.00  0.00    +0.000 N 
ATOM     20  C   UNL     1      45.592   6.414  11.848  0.00  0.00    +0.000 C 
ATOM     21  O   UNL     1      44.913   7.403  12.108  0.00  0.00    +0.000 OA
ATOM     22  H   UNL     1      47.507   5.621  11.765  0.00  0.00    +0.000 HD
BRANCH  20  23
ATOM     23  C   UNL     1      44.963   5.119  11.555  0.00  0.00    +0.000 A 
ATOM     24  C   UNL     1      44.240   4.475  12.550  0.00  0.00    +0.000 A 
ATOM     25  S   UNL     1      43.558   2.994  12.053  0.00  0.00    +0.000 S 
ATOM     26  C   UNL     1      44.244   3.139  10.502  0.00  0.00    +0.000 A 
ATOM     27  N   UNL     1      44.073   2.163   9.570  0.00  0.00    +0.000 NA
ATOM     28  C   UNL     1      44.676   2.385   8.451  0.00  0.00    +0.000 A 
ATOM     29  N   UNL     1      45.423   3.501   8.174  0.00  0.00    +0.000 N 
ATOM     30  C   UNL     1      45.588   4.532   9.070  0.00  0.00    +0.000 A 
ATOM     31  O   UNL     1      46.206   5.547   8.769  0.00  0.00    +0.000 OA
ATOM     32  C   UNL     1      44.957   4.316  10.356  0.00  0.00    +0.000 A 
ATOM     33  H   UNL     1      45.856   3.623   7.270  0.00  0.00    +0.000 HD
ENDBRANCH  20  23
ENDBRANCH  18  19
ENDBRANCH   4  18
TORSDOF 7
ENDMDL
MODEL 6
REMARK VINA RESULT:    -7.314      4.842      9.433
REMARK INTER + INTRA:         -11.447
REMARK INTER:                 -10.362
REMARK INTRA:                  -1.086
REMARK UNBOUND:                -1.140
REMARK  Name = 
REMARK  8 active torsions:
REMARK  status: ('A' for Active; 'I' for Inactive)
REMARK    1  A    between atoms: C_1  and  C_2
REMARK    2  A    between atoms: C_2  and  N_3
REMARK    3  A    between atoms: C_2  and  C_25
REMARK    4  A    between atoms: N_3  and  C_4
REMARK    5  A    between atoms: C_4  and  C_5
REMARK    6  A    between atoms: C_8  and  C_9
REMARK    7  A    between atoms: C_9  and  N_10
REMARK    8  A    between atoms: C_11  and  C_13
REMARK                            x       y       z     vdW  Elec       q    Type
REMARK                         _______ _______ _______ _____ _____    ______ ____
ROOT
ATOM      1  C   UNL     1      50.863   2.321  17.383  0.00  0.00    +0.000 A 
ATOM      2  C   UNL     1      49.477   2.307  17.207  0.00  0.00    +0.000 A 
ATOM      3  C   UNL     1      48.787   3.504  17.038  0.00  0.00    +0.000 A 
ATOM      4  C   UNL     1      49.502   4.699  17.039  0.00  0.00    +0.000 A 
ATOM      5  N   UNL     1      50.844   4.742  17.235  0.00  0.00    +0.000 NA
ATOM      6  C   UNL     1      51.488   3.563  17.399  0.00  0.00    +0.000 A 
ENDROOT
BRANCH   1   7
ATOM      7  C   UNL     1      51.638   1.051  17.602  0.00  0.00    +0.000 C 
BRANCH   7   8
ATOM      8  N   UNL     1      52.808   1.284  18.446  0.00  0.00    +0.000 NA
ATOM      9  H   UNL     1      52.705   0.732  19.300  0.00  0.00    +0.000 HD
BRANCH   8  11
ATOM     10  C   UNL     1      55.280   1.679  18.308  0.00  0.00    +0.000 C 
ATOM     11  C   UNL     1      54.076   0.870  17.810  0.00  0.00    +0.000 C 
BRANCH  11  12
ATOM     12  C   UNL     1      54.325  -0.626  18.020  0.00  0.00    +0.000 A 
ATOM     13  C   UNL     1      54.980  -1.386  17.049  0.00  0.00    +0.000 A 
ATOM     14  C   UNL     1      55.190  -2.745  17.279  0.00  0.00    +0.000 A 
ATOM     15  C   UNL     1      54.751  -3.306  18.471  0.00  0.00    +0.000 A 
ATOM     16  C   UNL     1      54.115  -2.483  19.385  0.00  0.00    +0.000 A 
ATOM     17  N   UNL     1      53.894  -1.164  19.188  0.00  0.00    +0.000 NA
ENDBRANCH  11  12
ENDBRANCH   8  11
ENDBRANCH   7   8
ENDBRANCH   1   7
BRANCH   4  18
ATOM     18  C   UNL     1      48.781   6.013  16.860  0.00  0.00    +0.000 C 
BRANCH  18  19
ATOM     19  N   UNL     1      47.808   5.944  15.792  0.00  0.00    +0.000 N 
ATOM     20  C   UNL     1      48.120   6.324  14.514  0.00  0.00    +0.000 C 
ATOM     21  O   UNL     1      49.255   6.669  14.196  0.00  0.00    +0.000 OA
ATOM     22  H   UNL     1      46.835   5.885  16.082  0.00  0.00    +0.000 HD
BRANCH  20  23
ATOM     23  C   UNL     1      47.048   6.232  13.513  0.00  0.00    +0.000 A 
ATOM     24  C   UNL     1      46.568   7.393  12.923  0.00  0.00    +0.000 A 
ATOM     25  S   UNL     1      45.341   7.121  11.772  0.00  0.00    +0.000 S 
ATOM     26  C   UNL     1      45.375   5.443  12.054  0.00  0.00    +0.000 A 
ATOM     27  N   UNL     1      44.523   4.609  11.402  0.00  0.00    +0.000 NA
ATOM     28  C   UNL     1      44.632   3.367  11.737  0.00  0.00    +0.000 A 
ATOM     29  N   UNL     1      45.527   2.882  12.656  0.00  0.00    +0.000 N 
ATOM     30  C   UNL     1      46.436   3.682  13.308  0.00  0.00    +0.000 A 
ATOM     31  O   UNL     1      47.269   3.210  14.074  0.00  0.00    +0.000 OA
ATOM     32  C   UNL     1      46.332   5.093  12.991  0.00  0.00    +0.000 A 
ATOM     33  H   UNL     1      45.574   1.896  12.861  0.00  0.00    +0.000 HD
ENDBRANCH  20  23
ENDBRANCH  18  19
ENDBRANCH   4  18
TORSDOF 7
ENDMDL
MODEL 7
REMARK VINA RESULT:    -7.135      4.315      9.387
REMARK INTER + INTRA:         -11.195
REMARK INTER:                  -9.918
REMARK INTRA:                  -1.277
REMARK UNBOUND:                -1.140
REMARK  Name = 
REMARK  8 active torsions:
REMARK  status: ('A' for Active; 'I' for Inactive)
REMARK    1  A    between atoms: C_1  and  C_2
REMARK    2  A    between atoms: C_2  and  N_3
REMARK    3  A    between atoms: C_2  and  C_25
REMARK    4  A    between atoms: N_3  and  C_4
REMARK    5  A    between atoms: C_4  and  C_5
REMARK    6  A    between atoms: C_8  and  C_9
REMARK    7  A    between atoms: C_9  and  N_10
REMARK    8  A    between atoms: C_11  and  C_13
REMARK                            x       y       z     vdW  Elec       q    Type
REMARK                         _______ _______ _______ _____ _____    ______ ____
ROOT
ATOM      1  C   UNL     1      50.615   2.268  17.496  0.00  0.00    +0.000 A 
ATOM      2  C   UNL     1      49.237   2.344  17.279  0.00  0.00    +0.000 A 
ATOM      3  C   UNL     1      48.644   3.575  17.015  0.00  0.00    +0.000 A 
ATOM      4  C   UNL     1      49.446   4.712  16.965  0.00  0.00    +0.000 A 
ATOM      5  N   UNL     1      50.783   4.669  17.199  0.00  0.00    +0.000 NA
ATOM      6  C   UNL     1      51.331   3.458  17.455  0.00  0.00    +0.000 A 
ENDROOT
BRANCH   1   7
ATOM      7  C   UNL     1      51.287   0.961  17.818  0.00  0.00    +0.000 C 
BRANCH   7   8
ATOM      8  N   UNL     1      52.434   0.726  16.944  0.00  0.00    +0.000 NA
ATOM      9  H   UNL     1      52.720   1.620  16.540  0.00  0.00    +0.000 HD
BRANCH   8  11
ATOM     10  C   UNL     1      54.554  -0.595  16.731  0.00  0.00    +0.000 C 
ATOM     11  C   UNL     1      53.605   0.175  17.657  0.00  0.00    +0.000 C 
BRANCH  11  12
ATOM     12  C   UNL     1      54.368   1.285  18.386  0.00  0.00    +0.000 A 
ATOM     13  C   UNL     1      54.782   2.434  17.706  0.00  0.00    +0.000 A 
ATOM     14  C   UNL     1      55.471   3.423  18.405  0.00  0.00    +0.000 A 
ATOM     15  C   UNL     1      55.721   3.247  19.759  0.00  0.00    +0.000 A 
ATOM     16  C   UNL     1      55.272   2.083  20.361  0.00  0.00    +0.000 A 
ATOM     17  N   UNL     1      54.605   1.105  19.709  0.00  0.00    +0.000 NA
ENDBRANCH  11  12
ENDBRANCH   8  11
ENDBRANCH   7   8
ENDBRANCH   1   7
BRANCH   4  18
ATOM     18  C   UNL     1      48.832   6.062  16.682  0.00  0.00    +0.000 C 
BRANCH  18  19
ATOM     19  N   UNL     1      47.817   5.979  15.654  0.00  0.00    +0.000 N 
ATOM     20  C   UNL     1      48.083   6.323  14.356  0.00  0.00    +0.000 C 
ATOM     21  O   UNL     1      49.209   6.646  13.986  0.00  0.00    +0.000 OA
ATOM     22  H   UNL     1      46.856   5.939  15.983  0.00  0.00    +0.000 HD
BRANCH  20  23
ATOM     23  C   UNL     1      46.973   6.220  13.400  0.00  0.00    +0.000 A 
ATOM     24  C   UNL     1      46.456   7.377  12.832  0.00  0.00    +0.000 A 
ATOM     25  S   UNL     1      45.186   7.092  11.732  0.00  0.00    +0.000 S 
ATOM     26  C   UNL     1      45.251   5.414  12.010  0.00  0.00    +0.000 A 
ATOM     27  N   UNL     1      44.381   4.572  11.391  0.00  0.00    +0.000 NA
ATOM     28  C   UNL     1      44.518   3.331  11.719  0.00  0.00    +0.000 A 
ATOM     29  N   UNL     1      45.456   2.855  12.600  0.00  0.00    +0.000 N 
ATOM     30  C   UNL     1      46.382   3.664  13.216  0.00  0.00    +0.000 A 
ATOM     31  O   UNL     1      47.250   3.200  13.947  0.00  0.00    +0.000 OA
ATOM     32  C   UNL     1      46.249   5.073  12.906  0.00  0.00    +0.000 A 
ATOM     33  H   UNL     1      45.522   1.868  12.801  0.00  0.00    +0.000 HD
ENDBRANCH  20  23
ENDBRANCH  18  19
ENDBRANCH   4  18
TORSDOF 7
ENDMDL
MODEL 8
REMARK VINA RESULT:    -7.037      4.355      9.598
REMARK INTER + INTRA:         -11.057
REMARK INTER:                 -10.090
REMARK INTRA:                  -0.967
REMARK UNBOUND:                -1.140
REMARK  Name = 
REMARK  8 active torsions:
REMARK  status: ('A' for Active; 'I' for Inactive)
REMARK    1  A    between atoms: C_1  and  C_2
REMARK    2  A    between atoms: C_2  and  N_3
REMARK    3  A    between atoms: C_2  and  C_25
REMARK    4  A    between atoms: N_3  and  C_4
REMARK    5  A    between atoms: C_4  and  C_5
REMARK    6  A    between atoms: C_8  and  C_9
REMARK    7  A    between atoms: C_9  and  N_10
REMARK    8  A    between atoms: C_11  and  C_13
REMARK                            x       y       z     vdW  Elec       q    Type
REMARK                         _______ _______ _______ _____ _____    ______ ____
ROOT
ATOM      1  C   UNL     1      51.322   3.643  17.857  0.00  0.00    +0.000 A 
ATOM      2  C   UNL     1      50.835   2.419  17.392  0.00  0.00    +0.000 A 
ATOM      3  C   UNL     1      49.492   2.291  17.049  0.00  0.00    +0.000 A 
ATOM      4  C   UNL     1      48.658   3.399  17.173  0.00  0.00    +0.000 A 
ATOM      5  N   UNL     1      49.099   4.591  17.648  0.00  0.00    +0.000 NA
ATOM      6  C   UNL     1      50.409   4.685  17.974  0.00  0.00    +0.000 A 
ENDROOT
BRANCH   1   7
ATOM      7  C   UNL     1      52.759   3.810  18.268  0.00  0.00    +0.000 C 
BRANCH   7   8
ATOM      8  N   UNL     1      53.113   2.889  19.346  0.00  0.00    +0.000 NA
ATOM      9  H   UNL     1      52.509   2.067  19.278  0.00  0.00    +0.000 HD
BRANCH   8  11
ATOM     10  C   UNL     1      55.125   2.162  20.651  0.00  0.00    +0.000 C 
ATOM     11  C   UNL     1      54.509   2.414  19.270  0.00  0.00    +0.000 C 
BRANCH  11  12
ATOM     12  C   UNL     1      54.604   1.147  18.414  0.00  0.00    +0.000 A 
ATOM     13  C   UNL     1      54.921   1.223  17.055  0.00  0.00    +0.000 A 
ATOM     14  C   UNL     1      55.000   0.047  16.312  0.00  0.00    +0.000 A 
ATOM     15  C   UNL     1      54.773  -1.170  16.940  0.00  0.00    +0.000 A 
ATOM     16  C   UNL     1      54.470  -1.160  18.291  0.00  0.00    +0.000 A 
ATOM     17  N   UNL     1      54.382  -0.036  19.038  0.00  0.00    +0.000 NA
ENDBRANCH  11  12
ENDBRANCH   8  11
ENDBRANCH   7   8
ENDBRANCH   1   7
BRANCH   4  18
ATOM     18  C   UNL     1      47.196   3.291  16.811  0.00  0.00    +0.000 C 
BRANCH  18  19
ATOM     19  N   UNL     1      46.806   4.311  15.862  0.00  0.00    +0.000 N 
ATOM     20  C   UNL     1      46.867   4.092  14.512  0.00  0.00    +0.000 C 
ATOM     21  O   UNL     1      47.182   3.002  14.043  0.00  0.00    +0.000 OA
ATOM     22  H   UNL     1      46.768   5.260  16.223  0.00  0.00    +0.000 HD
BRANCH  20  23
ATOM     23  C   UNL     1      46.466   5.204  13.640  0.00  0.00    +0.000 A 
ATOM     24  C   UNL     1      47.334   6.273  13.460  0.00  0.00    +0.000 A 
ATOM     25  S   UNL     1      46.735   7.474  12.409  0.00  0.00    +0.000 S 
ATOM     26  C   UNL     1      45.274   6.629  12.193  0.00  0.00    +0.000 A 
ATOM     27  N   UNL     1      44.281   7.142  11.417  0.00  0.00    +0.000 NA
ATOM     28  C   UNL     1      43.215   6.416  11.369  0.00  0.00    +0.000 A 
ATOM     29  N   UNL     1      43.056   5.217  12.015  0.00  0.00    +0.000 N 
ATOM     30  C   UNL     1      44.048   4.640  12.774  0.00  0.00    +0.000 A 
ATOM     31  O   UNL     1      43.900   3.535  13.285  0.00  0.00    +0.000 OA
ATOM     32  C   UNL     1      45.256   5.433  12.888  0.00  0.00    +0.000 A 
ATOM     33  H   UNL     1      42.203   4.688  11.922  0.00  0.00    +0.000 HD
ENDBRANCH  20  23
ENDBRANCH  18  19
ENDBRANCH   4  18
TORSDOF 7
ENDMDL
MODEL 9
REMARK VINA RESULT:    -6.959      1.793      2.715
REMARK INTER + INTRA:         -10.947
REMARK INTER:                 -10.357
REMARK INTRA:                  -0.590
REMARK UNBOUND:                -1.140
REMARK  Name = 
REMARK  8 active torsions:
REMARK  status: ('A' for Active; 'I' for Inactive)
REMARK    1  A    between atoms: C_1  and  C_2
REMARK    2  A    between atoms: C_2  and  N_3
REMARK    3  A    between atoms: C_2  and  C_25
REMARK    4  A    between atoms: N_3  and  C_4
REMARK    5  A    between atoms: C_4  and  C_5
REMARK    6  A    between atoms: C_8  and  C_9
REMARK    7  A    between atoms: C_9  and  N_10
REMARK    8  A    between atoms: C_11  and  C_13
REMARK                            x       y       z     vdW  Elec       q    Type
REMARK                         _______ _______ _______ _____ _____    ______ ____
ROOT
ATOM      1  C   UNL     1      44.577   5.517  11.006  0.00  0.00    +0.000 A 
ATOM      2  C   UNL     1      45.890   5.778  10.606  0.00  0.00    +0.000 A 
ATOM      3  C   UNL     1      46.730   6.523  11.428  0.00  0.00    +0.000 A 
ATOM      4  C   UNL     1      46.240   6.990  12.645  0.00  0.00    +0.000 A 
ATOM      5  N   UNL     1      44.961   6.774  13.044  0.00  0.00    +0.000 NA
ATOM      6  C   UNL     1      44.167   6.047  12.223  0.00  0.00    +0.000 A 
ENDROOT
BRANCH   1   7
ATOM      7  C   UNL     1      43.630   4.744  10.130  0.00  0.00    +0.000 C 
BRANCH   7   8
ATOM      8  N   UNL     1      44.298   4.259   8.924  0.00  0.00    +0.000 NA
ATOM      9  H   UNL     1      44.978   4.962   8.627  0.00  0.00    +0.000 HD
BRANCH   8  11
ATOM     10  C   UNL     1      44.114   1.800   9.376  0.00  0.00    +0.000 C 
ATOM     11  C   UNL     1      45.040   2.998   9.137  0.00  0.00    +0.000 C 
BRANCH  11  12
ATOM     12  C   UNL     1      45.974   2.714   7.957  0.00  0.00    +0.000 A 
ATOM     13  C   UNL     1      46.636   1.489   7.847  0.00  0.00    +0.000 A 
ATOM     14  C   UNL     1      47.475   1.268   6.757  0.00  0.00    +0.000 A 
ATOM     15  C   UNL     1      47.624   2.265   5.803  0.00  0.00    +0.000 A 
ATOM     16  C   UNL     1      46.928   3.448   5.981  0.00  0.00    +0.000 A 
ATOM     17  N   UNL     1      46.110   3.694   7.029  0.00  0.00    +0.000 NA
ENDBRANCH  11  12
ENDBRANCH   8  11
ENDBRANCH   7   8
ENDBRANCH   1   7
BRANCH   4  18
ATOM     18  C   UNL     1      47.127   7.803  13.557  0.00  0.00    +0.000 C 
BRANCH  18  19
ATOM     19  N   UNL     1      47.863   6.960  14.473  0.00  0.00    +0.000 N 
ATOM     20  C   UNL     1      48.778   7.481  15.348  0.00  0.00    +0.000 C 
ATOM     21  O   UNL     1      48.963   8.691  15.451  0.00  0.00    +0.000 OA
ATOM     22  H   UNL     1      47.887   5.970  14.241  0.00  0.00    +0.000 HD
BRANCH  20  23
ATOM     23  C   UNL     1      49.483   6.531  16.218  0.00  0.00    +0.000 A 
ATOM     24  C   UNL     1      48.747   5.679  17.031  0.00  0.00    +0.000 A 
ATOM     25  S   UNL     1      49.705   4.625  17.966  0.00  0.00    +0.000 S 
ATOM     26  C   UNL     1      51.141   5.301  17.352  0.00  0.00    +0.000 A 
ATOM     27  N   UNL     1      52.356   4.867  17.782  0.00  0.00    +0.000 NA
ATOM     28  C   UNL     1      53.359   5.490  17.261  0.00  0.00    +0.000 A 
ATOM     29  N   UNL     1      53.258   6.499  16.338  0.00  0.00    +0.000 N 
ATOM     30  C   UNL     1      52.053   6.942  15.844  0.00  0.00    +0.000 A 
ATOM     31  O   UNL     1      51.998   7.800  14.970  0.00  0.00    +0.000 OA
ATOM     32  C   UNL     1      50.892   6.296  16.423  0.00  0.00    +0.000 A 
ATOM     33  H   UNL     1      54.083   6.935  15.956  0.00  0.00    +0.000 HD
ENDBRANCH  20  23
ENDBRANCH  18  19
ENDBRANCH   4  18
TORSDOF 7
ENDMDL
