MODEL 1
REMARK VINA RESULT:    -7.025      0.000      0.000
REMARK INTER + INTRA:         -11.364
REMARK INTER:                 -10.311
REMARK INTRA:                  -1.053
REMARK UNBOUND:                -1.053
REMARK  Name = 
REMARK  9 active torsions:
REMARK  status: ('A' for Active; 'I' for Inactive)
REMARK    1  A    between atoms: N_1  and  C_2
REMARK    2  A    between atoms: C_2  and  C_3
REMARK    3  A    between atoms: C_6  and  C_7
REMARK    4  A    between atoms: C_7  and  N_8
REMARK    5  A    between atoms: N_8  and  C_9
REMARK    6  A    between atoms: N_8  and  C_13
REMARK    7  A    between atoms: C_9  and  C_10
REMARK    8  A    between atoms: C_10  and  C_11
REMARK    9  A    between atoms: C_11  and  O_12
REMARK                            x       y       z     vdW  Elec       q    Type
REMARK                         _______ _______ _______ _____ _____    ______ ____
ROOT
ATOM      1  N   UNL     1      44.004   5.232  10.833  0.00  0.00    +0.000 N 
ENDROOT
BRANCH   1   2
ATOM      2  C   UNL     1      44.950   6.184  11.249  0.00  0.00    +0.000 A 
ATOM      3  C   UNL     1      46.287   5.836  11.532  0.00  0.00    +0.000 A 
ATOM      4  C   UNL     1      47.231   6.764  11.993  0.00  0.00    +0.000 A 
ATOM      5  C   UNL     1      46.874   8.089  12.173  0.00  0.00    +0.000 A 
ATOM      6  C   UNL     1      45.577   8.485  11.873  0.00  0.00    +0.000 A 
ATOM      7  C   UNL     1      44.640   7.548  11.411  0.00  0.00    +0.000 A 
ENDBRANCH   1   2
BRANCH   1   8
ATOM      8  C   UNL     1      43.925   4.810   9.428  0.00  0.00    +0.000 C 
BRANCH   8  12
ATOM      9  C   UNL     1      46.765   2.196   7.476  0.00  0.00    +0.000 A 
ATOM     10  C   UNL     1      45.904   1.687   8.457  0.00  0.00    +0.000 A 
ATOM     11  C   UNL     1      45.060   2.536   9.180  0.00  0.00    +0.000 A 
ATOM     12  C   UNL     1      45.050   3.915   8.937  0.00  0.00    +0.000 A 
ATOM     13  C   UNL     1      45.997   4.431   8.033  0.00  0.00    +0.000 A 
ATOM     14  C   UNL     1      46.846   3.583   7.314  0.00  0.00    +0.000 A 
BRANCH   9  15
ATOM     15  C   UNL     1      47.529   1.257   6.575  0.00  0.00    +0.000 C 
BRANCH  15  16
ATOM     16  N   UNL     1      48.366   2.000   5.638  0.00  0.00    +0.000 NA
ATOM     17  H   UNL     1      49.262   2.211   6.069  0.00  0.00    +0.000 HD
ATOM     18  H   UNL     1      47.918   2.889   5.434  0.00  0.00    +0.000 HD
ENDBRANCH  15  16
ENDBRANCH   9  15
ENDBRANCH   8  12
ENDBRANCH   1   8
BRANCH   1  19
ATOM     19  C   UNL     1      42.894   4.930  11.754  0.00  0.00    +0.000 C 
BRANCH  19  20
ATOM     20  C   UNL     1      43.234   4.124  13.006  0.00  0.00    +0.000 C 
BRANCH  20  21
ATOM     21  C   UNL     1      43.784   2.757  12.602  0.00  0.00    +0.000 C 
BRANCH  21  22
ATOM     22  O   UNL     1      42.905   2.068  11.722  0.00  0.00    +0.000 OA
ATOM     23  H   UNL     1      43.118   2.306  10.806  0.00  0.00    +0.000 HD
ENDBRANCH  21  22
ENDBRANCH  20  21
ENDBRANCH  19  20
ENDBRANCH   1  19
TORSDOF 9
ENDMDL
MODEL 2
REMARK VINA RESULT:    -6.947      1.714      2.146
REMARK INTER + INTRA:         -11.250
REMARK INTER:                 -10.356
REMARK INTRA:                  -0.894
REMARK UNBOUND:                -1.053
REMARK  Name = 
REMARK  9 active torsions:
REMARK  status: ('A' for Active; 'I' for Inactive)
REMARK    1  A    between atoms: N_1  and  C_2
REMARK    2  A    between atoms: C_2  and  C_3
REMARK    3  A    between atoms: C_6  and  C_7
REMARK    4  A    between atoms: C_7  and  N_8
REMARK    5  A    between atoms: N_8  and  C_9
REMARK    6  A    between atoms: N_8  and  C_13
REMARK    7  A    between atoms: C_9  and  C_10
REMARK    8  A    between atoms: C_10  and  C_11
REMARK    9  A    between atoms: C_11  and  O_12
REMARK                            x       y       z     vdW  Elec       q    Type
REMARK                         _______ _______ _______ _____ _____    ______ ____
ROOT
ATOM      1  N   UNL     1      44.974   5.215  11.502  0.00  0.00    +0.000 N 
ENDROOT
BRANCH   1   2
ATOM      2  C   UNL     1      45.589   6.465  11.689  0.00  0.00    +0.000 A 
ATOM      3  C   UNL     1      46.987   6.632  11.604  0.00  0.00    +0.000 A 
ATOM      4  C   UNL     1      47.619   7.861  11.835  0.00  0.00    +0.000 A 
ATOM      5  C   UNL     1      46.869   8.983  12.145  0.00  0.00    +0.000 A 
ATOM      6  C   UNL     1      45.486   8.874  12.205  0.00  0.00    +0.000 A 
ATOM      7  C   UNL     1      44.863   7.638  11.971  0.00  0.00    +0.000 A 
ENDBRANCH   1   2
BRANCH   1   8
ATOM      8  C   UNL     1      44.158   4.947  10.310  0.00  0.00    +0.000 C 
BRANCH   8  12
ATOM      9  C   UNL     1      46.364   2.161   7.844  0.00  0.00    +0.000 A 
ATOM     10  C   UNL     1      46.446   3.537   7.591  0.00  0.00    +0.000 A 
ATOM     11  C   UNL     1      45.653   4.443   8.301  0.00  0.00    +0.000 A 
ATOM     12  C   UNL     1      44.763   4.000   9.287  0.00  0.00    +0.000 A 
ATOM     13  C   UNL     1      44.604   2.612   9.455  0.00  0.00    +0.000 A 
ATOM     14  C   UNL     1      45.393   1.703   8.740  0.00  0.00    +0.000 A 
BRANCH   9  15
ATOM     15  C   UNL     1      47.353   1.214   7.211  0.00  0.00    +0.000 C 
BRANCH  15  16
ATOM     16  N   UNL     1      48.357   1.945   6.443  0.00  0.00    +0.000 NA
ATOM     17  H   UNL     1      49.108   1.317   6.170  0.00  0.00    +0.000 HD
ATOM     18  H   UNL     1      48.768   2.658   7.038  0.00  0.00    +0.000 HD
ENDBRANCH  15  16
ENDBRANCH   9  15
ENDBRANCH   8  12
ENDBRANCH   1   8
BRANCH   1  19
ATOM     19  C   UNL     1      44.889   4.318  12.668  0.00  0.00    +0.000 C 
BRANCH  19  20
ATOM     20  C   UNL     1      46.073   3.386  12.910  0.00  0.00    +0.000 C 
BRANCH  20  21
ATOM     21  C   UNL     1      46.966   3.965  14.007  0.00  0.00    +0.000 C 
BRANCH  21  22
ATOM     22  O   UNL     1      47.591   2.947  14.778  0.00  0.00    +0.000 OA
ATOM     23  H   UNL     1      48.534   3.154  14.876  0.00  0.00    +0.000 HD
ENDBRANCH  21  22
ENDBRANCH  20  21
ENDBRANCH  19  20
ENDBRANCH   1  19
TORSDOF 9
ENDMDL
MODEL 3
REMARK VINA RESULT:    -6.651      1.771      2.431
REMARK INTER + INTRA:         -10.815
REMARK INTER:                 -10.377
REMARK INTRA:                  -0.438
REMARK UNBOUND:                -1.053
REMARK  Name = 
REMARK  9 active torsions:
REMARK  status: ('A' for Active; 'I' for Inactive)
REMARK    1  A    between atoms: N_1  and  C_2
REMARK    2  A    between atoms: C_2  and  C_3
REMARK    3  A    between atoms: C_6  and  C_7
REMARK    4  A    between atoms: C_7  and  N_8
REMARK    5  A    between atoms: N_8  and  C_9
REMARK    6  A    between atoms: N_8  and  C_13
REMARK    7  A    between atoms: C_9  and  C_10
REMARK    8  A    between atoms: C_10  and  C_11
REMARK    9  A    between atoms: C_11  and  O_12
REMARK                            x       y       z     vdW  Elec       q    Type
REMARK                         _______ _______ _______ _____ _____    ______ ____
ROOT
ATOM      1  N   UNL     1      45.316   5.069  11.542  0.00  0.00    +0.000 N 
ENDROOT
BRANCH   1   2
ATOM      2  C   UNL     1      46.379   5.767  12.143  0.00  0.00    +0.000 A 
ATOM      3  C   UNL     1      47.076   6.792  11.470  0.00  0.00    +0.000 A 
ATOM      4  C   UNL     1      48.167   7.464  12.037  0.00  0.00    +0.000 A 
ATOM      5  C   UNL     1      48.595   7.146  13.314  0.00  0.00    +0.000 A 
ATOM      6  C   UNL     1      47.917   6.166  14.028  0.00  0.00    +0.000 A 
ATOM      7  C   UNL     1      46.824   5.499  13.452  0.00  0.00    +0.000 A 
ENDBRANCH   1   2
BRANCH   1   8
ATOM      8  C   UNL     1      44.956   5.308  10.138  0.00  0.00    +0.000 C 
BRANCH   8  12
ATOM      9  C   UNL     1      46.460   2.024   7.760  0.00  0.00    +0.000 A 
ATOM     10  C   UNL     1      46.697   3.345   7.359  0.00  0.00    +0.000 A 
ATOM     11  C   UNL     1      46.123   4.417   8.049  0.00  0.00    +0.000 A 
ATOM     12  C   UNL     1      45.302   4.197   9.162  0.00  0.00    +0.000 A 
ATOM     13  C   UNL     1      44.978   2.868   9.488  0.00  0.00    +0.000 A 
ATOM     14  C   UNL     1      45.546   1.794   8.794  0.00  0.00    +0.000 A 
BRANCH   9  15
ATOM     15  C   UNL     1      47.230   0.890   7.130  0.00  0.00    +0.000 C 
BRANCH  15  16
ATOM     16  N   UNL     1      46.848  -0.390   7.719  0.00  0.00    +0.000 NA
ATOM     17  H   UNL     1      46.300  -0.927   7.051  0.00  0.00    +0.000 HD
ATOM     18  H   UNL     1      46.250  -0.215   8.521  0.00  0.00    +0.000 HD
ENDBRANCH  15  16
ENDBRANCH   9  15
ENDBRANCH   8  12
ENDBRANCH   1   8
BRANCH   1  19
ATOM     19  C   UNL     1      44.378   4.362  12.431  0.00  0.00    +0.000 C 
BRANCH  19  20
ATOM     20  C   UNL     1      43.201   5.168  12.975  0.00  0.00    +0.000 C 
BRANCH  20  21
ATOM     21  C   UNL     1      42.219   5.468  11.844  0.00  0.00    +0.000 C 
BRANCH  21  22
ATOM     22  O   UNL     1      42.163   6.856  11.542  0.00  0.00    +0.000 OA
ATOM     23  H   UNL     1      42.779   7.051  10.817  0.00  0.00    +0.000 HD
ENDBRANCH  21  22
ENDBRANCH  20  21
ENDBRANCH  19  20
ENDBRANCH   1  19
TORSDOF 9
ENDMDL
MODEL 4
REMARK VINA RESULT:    -6.119      1.784      5.718
REMARK INTER + INTRA:         -10.034
REMARK INTER:                  -8.977
REMARK INTRA:                  -1.057
REMARK UNBOUND:                -1.053
REMARK  Name = 
REMARK  9 active torsions:
REMARK  status: ('A' for Active; 'I' for Inactive)
REMARK    1  A    between atoms: N_1  and  C_2
REMARK    2  A    between atoms: C_2  and  C_3
REMARK    3  A    between atoms: C_6  and  C_7
REMARK    4  A    between atoms: C_7  and  N_8
REMARK    5  A    between atoms: N_8  and  C_9
REMARK    6  A    between atoms: N_8  and  C_13
REMARK    7  A    between atoms: C_9  and  C_10
REMARK    8  A    between atoms: C_10  and  C_11
REMARK    9  A    between atoms: C_11  and  O_12
REMARK                            x       y       z     vdW  Elec       q    Type
REMARK                         _______ _______ _______ _____ _____    ______ ____
ROOT
ATOM      1  N   UNL     1      44.683   3.347   9.452  0.00  0.00    +0.000 N 
ENDROOT
BRANCH   1   2
ATOM      2  C   UNL     1      45.513   2.869   8.424  0.00  0.00    +0.000 A 
ATOM      3  C   UNL     1      46.026   1.555   8.427  0.00  0.00    +0.000 A 
ATOM      4  C   UNL     1      46.893   1.077   7.435  0.00  0.00    +0.000 A 
ATOM      5  C   UNL     1      47.269   1.897   6.384  0.00  0.00    +0.000 A 
ATOM      6  C   UNL     1      46.760   3.188   6.321  0.00  0.00    +0.000 A 
ATOM      7  C   UNL     1      45.892   3.656   7.320  0.00  0.00    +0.000 A 
ENDBRANCH   1   2
BRANCH   1   8
ATOM      8  C   UNL     1      44.152   4.716   9.418  0.00  0.00    +0.000 C 
BRANCH   8  12
ATOM      9  C   UNL     1      46.254   7.034  12.404  0.00  0.00    +0.000 A 
ATOM     10  C   UNL     1      44.856   6.956  12.435  0.00  0.00    +0.000 A 
ATOM     11  C   UNL     1      44.152   6.310  11.414  0.00  0.00    +0.000 A 
ATOM     12  C   UNL     1      44.828   5.717  10.340  0.00  0.00    +0.000 A 
ATOM     13  C   UNL     1      46.221   5.898  10.259  0.00  0.00    +0.000 A 
ATOM     14  C   UNL     1      46.925   6.551  11.276  0.00  0.00    +0.000 A 
BRANCH   9  15
ATOM     15  C   UNL     1      47.011   7.565  13.597  0.00  0.00    +0.000 C 
BRANCH  15  16
ATOM     16  N   UNL     1      46.568   8.915  13.936  0.00  0.00    +0.000 NA
ATOM     17  H   UNL     1      46.774   9.110  14.912  0.00  0.00    +0.000 HD
ATOM     18  H   UNL     1      45.558   8.964  13.830  0.00  0.00    +0.000 HD
ENDBRANCH  15  16
ENDBRANCH   9  15
ENDBRANCH   8  12
ENDBRANCH   1   8
BRANCH   1  19
ATOM     19  C   UNL     1      44.640   2.574  10.707  0.00  0.00    +0.000 C 
BRANCH  19  20
ATOM     20  C   UNL     1      43.354   2.656  11.525  0.00  0.00    +0.000 C 
BRANCH  20  21
ATOM     21  C   UNL     1      43.656   3.260  12.896  0.00  0.00    +0.000 C 
BRANCH  21  22
ATOM     22  O   UNL     1      45.053   3.422  13.110  0.00  0.00    +0.000 OA
ATOM     23  H   UNL     1      45.400   4.072  12.479  0.00  0.00    +0.000 HD
ENDBRANCH  21  22
ENDBRANCH  20  21
ENDBRANCH  19  20
ENDBRANCH   1  19
TORSDOF 9
ENDMDL
MODEL 5
REMARK VINA RESULT:    -5.990      2.094      6.029
REMARK INTER + INTRA:          -9.844
REMARK INTER:                  -9.212
REMARK INTRA:                  -0.632
REMARK UNBOUND:                -1.053
REMARK  Name = 
REMARK  9 active torsions:
REMARK  status: ('A' for Active; 'I' for Inactive)
REMARK    1  A    between atoms: N_1  and  C_2
REMARK    2  A    between atoms: C_2  and  C_3
REMARK    3  A    between atoms: C_6  and  C_7
REMARK    4  A    between atoms: C_7  and  N_8
REMARK    5  A    between atoms: N_8  and  C_9
REMARK    6  A    between atoms: N_8  and  C_13
REMARK    7  A    between atoms: C_9  and  C_10
REMARK    8  A    between atoms: C_10  and  C_11
REMARK    9  A    between atoms: C_11  and  O_12
REMARK                            x       y       z     vdW  Elec       q    Type
REMARK                         _______ _______ _______ _____ _____    ______ ____
ROOT
ATOM      1  N   UNL     1      44.973   4.320  10.000  0.00  0.00    +0.000 N 
ENDROOT
BRANCH   1   2
ATOM      2  C   UNL     1      45.570   3.570   8.973  0.00  0.00    +0.000 A 
ATOM      3  C   UNL     1      45.612   2.160   9.003  0.00  0.00    +0.000 A 
ATOM      4  C   UNL     1      46.245   1.399   8.011  0.00  0.00    +0.000 A 
ATOM      5  C   UNL     1      46.850   2.023   6.933  0.00  0.00    +0.000 A 
ATOM      6  C   UNL     1      46.804   3.409   6.844  0.00  0.00    +0.000 A 
ATOM      7  C   UNL     1      46.167   4.162   7.842  0.00  0.00    +0.000 A 
ENDBRANCH   1   2
BRANCH   1   8
ATOM      8  C   UNL     1      45.208   5.766  10.112  0.00  0.00    +0.000 C 
BRANCH   8  12
ATOM      9  C   UNL     1      47.257   7.448  13.530  0.00  0.00    +0.000 A 
ATOM     10  C   UNL     1      47.449   6.103  13.191  0.00  0.00    +0.000 A 
ATOM     11  C   UNL     1      46.709   5.510  12.163  0.00  0.00    +0.000 A 
ATOM     12  C   UNL     1      45.764   6.250  11.441  0.00  0.00    +0.000 A 
ATOM     13  C   UNL     1      45.497   7.565  11.861  0.00  0.00    +0.000 A 
ATOM     14  C   UNL     1      46.231   8.157  12.895  0.00  0.00    +0.000 A 
BRANCH   9  15
ATOM     15  C   UNL     1      48.186   8.125  14.507  0.00  0.00    +0.000 C 
BRANCH  15  16
ATOM     16  N   UNL     1      47.473   9.121  15.301  0.00  0.00    +0.000 NA
ATOM     17  H   UNL     1      47.600  10.043  14.892  0.00  0.00    +0.000 HD
ATOM     18  H   UNL     1      47.880   9.150  16.232  0.00  0.00    +0.000 HD
ENDBRANCH  15  16
ENDBRANCH   9  15
ENDBRANCH   8  12
ENDBRANCH   1   8
BRANCH   1  19
ATOM     19  C   UNL     1      44.398   3.579  11.137  0.00  0.00    +0.000 C 
BRANCH  19  20
ATOM     20  C   UNL     1      43.025   4.028  11.630  0.00  0.00    +0.000 C 
BRANCH  20  21
ATOM     21  C   UNL     1      43.094   4.339  13.125  0.00  0.00    +0.000 C 
BRANCH  21  22
ATOM     22  O   UNL     1      42.846   5.713  13.395  0.00  0.00    +0.000 OA
ATOM     23  H   UNL     1      42.004   5.799  13.870  0.00  0.00    +0.000 HD
ENDBRANCH  21  22
ENDBRANCH  20  21
ENDBRANCH  19  20
ENDBRANCH   1  19
TORSDOF 9
ENDMDL
MODEL 6
REMARK VINA RESULT:    -5.883      2.682      5.999
REMARK INTER + INTRA:          -9.688
REMARK INTER:                  -8.233
REMARK INTRA:                  -1.455
REMARK UNBOUND:                -1.053
REMARK  Name = 
REMARK  9 active torsions:
REMARK  status: ('A' for Active; 'I' for Inactive)
REMARK    1  A    between atoms: N_1  and  C_2
REMARK    2  A    between atoms: C_2  and  C_3
REMARK    3  A    between atoms: C_6  and  C_7
REMARK    4  A    between atoms: C_7  and  N_8
REMARK    5  A    between atoms: N_8  and  C_9
REMARK    6  A    between atoms: N_8  and  C_13
REMARK    7  A    between atoms: C_9  and  C_10
REMARK    8  A    between atoms: C_10  and  C_11
REMARK    9  A    between atoms: C_11  and  O_12
REMARK                            x       y       z     vdW  Elec       q    Type
REMARK                         _______ _______ _______ _____ _____    ______ ____
ROOT
ATOM      1  N   UNL     1      44.729   5.161  11.376  0.00  0.00    +0.000 N 
ENDROOT
BRANCH   1   2
ATOM      2  C   UNL     1      44.965   4.350  10.253  0.00  0.00    +0.000 A 
ATOM      3  C   UNL     1      44.569   2.996  10.212  0.00  0.00    +0.000 A 
ATOM      4  C   UNL     1      44.839   2.161   9.120  0.00  0.00    +0.000 A 
ATOM      5  C   UNL     1      45.504   2.656   8.011  0.00  0.00    +0.000 A 
ATOM      6  C   UNL     1      45.882   3.992   7.993  0.00  0.00    +0.000 A 
ATOM      7  C   UNL     1      45.607   4.821   9.092  0.00  0.00    +0.000 A 
ENDBRANCH   1   2
BRANCH   1   8
ATOM      8  C   UNL     1      44.740   6.626  11.264  0.00  0.00    +0.000 C 
BRANCH   8  12
ATOM      9  C   UNL     1      48.274   8.080  13.291  0.00  0.00    +0.000 A 
ATOM     10  C   UNL     1      47.005   8.516  13.696  0.00  0.00    +0.000 A 
ATOM     11  C   UNL     1      45.860   8.149  12.981  0.00  0.00    +0.000 A 
ATOM     12  C   UNL     1      45.953   7.330  11.849  0.00  0.00    +0.000 A 
ATOM     13  C   UNL     1      47.237   6.991  11.385  0.00  0.00    +0.000 A 
ATOM     14  C   UNL     1      48.383   7.364  12.095  0.00  0.00    +0.000 A 
BRANCH   9  15
ATOM     15  C   UNL     1      49.475   8.323  14.171  0.00  0.00    +0.000 C 
BRANCH  15  16
ATOM     16  N   UNL     1      50.141   7.067  14.502  0.00  0.00    +0.000 NA
ATOM     17  H   UNL     1      50.535   7.121  15.438  0.00  0.00    +0.000 HD
ATOM     18  H   UNL     1      50.918   6.930  13.861  0.00  0.00    +0.000 HD
ENDBRANCH  15  16
ENDBRANCH   9  15
ENDBRANCH   8  12
ENDBRANCH   1   8
BRANCH   1  19
ATOM     19  C   UNL     1      44.810   4.526  12.704  0.00  0.00    +0.000 C 
BRANCH  19  20
ATOM     20  C   UNL     1      46.183   4.027  13.148  0.00  0.00    +0.000 C 
BRANCH  20  21
ATOM     21  C   UNL     1      46.567   4.692  14.470  0.00  0.00    +0.000 C 
BRANCH  21  22
ATOM     22  O   UNL     1      47.970   4.894  14.577  0.00  0.00    +0.000 OA
ATOM     23  H   UNL     1      48.138   5.713  15.069  0.00  0.00    +0.000 HD
ENDBRANCH  21  22
ENDBRANCH  20  21
ENDBRANCH  19  20
ENDBRANCH   1  19
TORSDOF 9
ENDMDL
MODEL 7
REMARK VINA RESULT:    -5.817      1.926      2.415
REMARK INTER + INTRA:          -9.592
REMARK INTER:                  -8.860
REMARK INTRA:                  -0.731
REMARK UNBOUND:                -1.053
REMARK  Name = 
REMARK  9 active torsions:
REMARK  status: ('A' for Active; 'I' for Inactive)
REMARK    1  A    between atoms: N_1  and  C_2
REMARK    2  A    between atoms: C_2  and  C_3
REMARK    3  A    between atoms: C_6  and  C_7
REMARK    4  A    between atoms: C_7  and  N_8
REMARK    5  A    between atoms: N_8  and  C_9
REMARK    6  A    between atoms: N_8  and  C_13
REMARK    7  A    between atoms: C_9  and  C_10
REMARK    8  A    between atoms: C_10  and  C_11
REMARK    9  A    between atoms: C_11  and  O_12
REMARK                            x       y       z     vdW  Elec       q    Type
REMARK                         _______ _______ _______ _____ _____    ______ ____
ROOT
ATOM      1  N   UNL     1      44.782   5.898  11.851  0.00  0.00    +0.000 N 
ENDROOT
BRANCH   1   2
ATOM      2  C   UNL     1      44.745   7.300  11.768  0.00  0.00    +0.000 A 
ATOM      3  C   UNL     1      45.661   8.115  12.465  0.00  0.00    +0.000 A 
ATOM      4  C   UNL     1      45.609   9.516  12.431  0.00  0.00    +0.000 A 
ATOM      5  C   UNL     1      44.641  10.158  11.678  0.00  0.00    +0.000 A 
ATOM      6  C   UNL     1      43.739   9.396  10.947  0.00  0.00    +0.000 A 
ATOM      7  C   UNL     1      43.801   7.994  10.988  0.00  0.00    +0.000 A 
ENDBRANCH   1   2
BRANCH   1   8
ATOM      8  C   UNL     1      44.090   5.065  10.859  0.00  0.00    +0.000 C 
BRANCH   8  12
ATOM      9  C   UNL     1      46.141   2.997   7.661  0.00  0.00    +0.000 A 
ATOM     10  C   UNL     1      45.473   2.266   8.653  0.00  0.00    +0.000 A 
ATOM     11  C   UNL     1      44.904   2.910   9.756  0.00  0.00    +0.000 A 
ATOM     12  C   UNL     1      44.980   4.302   9.892  0.00  0.00    +0.000 A 
ATOM     13  C   UNL     1      45.748   5.014   8.954  0.00  0.00    +0.000 A 
ATOM     14  C   UNL     1      46.325   4.370   7.854  0.00  0.00    +0.000 A 
BRANCH   9  15
ATOM     15  C   UNL     1      46.585   2.319   6.389  0.00  0.00    +0.000 C 
BRANCH  15  16
ATOM     16  N   UNL     1      47.159   3.285   5.457  0.00  0.00    +0.000 NA
ATOM     17  H   UNL     1      47.900   2.845   4.917  0.00  0.00    +0.000 HD
ATOM     18  H   UNL     1      47.585   4.039   5.988  0.00  0.00    +0.000 HD
ENDBRANCH  15  16
ENDBRANCH   9  15
ENDBRANCH   8  12
ENDBRANCH   1   8
BRANCH   1  19
ATOM     19  C   UNL     1      45.233   5.304  13.123  0.00  0.00    +0.000 C 
BRANCH  19  20
ATOM     20  C   UNL     1      46.718   4.972  13.242  0.00  0.00    +0.000 C 
BRANCH  20  21
ATOM     21  C   UNL     1      47.007   4.409  14.633  0.00  0.00    +0.000 C 
BRANCH  21  22
ATOM     22  O   UNL     1      47.465   3.064  14.578  0.00  0.00    +0.000 OA
ATOM     23  H   UNL     1      46.729   2.467  14.789  0.00  0.00    +0.000 HD
ENDBRANCH  21  22
ENDBRANCH  20  21
ENDBRANCH  19  20
ENDBRANCH   1  19
TORSDOF 9
ENDMDL
MODEL 8
REMARK VINA RESULT:    -5.472      2.920      6.184
REMARK INTER + INTRA:          -9.084
REMARK INTER:                  -8.017
REMARK INTRA:                  -1.067
REMARK UNBOUND:                -1.053
REMARK  Name = 
REMARK  9 active torsions:
REMARK  status: ('A' for Active; 'I' for Inactive)
REMARK    1  A    between atoms: N_1  and  C_2
REMARK    2  A    between atoms: C_2  and  C_3
REMARK    3  A    between atoms: C_6  and  C_7
REMARK    4  A    between atoms: C_7  and  N_8
REMARK    5  A    between atoms: N_8  and  C_9
REMARK    6  A    between atoms: N_8  and  C_13
REMARK    7  A    between atoms: C_9  and  C_10
REMARK    8  A    between atoms: C_10  and  C_11
REMARK    9  A    between atoms: C_11  and  O_12
REMARK                            x       y       z     vdW  Elec       q    Type
REMARK                         _______ _______ _______ _____ _____    ______ ____
ROOT
ATOM      1  N   UNL     1      44.977   5.464  11.805  0.00  0.00    +0.000 N 
ENDROOT
BRANCH   1   2
ATOM      2  C   UNL     1      45.029   4.618  10.683  0.00  0.00    +0.000 A 
ATOM      3  C   UNL     1      45.601   5.030   9.461  0.00  0.00    +0.000 A 
ATOM      4  C   UNL     1      45.618   4.218   8.320  0.00  0.00    +0.000 A 
ATOM      5  C   UNL     1      45.074   2.945   8.362  0.00  0.00    +0.000 A 
ATOM      6  C   UNL     1      44.531   2.484   9.554  0.00  0.00    +0.000 A 
ATOM      7  C   UNL     1      44.520   3.305  10.692  0.00  0.00    +0.000 A 
ENDBRANCH   1   2
BRANCH   1   8
ATOM      8  C   UNL     1      45.027   6.924  11.652  0.00  0.00    +0.000 C 
BRANCH   8  12
ATOM      9  C   UNL     1      48.665   8.340  13.516  0.00  0.00    +0.000 A 
ATOM     10  C   UNL     1      47.428   8.880  13.893  0.00  0.00    +0.000 A 
ATOM     11  C   UNL     1      46.255   8.520  13.223  0.00  0.00    +0.000 A 
ATOM     12  C   UNL     1      46.286   7.605  12.163  0.00  0.00    +0.000 A 
ATOM     13  C   UNL     1      47.542   7.155  11.718  0.00  0.00    +0.000 A 
ATOM     14  C   UNL     1      48.718   7.521  12.383  0.00  0.00    +0.000 A 
BRANCH   9  15
ATOM     15  C   UNL     1      49.890   8.587  14.361  0.00  0.00    +0.000 C 
BRANCH  15  16
ATOM     16  N   UNL     1      50.852   7.499  14.214  0.00  0.00    +0.000 NA
ATOM     17  H   UNL     1      51.737   7.760  14.643  0.00  0.00    +0.000 HD
ATOM     18  H   UNL     1      51.034   7.355  13.224  0.00  0.00    +0.000 HD
ENDBRANCH  15  16
ENDBRANCH   9  15
ENDBRANCH   8  12
ENDBRANCH   1   8
BRANCH   1  19
ATOM     19  C   UNL     1      45.213   4.855  13.126  0.00  0.00    +0.000 C 
BRANCH  19  20
ATOM     20  C   UNL     1      46.516   4.081  13.308  0.00  0.00    +0.000 C 
BRANCH  20  21
ATOM     21  C   UNL     1      47.006   4.234  14.747  0.00  0.00    +0.000 C 
BRANCH  21  22
ATOM     22  O   UNL     1      47.226   5.595  15.093  0.00  0.00    +0.000 OA
ATOM     23  H   UNL     1      47.724   6.030  14.383  0.00  0.00    +0.000 HD
ENDBRANCH  21  22
ENDBRANCH  20  21
ENDBRANCH  19  20
ENDBRANCH   1  19
TORSDOF 9
ENDMDL
MODEL 9
REMARK VINA RESULT:    -5.261      3.748      6.687
REMARK INTER + INTRA:          -8.775
REMARK INTER:                  -8.014
REMARK INTRA:                  -0.761
REMARK UNBOUND:                -1.053
REMARK  Name = 
REMARK  9 active torsions:
REMARK  status: ('A' for Active; 'I' for Inactive)
REMARK    1  A    between atoms: N_1  and  C_2
REMARK    2  A    between atoms: C_2  and  C_3
REMARK    3  A    between atoms: C_6  and  C_7
REMARK    4  A    between atoms: C_7  and  N_8
REMARK    5  A    between atoms: N_8  and  C_9
REMARK    6  A    between atoms: N_8  and  C_13
REMARK    7  A    between atoms: C_9  and  C_10
REMARK    8  A    between atoms: C_10  and  C_11
REMARK    9  A    between atoms: C_11  and  O_12
REMARK                            x       y       z     vdW  Elec       q    Type
REMARK                         _______ _______ _______ _____ _____    ______ ____
ROOT
ATOM      1  N   UNL     1      45.894   6.319  11.642  0.00  0.00    +0.000 N 
ENDROOT
BRANCH   1   2
ATOM      2  C   UNL     1      45.437   5.283  10.809  0.00  0.00    +0.000 A 
ATOM      3  C   UNL     1      44.682   4.201  11.307  0.00  0.00    +0.000 A 
ATOM      4  C   UNL     1      44.260   3.136  10.499  0.00  0.00    +0.000 A 
ATOM      5  C   UNL     1      44.565   3.123   9.149  0.00  0.00    +0.000 A 
ATOM      6  C   UNL     1      45.277   4.185   8.607  0.00  0.00    +0.000 A 
ATOM      7  C   UNL     1      45.695   5.247   9.425  0.00  0.00    +0.000 A 
ENDBRANCH   1   2
BRANCH   1   8
ATOM      8  C   UNL     1      47.252   6.295  12.201  0.00  0.00    +0.000 C 
BRANCH   8  12
ATOM      9  C   UNL     1      48.128   4.908  16.203  0.00  0.00    +0.000 A 
ATOM     10  C   UNL     1      47.169   4.245  15.427  0.00  0.00    +0.000 A 
ATOM     11  C   UNL     1      46.788   4.745  14.178  0.00  0.00    +0.000 A 
ATOM     12  C   UNL     1      47.362   5.917  13.668  0.00  0.00    +0.000 A 
ATOM     13  C   UNL     1      48.238   6.636  14.501  0.00  0.00    +0.000 A 
ATOM     14  C   UNL     1      48.614   6.141  15.755  0.00  0.00    +0.000 A 
BRANCH   9  15
ATOM     15  C   UNL     1      48.666   4.264  17.457  0.00  0.00    +0.000 C 
BRANCH  15  16
ATOM     16  N   UNL     1      49.801   3.398  17.151  0.00  0.00    +0.000 NA
ATOM     17  H   UNL     1      50.027   3.461  16.161  0.00  0.00    +0.000 HD
ATOM     18  H   UNL     1      49.536   2.434  17.333  0.00  0.00    +0.000 HD
ENDBRANCH  15  16
ENDBRANCH   9  15
ENDBRANCH   8  12
ENDBRANCH   1   8
BRANCH   1  19
ATOM     19  C   UNL     1      44.884   7.234  12.205  0.00  0.00    +0.000 C 
BRANCH  19  20
ATOM     20  C   UNL     1      45.372   8.606  12.660  0.00  0.00    +0.000 C 
BRANCH  20  21
ATOM     21  C   UNL     1      44.815   9.683  11.730  0.00  0.00    +0.000 C 
BRANCH  21  22
ATOM     22  O   UNL     1      43.704  10.359  12.303  0.00  0.00    +0.000 OA
ATOM     23  H   UNL     1      42.894   9.854  12.123  0.00  0.00    +0.000 HD
ENDBRANCH  21  22
ENDBRANCH  20  21
ENDBRANCH  19  20
ENDBRANCH   1  19
TORSDOF 9
ENDMDL
