MODEL 1
REMARK VINA RESULT:    -9.241      0.000      0.000
REMARK INTER + INTRA:         -12.156
REMARK INTER:                 -11.402
REMARK INTRA:                  -0.754
REMARK UNBOUND:                -0.754
REMARK  Name = 
REMARK  8 active torsions:
REMARK  status: ('A' for Active; 'I' for Inactive)
REMARK    1  A    between atoms: C_1  and  C_2
REMARK    2  A    between atoms: C_7  and  C_8
REMARK    3  A    between atoms: C_8  and  C_9
REMARK    4  A    between atoms: C_8  and  C_10
REMARK    5  A    between atoms: C_8  and  C_11
REMARK    6  A    between atoms: C_11  and  N_12
REMARK    7  A    between atoms: C_16  and  C_17
REMARK    8  A    between atoms: C_27  and  C_28
REMARK                            x       y       z     vdW  Elec       q    Type
REMARK                         _______ _______ _______ _____ _____    ______ ____
ROOT
ATOM      1  C   UNL     1      43.765   5.347  12.020  0.00  0.00    +0.000 C 
ATOM      2  C   UNL     1      42.725   5.073  13.127  0.00  0.00    +0.000 C 
ATOM      3  C   UNL     1      43.547   6.770  11.451  0.00  0.00    +0.000 C 
ENDROOT
BRANCH   1  10
ATOM      4  C   UNL     1      47.824   9.377  15.151  0.00  0.00    +0.000 C 
ATOM      5  C   UNL     1      48.384   9.653  13.754  0.00  0.00    +0.000 C 
ATOM      6  C   UNL     1      47.721   8.782  12.671  0.00  0.00    +0.000 C 
ATOM      7  N   UNL     1      48.202   7.403  12.760  0.00  0.00    +0.000 N 
ATOM      8  C   UNL     1      47.373   6.322  12.937  0.00  0.00    +0.000 A 
ATOM      9  C   UNL     1      46.056   6.356  12.481  0.00  0.00    +0.000 A 
ATOM     10  C   UNL     1      45.198   5.260  12.594  0.00  0.00    +0.000 A 
ATOM     11  C   UNL     1      45.722   4.136  13.231  0.00  0.00    +0.000 A 
ATOM     12  C   UNL     1      47.031   4.171  13.681  0.00  0.00    +0.000 A 
ATOM     13  F   UNL     1      47.518   3.079  14.296  0.00  0.00    +0.000 F 
ATOM     14  N   UNL     1      47.861   5.220  13.540  0.00  0.00    +0.000 NA
ATOM     15  C   UNL     1      49.657   7.246  12.811  0.00  0.00    +0.000 C 
ATOM     16  C   UNL     1      50.263   8.170  13.882  0.00  0.00    +0.000 C 
ATOM     17  C   UNL     1      51.782   8.165  13.781  0.00  0.00    +0.000 C 
ATOM     18  O   UNL     1      49.818   9.533  13.726  0.00  0.00    +0.000 OA
ENDBRANCH   1  10
BRANCH   1  19
ATOM     19  C   UNL     1      43.553   4.297  10.879  0.00  0.00    +0.000 C 
BRANCH  19  20
ATOM     20  N   UNL     1      43.894   4.835   9.557  0.00  0.00    +0.000 N 
ATOM     21  C   UNL     1      44.799   4.055   8.850  0.00  0.00    +0.000 A 
ATOM     22  N   UNL     1      44.806   2.731   9.031  0.00  0.00    +0.000 NA
ATOM     23  C   UNL     1      45.761   2.023   8.389  0.00  0.00    +0.000 A 
ATOM     24  C   UNL     1      46.694   2.590   7.558  0.00  0.00    +0.000 A 
ATOM     25  C   UNL     1      46.594   3.954   7.417  0.00  0.00    +0.000 A 
ATOM     26  N   UNL     1      45.659   4.705   8.052  0.00  0.00    +0.000 NA
ATOM     27  H   UNL     1      44.268   5.774   9.531  0.00  0.00    +0.000 HD
BRANCH  24  28
ATOM     28  C   UNL     1      47.737   1.751   6.962  0.00  0.00    +0.000 C 
ATOM     29  N   UNL     1      48.717   2.361   6.225  0.00  0.00    +0.000 N 
ATOM     30  O   UNL     1      47.728   0.540   7.113  0.00  0.00    +0.000 OA
ATOM     31  H   UNL     1      48.742   3.341   5.986  0.00  0.00    +0.000 HD
ATOM     32  H   UNL     1      49.399   1.751   5.788  0.00  0.00    +0.000 HD
ENDBRANCH  24  28
ENDBRANCH  19  20
ENDBRANCH   1  19
TORSDOF 4
ENDMDL
MODEL 2
REMARK VINA RESULT:    -8.975      2.620      3.473
REMARK INTER + INTRA:         -11.827
REMARK INTER:                 -11.234
REMARK INTRA:                  -0.593
REMARK UNBOUND:                -0.754
REMARK  Name = 
REMARK  8 active torsions:
REMARK  status: ('A' for Active; 'I' for Inactive)
REMARK    1  A    between atoms: C_1  and  C_2
REMARK    2  A    between atoms: C_7  and  C_8
REMARK    3  A    between atoms: C_8  and  C_9
REMARK    4  A    between atoms: C_8  and  C_10
REMARK    5  A    between atoms: C_8  and  C_11
REMARK    6  A    between atoms: C_11  and  N_12
REMARK    7  A    between atoms: C_16  and  C_17
REMARK    8  A    between atoms: C_27  and  C_28
REMARK                            x       y       z     vdW  Elec       q    Type
REMARK                         _______ _______ _______ _____ _____    ______ ____
ROOT
ATOM      1  C   UNL     1      44.298   4.954  12.474  0.00  0.00    +0.000 C 
ATOM      2  C   UNL     1      43.460   4.351  13.621  0.00  0.00    +0.000 C 
ATOM      3  C   UNL     1      43.622   6.253  11.972  0.00  0.00    +0.000 C 
ENDROOT
BRANCH   1  10
ATOM      4  C   UNL     1      48.801   2.064  16.200  0.00  0.00    +0.000 C 
ATOM      5  C   UNL     1      48.189   2.902  17.325  0.00  0.00    +0.000 C 
ATOM      6  C   UNL     1      47.085   3.849  16.819  0.00  0.00    +0.000 C 
ATOM      7  N   UNL     1      47.672   4.975  16.091  0.00  0.00    +0.000 N 
ATOM      8  C   UNL     1      47.354   5.282  14.791  0.00  0.00    +0.000 A 
ATOM      9  C   UNL     1      46.101   4.957  14.270  0.00  0.00    +0.000 A 
ATOM     10  C   UNL     1      45.721   5.299  12.971  0.00  0.00    +0.000 A 
ATOM     11  C   UNL     1      46.684   5.952  12.203  0.00  0.00    +0.000 A 
ATOM     12  C   UNL     1      47.917   6.229  12.769  0.00  0.00    +0.000 A 
ATOM     13  F   UNL     1      48.835   6.855  12.013  0.00  0.00    +0.000 F 
ATOM     14  N   UNL     1      48.264   5.923  14.033  0.00  0.00    +0.000 NA
ATOM     15  C   UNL     1      48.755   5.675  16.782  0.00  0.00    +0.000 C 
ATOM     16  C   UNL     1      49.804   4.674  17.297  0.00  0.00    +0.000 C 
ATOM     17  C   UNL     1      50.807   5.381  18.198  0.00  0.00    +0.000 C 
ATOM     18  O   UNL     1      49.199   3.613  18.065  0.00  0.00    +0.000 OA
ENDBRANCH   1  10
BRANCH   1  19
ATOM     19  C   UNL     1      44.348   3.914  11.306  0.00  0.00    +0.000 C 
BRANCH  19  20
ATOM     20  N   UNL     1      44.299   4.554   9.987  0.00  0.00    +0.000 N 
ATOM     21  C   UNL     1      45.092   3.935   9.032  0.00  0.00    +0.000 A 
ATOM     22  N   UNL     1      45.295   2.615   9.103  0.00  0.00    +0.000 NA
ATOM     23  C   UNL     1      46.144   2.070   8.205  0.00  0.00    +0.000 A 
ATOM     24  C   UNL     1      46.780   2.794   7.227  0.00  0.00    +0.000 A 
ATOM     25  C   UNL     1      46.492   4.138   7.219  0.00  0.00    +0.000 A 
ATOM     26  N   UNL     1      45.655   4.730   8.109  0.00  0.00    +0.000 NA
ATOM     27  H   UNL     1      44.545   5.535   9.949  0.00  0.00    +0.000 HD
BRANCH  24  28
ATOM     28  C   UNL     1      47.740   2.128   6.342  0.00  0.00    +0.000 C 
ATOM     29  N   UNL     1      48.056   2.734   5.156  0.00  0.00    +0.000 N 
ATOM     30  O   UNL     1      48.237   1.058   6.652  0.00  0.00    +0.000 OA
ATOM     31  H   UNL     1      47.623   3.570   4.794  0.00  0.00    +0.000 HD
ATOM     32  H   UNL     1      48.688   2.229   4.545  0.00  0.00    +0.000 HD
ENDBRANCH  24  28
ENDBRANCH  19  20
ENDBRANCH   1  19
TORSDOF 4
ENDMDL
MODEL 3
REMARK VINA RESULT:    -8.718      1.814      2.717
REMARK INTER + INTRA:         -11.510
REMARK INTER:                 -11.402
REMARK INTRA:                  -0.108
REMARK UNBOUND:                -0.754
REMARK  Name = 
REMARK  8 active torsions:
REMARK  status: ('A' for Active; 'I' for Inactive)
REMARK    1  A    between atoms: C_1  and  C_2
REMARK    2  A    between atoms: C_7  and  C_8
REMARK    3  A    between atoms: C_8  and  C_9
REMARK    4  A    between atoms: C_8  and  C_10
REMARK    5  A    between atoms: C_8  and  C_11
REMARK    6  A    between atoms: C_11  and  N_12
REMARK    7  A    between atoms: C_16  and  C_17
REMARK    8  A    between atoms: C_27  and  C_28
REMARK                            x       y       z     vdW  Elec       q    Type
REMARK                         _______ _______ _______ _____ _____    ______ ____
ROOT
ATOM      1  C   UNL     1      44.208   4.529  12.184  0.00  0.00    +0.000 C 
ATOM      2  C   UNL     1      45.410   3.576  12.349  0.00  0.00    +0.000 C 
ATOM      3  C   UNL     1      43.272   4.394  13.410  0.00  0.00    +0.000 C 
ENDROOT
BRANCH   1  10
ATOM      4  C   UNL     1      49.939   7.542  11.416  0.00  0.00    +0.000 C 
ATOM      5  C   UNL     1      49.929   7.624  12.943  0.00  0.00    +0.000 C 
ATOM      6  C   UNL     1      48.628   7.071  13.553  0.00  0.00    +0.000 C 
ATOM      7  N   UNL     1      47.525   8.010  13.342  0.00  0.00    +0.000 N 
ATOM      8  C   UNL     1      46.363   7.677  12.691  0.00  0.00    +0.000 A 
ATOM      9  C   UNL     1      45.896   6.363  12.699  0.00  0.00    +0.000 A 
ATOM     10  C   UNL     1      44.693   5.994  12.094  0.00  0.00    +0.000 A 
ATOM     11  C   UNL     1      43.998   7.013  11.442  0.00  0.00    +0.000 A 
ATOM     12  C   UNL     1      44.524   8.294  11.452  0.00  0.00    +0.000 A 
ATOM     13  F   UNL     1      43.843   9.262  10.815  0.00  0.00    +0.000 F 
ATOM     14  N   UNL     1      45.669   8.647  12.064  0.00  0.00    +0.000 NA
ATOM     15  C   UNL     1      47.796   9.395  13.729  0.00  0.00    +0.000 C 
ATOM     16  C   UNL     1      49.127   9.876  13.122  0.00  0.00    +0.000 C 
ATOM     17  C   UNL     1      49.509  11.231  13.701  0.00  0.00    +0.000 C 
ATOM     18  O   UNL     1      50.204   8.959  13.404  0.00  0.00    +0.000 OA
ENDBRANCH   1  10
BRANCH   1  19
ATOM     19  C   UNL     1      43.429   4.115  10.891  0.00  0.00    +0.000 C 
BRANCH  19  20
ATOM     20  N   UNL     1      43.908   4.828   9.701  0.00  0.00    +0.000 N 
ATOM     21  C   UNL     1      44.776   4.085   8.913  0.00  0.00    +0.000 A 
ATOM     22  N   UNL     1      44.640   2.757   8.860  0.00  0.00    +0.000 NA
ATOM     23  C   UNL     1      45.560   2.068   8.151  0.00  0.00    +0.000 A 
ATOM     24  C   UNL     1      46.598   2.662   7.477  0.00  0.00    +0.000 A 
ATOM     25  C   UNL     1      46.643   4.033   7.571  0.00  0.00    +0.000 A 
ATOM     26  N   UNL     1      45.746   4.764   8.282  0.00  0.00    +0.000 NA
ATOM     27  H   UNL     1      44.374   5.712   9.858  0.00  0.00    +0.000 HD
BRANCH  24  28
ATOM     28  C   UNL     1      47.590   1.828   6.794  0.00  0.00    +0.000 C 
ATOM     29  N   UNL     1      48.696   2.438   6.265  0.00  0.00    +0.000 N 
ATOM     30  O   UNL     1      47.430   0.622   6.694  0.00  0.00    +0.000 OA
ATOM     31  H   UNL     1      48.853   3.433   6.232  0.00  0.00    +0.000 HD
ATOM     32  H   UNL     1      49.342   1.841   5.760  0.00  0.00    +0.000 HD
ENDBRANCH  24  28
ENDBRANCH  19  20
ENDBRANCH   1  19
TORSDOF 4
ENDMDL
MODEL 4
REMARK VINA RESULT:    -7.979      2.071      2.434
REMARK INTER + INTRA:         -10.599
REMARK INTER:                 -10.105
REMARK INTRA:                  -0.494
REMARK UNBOUND:                -0.754
REMARK  Name = 
REMARK  8 active torsions:
REMARK  status: ('A' for Active; 'I' for Inactive)
REMARK    1  A    between atoms: C_1  and  C_2
REMARK    2  A    between atoms: C_7  and  C_8
REMARK    3  A    between atoms: C_8  and  C_9
REMARK    4  A    between atoms: C_8  and  C_10
REMARK    5  A    between atoms: C_8  and  C_11
REMARK    6  A    between atoms: C_11  and  N_12
REMARK    7  A    between atoms: C_16  and  C_17
REMARK    8  A    between atoms: C_27  and  C_28
REMARK                            x       y       z     vdW  Elec       q    Type
REMARK                         _______ _______ _______ _____ _____    ______ ____
ROOT
ATOM      1  C   UNL     1      45.860   6.448  12.016  0.00  0.00    +0.000 C 
ATOM      2  C   UNL     1      44.935   7.624  12.392  0.00  0.00    +0.000 C 
ATOM      3  C   UNL     1      46.876   6.915  10.946  0.00  0.00    +0.000 C 
ENDROOT
BRANCH   1  10
ATOM      4  C   UNL     1      48.072   9.140  17.528  0.00  0.00    +0.000 C 
ATOM      5  C   UNL     1      49.379   9.297  16.748  0.00  0.00    +0.000 C 
ATOM      6  C   UNL     1      49.305   8.670  15.344  0.00  0.00    +0.000 C 
ATOM      7  N   UNL     1      49.354   7.210  15.433  0.00  0.00    +0.000 N 
ATOM      8  C   UNL     1      48.378   6.388  14.927  0.00  0.00    +0.000 A 
ATOM      9  C   UNL     1      47.608   6.789  13.835  0.00  0.00    +0.000 A 
ATOM     10  C   UNL     1      46.643   5.961  13.258  0.00  0.00    +0.000 A 
ATOM     11  C   UNL     1      46.460   4.719  13.864  0.00  0.00    +0.000 A 
ATOM     12  C   UNL     1      47.241   4.386  14.958  0.00  0.00    +0.000 A 
ATOM     13  F   UNL     1      47.049   3.186  15.532  0.00  0.00    +0.000 F 
ATOM     14  N   UNL     1      48.191   5.178  15.489  0.00  0.00    +0.000 NA
ATOM     15  C   UNL     1      50.442   6.666  16.248  0.00  0.00    +0.000 C 
ATOM     16  C   UNL     1      50.489   7.360  17.621  0.00  0.00    +0.000 C 
ATOM     17  C   UNL     1      51.747   6.950  18.374  0.00  0.00    +0.000 C 
ATOM     18  O   UNL     1      50.504   8.797  17.493  0.00  0.00    +0.000 OA
ENDBRANCH   1  10
BRANCH   1  19
ATOM     19  C   UNL     1      44.977   5.300  11.424  0.00  0.00    +0.000 C 
BRANCH  19  20
ATOM     20  N   UNL     1      44.822   5.411   9.969  0.00  0.00    +0.000 N 
ATOM     21  C   UNL     1      45.293   4.309   9.269  0.00  0.00    +0.000 A 
ATOM     22  N   UNL     1      45.238   3.099   9.835  0.00  0.00    +0.000 NA
ATOM     23  C   UNL     1      45.787   2.071   9.153  0.00  0.00    +0.000 A 
ATOM     24  C   UNL     1      46.370   2.207   7.917  0.00  0.00    +0.000 A 
ATOM     25  C   UNL     1      46.359   3.483   7.406  0.00  0.00    +0.000 A 
ATOM     26  N   UNL     1      45.830   4.547   8.062  0.00  0.00    +0.000 NA
ATOM     27  H   UNL     1      45.248   6.215   9.527  0.00  0.00    +0.000 HD
BRANCH  24  28
ATOM     28  C   UNL     1      47.005   1.047   7.285  0.00  0.00    +0.000 C 
ATOM     29  N   UNL     1      46.644  -0.203   7.713  0.00  0.00    +0.000 N 
ATOM     30  O   UNL     1      47.839   1.193   6.406  0.00  0.00    +0.000 OA
ATOM     31  H   UNL     1      46.031  -0.399   8.489  0.00  0.00    +0.000 HD
ATOM     32  H   UNL     1      47.133  -0.984   7.289  0.00  0.00    +0.000 HD
ENDBRANCH  24  28
ENDBRANCH  19  20
ENDBRANCH   1  19
TORSDOF 4
ENDMDL
MODEL 5
REMARK VINA RESULT:    -6.814      3.926      6.014
REMARK INTER + INTRA:          -9.161
REMARK INTER:                  -8.537
REMARK INTRA:                  -0.624
REMARK UNBOUND:                -0.754
REMARK  Name = 
REMARK  8 active torsions:
REMARK  status: ('A' for Active; 'I' for Inactive)
REMARK    1  A    between atoms: C_1  and  C_2
REMARK    2  A    between atoms: C_7  and  C_8
REMARK    3  A    between atoms: C_8  and  C_9
REMARK    4  A    between atoms: C_8  and  C_10
REMARK    5  A    between atoms: C_8  and  C_11
REMARK    6  A    between atoms: C_11  and  N_12
REMARK    7  A    between atoms: C_16  and  C_17
REMARK    8  A    between atoms: C_27  and  C_28
REMARK                            x       y       z     vdW  Elec       q    Type
REMARK                         _______ _______ _______ _____ _____    ______ ____
ROOT
ATOM      1  C   UNL     1      49.305   8.003  13.120  0.00  0.00    +0.000 C 
ATOM      2  C   UNL     1      48.459   9.276  12.914  0.00  0.00    +0.000 C 
ATOM      3  C   UNL     1      50.621   8.124  12.316  0.00  0.00    +0.000 C 
ENDROOT
BRANCH   1  10
ATOM      4  C   UNL     1      50.009   2.979  17.218  0.00  0.00    +0.000 C 
ATOM      5  C   UNL     1      48.550   3.265  17.578  0.00  0.00    +0.000 C 
ATOM      6  C   UNL     1      47.998   4.507  16.854  0.00  0.00    +0.000 C 
ATOM      7  N   UNL     1      48.544   5.729  17.446  0.00  0.00    +0.000 N 
ATOM      8  C   UNL     1      49.243   6.668  16.730  0.00  0.00    +0.000 A 
ATOM      9  C   UNL     1      49.004   6.846  15.367  0.00  0.00    +0.000 A 
ATOM     10  C   UNL     1      49.656   7.826  14.616  0.00  0.00    +0.000 A 
ATOM     11  C   UNL     1      50.596   8.596  15.299  0.00  0.00    +0.000 A 
ATOM     12  C   UNL     1      50.804   8.359  16.647  0.00  0.00    +0.000 A 
ATOM     13  F   UNL     1      51.718   9.108  17.288  0.00  0.00    +0.000 F 
ATOM     14  N   UNL     1      50.149   7.433  17.371  0.00  0.00    +0.000 NA
ATOM     15  C   UNL     1      48.442   5.822  18.904  0.00  0.00    +0.000 C 
ATOM     16  C   UNL     1      48.972   4.538  19.566  0.00  0.00    +0.000 C 
ATOM     17  C   UNL     1      48.663   4.550  21.057  0.00  0.00    +0.000 C 
ATOM     18  O   UNL     1      48.365   3.357  19.003  0.00  0.00    +0.000 OA
ENDBRANCH   1  10
BRANCH   1  19
ATOM     19  C   UNL     1      48.485   6.780  12.588  0.00  0.00    +0.000 C 
BRANCH  19  20
ATOM     20  N   UNL     1      47.183   7.179  12.041  0.00  0.00    +0.000 N 
ATOM     21  C   UNL     1      46.317   6.117  11.823  0.00  0.00    +0.000 A 
ATOM     22  N   UNL     1      46.384   5.042  12.615  0.00  0.00    +0.000 NA
ATOM     23  C   UNL     1      45.582   3.998  12.311  0.00  0.00    +0.000 A 
ATOM     24  C   UNL     1      44.703   3.999  11.257  0.00  0.00    +0.000 A 
ATOM     25  C   UNL     1      44.689   5.155  10.513  0.00  0.00    +0.000 A 
ATOM     26  N   UNL     1      45.485   6.223  10.775  0.00  0.00    +0.000 NA
ATOM     27  H   UNL     1      47.196   7.700  11.174  0.00  0.00    +0.000 HD
BRANCH  24  28
ATOM     28  C   UNL     1      43.926   2.793  10.961  0.00  0.00    +0.000 C 
ATOM     29  N   UNL     1      44.311   2.017   9.900  0.00  0.00    +0.000 N 
ATOM     30  O   UNL     1      42.956   2.492  11.638  0.00  0.00    +0.000 OA
ATOM     31  H   UNL     1      45.044   2.246   9.247  0.00  0.00    +0.000 HD
ATOM     32  H   UNL     1      43.728   1.214   9.693  0.00  0.00    +0.000 HD
ENDBRANCH  24  28
ENDBRANCH  19  20
ENDBRANCH   1  19
TORSDOF 4
ENDMDL
MODEL 6
REMARK VINA RESULT:    -6.684      4.490      6.419
REMARK INTER + INTRA:          -9.001
REMARK INTER:                  -8.514
REMARK INTRA:                  -0.486
REMARK UNBOUND:                -0.754
REMARK  Name = 
REMARK  8 active torsions:
REMARK  status: ('A' for Active; 'I' for Inactive)
REMARK    1  A    between atoms: C_1  and  C_2
REMARK    2  A    between atoms: C_7  and  C_8
REMARK    3  A    between atoms: C_8  and  C_9
REMARK    4  A    between atoms: C_8  and  C_10
REMARK    5  A    between atoms: C_8  and  C_11
REMARK    6  A    between atoms: C_11  and  N_12
REMARK    7  A    between atoms: C_16  and  C_17
REMARK    8  A    between atoms: C_27  and  C_28
REMARK                            x       y       z     vdW  Elec       q    Type
REMARK                         _______ _______ _______ _____ _____    ______ ____
ROOT
ATOM      1  C   UNL     1      48.198   3.373  16.918  0.00  0.00    +0.000 C 
ATOM      2  C   UNL     1      49.006   2.197  16.334  0.00  0.00    +0.000 C 
ATOM      3  C   UNL     1      47.129   2.828  17.896  0.00  0.00    +0.000 C 
ENDROOT
BRANCH   1  10
ATOM      4  C   UNL     1      47.422   8.283  21.138  0.00  0.00    +0.000 C 
ATOM      5  C   UNL     1      47.520   9.167  19.894  0.00  0.00    +0.000 C 
ATOM      6  C   UNL     1      47.811   8.357  18.617  0.00  0.00    +0.000 C 
ATOM      7  N   UNL     1      49.206   7.914  18.601  0.00  0.00    +0.000 N 
ATOM      8  C   UNL     1      49.579   6.596  18.506  0.00  0.00    +0.000 A 
ATOM      9  C   UNL     1      48.761   5.671  17.857  0.00  0.00    +0.000 A 
ATOM     10  C   UNL     1      49.129   4.334  17.693  0.00  0.00    +0.000 A 
ATOM     11  C   UNL     1      50.351   3.962  18.253  0.00  0.00    +0.000 A 
ATOM     12  C   UNL     1      51.109   4.922  18.902  0.00  0.00    +0.000 A 
ATOM     13  F   UNL     1      52.282   4.544  19.440  0.00  0.00    +0.000 F 
ATOM     14  N   UNL     1      50.761   6.215  19.030  0.00  0.00    +0.000 NA
ATOM     15  C   UNL     1      50.201   8.957  18.858  0.00  0.00    +0.000 C 
ATOM     16  C   UNL     1      49.833   9.756  20.121  0.00  0.00    +0.000 C 
ATOM     17  C   UNL     1      50.742  10.969  20.258  0.00  0.00    +0.000 C 
ATOM     18  O   UNL     1      48.472  10.232  20.074  0.00  0.00    +0.000 OA
ENDBRANCH   1  10
BRANCH   1  19
ATOM     19  C   UNL     1      47.487   4.113  15.736  0.00  0.00    +0.000 C 
BRANCH  19  20
ATOM     20  N   UNL     1      47.336   3.257  14.554  0.00  0.00    +0.000 N 
ATOM     21  C   UNL     1      46.497   3.784  13.582  0.00  0.00    +0.000 A 
ATOM     22  N   UNL     1      46.416   5.111  13.435  0.00  0.00    +0.000 NA
ATOM     23  C   UNL     1      45.522   5.580  12.538  0.00  0.00    +0.000 A 
ATOM     24  C   UNL     1      44.723   4.771  11.770  0.00  0.00    +0.000 A 
ATOM     25  C   UNL     1      44.893   3.422  11.975  0.00  0.00    +0.000 A 
ATOM     26  N   UNL     1      45.770   2.907  12.874  0.00  0.00    +0.000 NA
ATOM     27  H   UNL     1      47.005   2.315  14.715  0.00  0.00    +0.000 HD
BRANCH  24  28
ATOM     28  C   UNL     1      43.731   5.372  10.875  0.00  0.00    +0.000 C 
ATOM     29  N   UNL     1      43.122   6.534  11.269  0.00  0.00    +0.000 N 
ATOM     30  O   UNL     1      43.449   4.847   9.810  0.00  0.00    +0.000 OA
ATOM     31  H   UNL     1      43.239   6.978  12.167  0.00  0.00    +0.000 HD
ATOM     32  H   UNL     1      42.408   6.903  10.650  0.00  0.00    +0.000 HD
ENDBRANCH  24  28
ENDBRANCH  19  20
ENDBRANCH   1  19
TORSDOF 4
ENDMDL
