MODEL 1
REMARK VINA RESULT:    -8.924      0.000      0.000
REMARK INTER + INTRA:         -12.977
REMARK INTER:                 -12.055
REMARK INTRA:                  -0.923
REMARK UNBOUND:                -0.923
REMARK  Name = 
REMARK  6 active torsions:
REMARK  status: ('A' for Active; 'I' for Inactive)
REMARK    1  A    between atoms: C_2  and  C_4
REMARK    2  A    between atoms: C_7  and  N_8
REMARK    3  A    between atoms: N_8  and  C_9
REMARK    4  A    between atoms: C_9  and  C_10
REMARK    5  A    between atoms: C_14  and  C_15
REMARK    6  A    between atoms: C_19  and  C_20
REMARK                            x       y       z     vdW  Elec       q    Type
REMARK                         _______ _______ _______ _____ _____    ______ ____
ROOT
ATOM      1  C   UNL     1      44.802   4.940  11.850  0.00  0.00    +0.000 A 
ATOM      2  C   UNL     1      45.200   4.053  12.856  0.00  0.00    +0.000 A 
ATOM      3  C   UNL     1      46.343   4.313  13.606  0.00  0.00    +0.000 A 
ATOM      4  C   UNL     1      47.093   5.467  13.363  0.00  0.00    +0.000 A 
ATOM      5  C   UNL     1      46.732   6.385  12.358  0.00  0.00    +0.000 A 
ATOM      6  C   UNL     1      45.568   6.097  11.618  0.00  0.00    +0.000 A 
ENDROOT
BRANCH   5   7
ATOM      7  C   UNL     1      47.549   7.594  12.086  0.00  0.00    +0.000 A 
ATOM      8  C   UNL     1      47.013   8.889  12.192  0.00  0.00    +0.000 A 
ATOM      9  C   UNL     1      47.782  10.027  11.925  0.00  0.00    +0.000 A 
ATOM     10  C   UNL     1      49.123   9.898  11.570  0.00  0.00    +0.000 A 
ATOM     11  C   UNL     1      49.701   8.629  11.471  0.00  0.00    +0.000 A 
ATOM     12  C   UNL     1      48.903   7.494  11.709  0.00  0.00    +0.000 A 
BRANCH  11  13
ATOM     13  C   UNL     1      51.161   8.457  11.129  0.00  0.00    +0.000 C 
ATOM     14  F   UNL     1      51.420   7.356  10.372  0.00  0.00    +0.000 F 
ATOM     15  F   UNL     1      51.653   9.516  10.425  0.00  0.00    +0.000 F 
ATOM     16  F   UNL     1      51.949   8.347  12.233  0.00  0.00    +0.000 F 
ENDBRANCH  11  13
ENDBRANCH   5   7
BRANCH   1  17
ATOM     17  C   UNL     1      43.560   4.661  11.034  0.00  0.00    +0.000 C 
BRANCH  17  18
ATOM     18  N   UNL     1      43.833   4.946   9.631  0.00  0.00    +0.000 N 
ATOM     19  H   UNL     1      44.209   5.881   9.502  0.00  0.00    +0.000 HD
BRANCH  18  23
ATOM     20  C   UNL     1      46.231   2.071   7.923  0.00  0.00    +0.000 A 
ATOM     21  C   UNL     1      46.368   3.404   7.573  0.00  0.00    +0.000 A 
ATOM     22  N   UNL     1      45.586   4.382   8.102  0.00  0.00    +0.000 NA
ATOM     23  C   UNL     1      44.648   3.996   8.995  0.00  0.00    +0.000 A 
ATOM     24  C   UNL     1      44.531   2.640   9.338  0.00  0.00    +0.000 A 
ATOM     25  N   UNL     1      45.296   1.646   8.815  0.00  0.00    +0.000 NA
BRANCH  20  27
ATOM     26  N   UNL     1      46.857  -0.250   7.650  0.00  0.00    +0.000 N 
ATOM     27  C   UNL     1      47.129   1.050   7.321  0.00  0.00    +0.000 C 
ATOM     28  O   UNL     1      48.058   1.348   6.580  0.00  0.00    +0.000 OA
ATOM     29  H   UNL     1      47.441  -0.990   7.287  0.00  0.00    +0.000 HD
ATOM     30  H   UNL     1      46.090  -0.464   8.277  0.00  0.00    +0.000 HD
ENDBRANCH  20  27
ENDBRANCH  18  23
ENDBRANCH  17  18
ENDBRANCH   1  17
TORSDOF 6
ENDMDL
MODEL 2
REMARK VINA RESULT:    -8.875      3.557      4.712
REMARK INTER + INTRA:         -12.910
REMARK INTER:                 -11.941
REMARK INTRA:                  -0.970
REMARK UNBOUND:                -0.923
REMARK  Name = 
REMARK  6 active torsions:
REMARK  status: ('A' for Active; 'I' for Inactive)
REMARK    1  A    between atoms: C_2  and  C_4
REMARK    2  A    between atoms: C_7  and  N_8
REMARK    3  A    between atoms: N_8  and  C_9
REMARK    4  A    between atoms: C_9  and  C_10
REMARK    5  A    between atoms: C_14  and  C_15
REMARK    6  A    between atoms: C_19  and  C_20
REMARK                            x       y       z     vdW  Elec       q    Type
REMARK                         _______ _______ _______ _____ _____    ______ ____
ROOT
ATOM      1  C   UNL     1      45.027   5.517  11.959  0.00  0.00    +0.000 A 
ATOM      2  C   UNL     1      45.125   6.779  11.362  0.00  0.00    +0.000 A 
ATOM      3  C   UNL     1      46.028   7.717  11.851  0.00  0.00    +0.000 A 
ATOM      4  C   UNL     1      46.849   7.399  12.937  0.00  0.00    +0.000 A 
ATOM      5  C   UNL     1      46.782   6.144  13.571  0.00  0.00    +0.000 A 
ATOM      6  C   UNL     1      45.861   5.213  13.051  0.00  0.00    +0.000 A 
ENDROOT
BRANCH   5   7
ATOM      7  C   UNL     1      47.636   5.824  14.742  0.00  0.00    +0.000 A 
ATOM      8  C   UNL     1      48.649   6.695  15.180  0.00  0.00    +0.000 A 
ATOM      9  C   UNL     1      49.460   6.387  16.278  0.00  0.00    +0.000 A 
ATOM     10  C   UNL     1      49.259   5.205  16.986  0.00  0.00    +0.000 A 
ATOM     11  C   UNL     1      48.251   4.318  16.596  0.00  0.00    +0.000 A 
ATOM     12  C   UNL     1      47.468   4.628  15.468  0.00  0.00    +0.000 A 
BRANCH  11  13
ATOM     13  C   UNL     1      47.981   3.049  17.367  0.00  0.00    +0.000 C 
ATOM     14  F   UNL     1      48.491   3.056  18.629  0.00  0.00    +0.000 F 
ATOM     15  F   UNL     1      46.647   2.805  17.507  0.00  0.00    +0.000 F 
ATOM     16  F   UNL     1      48.498   1.946  16.760  0.00  0.00    +0.000 F 
ENDBRANCH  11  13
ENDBRANCH   5   7
BRANCH   1  17
ATOM     17  C   UNL     1      44.048   4.495  11.429  0.00  0.00    +0.000 C 
BRANCH  17  18
ATOM     18  N   UNL     1      43.852   4.712  10.001  0.00  0.00    +0.000 N 
ATOM     19  H   UNL     1      43.874   5.699   9.763  0.00  0.00    +0.000 HD
BRANCH  18  23
ATOM     20  C   UNL     1      46.463   2.483   7.732  0.00  0.00    +0.000 A 
ATOM     21  C   UNL     1      46.375   3.855   7.564  0.00  0.00    +0.000 A 
ATOM     22  N   UNL     1      45.514   4.625   8.281  0.00  0.00    +0.000 NA
ATOM     23  C   UNL     1      44.730   3.988   9.179  0.00  0.00    +0.000 A 
ATOM     24  C   UNL     1      44.841   2.598   9.337  0.00  0.00    +0.000 A 
ATOM     25  N   UNL     1      45.688   1.809   8.625  0.00  0.00    +0.000 NA
BRANCH  20  27
ATOM     26  N   UNL     1      48.511   2.396   6.447  0.00  0.00    +0.000 N 
ATOM     27  C   UNL     1      47.437   1.698   6.928  0.00  0.00    +0.000 C 
ATOM     28  O   UNL     1      47.290   0.502   6.704  0.00  0.00    +0.000 OA
ATOM     29  H   UNL     1      49.200   1.924   5.879  0.00  0.00    +0.000 HD
ATOM     30  H   UNL     1      48.598   3.388   6.638  0.00  0.00    +0.000 HD
ENDBRANCH  20  27
ENDBRANCH  18  23
ENDBRANCH  17  18
ENDBRANCH   1  17
TORSDOF 6
ENDMDL
MODEL 3
REMARK VINA RESULT:    -8.053      1.313      1.685
REMARK INTER + INTRA:         -11.800
REMARK INTER:                 -10.803
REMARK INTRA:                  -0.996
REMARK UNBOUND:                -0.923
REMARK  Name = 
REMARK  6 active torsions:
REMARK  status: ('A' for Active; 'I' for Inactive)
REMARK    1  A    between atoms: C_2  and  C_4
REMARK    2  A    between atoms: C_7  and  N_8
REMARK    3  A    between atoms: N_8  and  C_9
REMARK    4  A    between atoms: C_9  and  C_10
REMARK    5  A    between atoms: C_14  and  C_15
REMARK    6  A    between atoms: C_19  and  C_20
REMARK                            x       y       z     vdW  Elec       q    Type
REMARK                         _______ _______ _______ _____ _____    ______ ____
ROOT
ATOM      1  C   UNL     1      45.453   5.709  11.743  0.00  0.00    +0.000 A 
ATOM      2  C   UNL     1      45.165   4.698  12.666  0.00  0.00    +0.000 A 
ATOM      3  C   UNL     1      46.029   4.456  13.730  0.00  0.00    +0.000 A 
ATOM      4  C   UNL     1      47.183   5.228  13.885  0.00  0.00    +0.000 A 
ATOM      5  C   UNL     1      47.514   6.253  12.978  0.00  0.00    +0.000 A 
ATOM      6  C   UNL     1      46.619   6.478  11.914  0.00  0.00    +0.000 A 
ENDROOT
BRANCH   5   7
ATOM      7  C   UNL     1      48.757   7.050  13.133  0.00  0.00    +0.000 A 
ATOM      8  C   UNL     1      49.165   7.550  14.382  0.00  0.00    +0.000 A 
ATOM      9  C   UNL     1      50.332   8.309  14.524  0.00  0.00    +0.000 A 
ATOM     10  C   UNL     1      51.138   8.567  13.418  0.00  0.00    +0.000 A 
ATOM     11  C   UNL     1      50.779   8.073  12.160  0.00  0.00    +0.000 A 
ATOM     12  C   UNL     1      49.584   7.340  12.030  0.00  0.00    +0.000 A 
BRANCH  11  13
ATOM     13  C   UNL     1      51.653   8.298  10.951  0.00  0.00    +0.000 C 
ATOM     14  F   UNL     1      52.986   8.272  11.225  0.00  0.00    +0.000 F 
ATOM     15  F   UNL     1      51.454   7.354   9.988  0.00  0.00    +0.000 F 
ATOM     16  F   UNL     1      51.417   9.497  10.350  0.00  0.00    +0.000 F 
ENDBRANCH  11  13
ENDBRANCH   5   7
BRANCH   1  17
ATOM     17  C   UNL     1      44.516   5.976  10.587  0.00  0.00    +0.000 C 
BRANCH  17  18
ATOM     18  N   UNL     1      43.927   4.718  10.144  0.00  0.00    +0.000 N 
ATOM     19  H   UNL     1      43.018   4.858   9.714  0.00  0.00    +0.000 HD
BRANCH  18  23
ATOM     20  C   UNL     1      46.392   2.369   7.835  0.00  0.00    +0.000 A 
ATOM     21  C   UNL     1      46.358   3.743   7.660  0.00  0.00    +0.000 A 
ATOM     22  N   UNL     1      45.547   4.552   8.391  0.00  0.00    +0.000 NA
ATOM     23  C   UNL     1      44.756   3.953   9.309  0.00  0.00    +0.000 A 
ATOM     24  C   UNL     1      44.812   2.561   9.473  0.00  0.00    +0.000 A 
ATOM     25  N   UNL     1      45.609   1.733   8.747  0.00  0.00    +0.000 NA
BRANCH  20  27
ATOM     26  N   UNL     1      48.380   2.200   6.465  0.00  0.00    +0.000 N 
ATOM     27  C   UNL     1      47.315   1.539   7.015  0.00  0.00    +0.000 C 
ATOM     28  O   UNL     1      47.135   0.341   6.836  0.00  0.00    +0.000 OA
ATOM     29  H   UNL     1      49.034   1.696   5.883  0.00  0.00    +0.000 HD
ATOM     30  H   UNL     1      48.494   3.195   6.620  0.00  0.00    +0.000 HD
ENDBRANCH  20  27
ENDBRANCH  18  23
ENDBRANCH  17  18
ENDBRANCH   1  17
TORSDOF 6
ENDMDL
MODEL 4
REMARK VINA RESULT:    -8.045      1.836      2.319
REMARK INTER + INTRA:         -11.789
REMARK INTER:                 -10.773
REMARK INTRA:                  -1.017
REMARK UNBOUND:                -0.923
REMARK  Name = 
REMARK  6 active torsions:
REMARK  status: ('A' for Active; 'I' for Inactive)
REMARK    1  A    between atoms: C_2  and  C_4
REMARK    2  A    between atoms: C_7  and  N_8
REMARK    3  A    between atoms: N_8  and  C_9
REMARK    4  A    between atoms: C_9  and  C_10
REMARK    5  A    between atoms: C_14  and  C_15
REMARK    6  A    between atoms: C_19  and  C_20
REMARK                            x       y       z     vdW  Elec       q    Type
REMARK                         _______ _______ _______ _____ _____    ______ ____
ROOT
ATOM      1  C   UNL     1      45.284   5.659  11.690  0.00  0.00    +0.000 A 
ATOM      2  C   UNL     1      45.086   4.711  12.700  0.00  0.00    +0.000 A 
ATOM      3  C   UNL     1      46.046   4.535  13.692  0.00  0.00    +0.000 A 
ATOM      4  C   UNL     1      47.207   5.312  13.689  0.00  0.00    +0.000 A 
ATOM      5  C   UNL     1      47.450   6.275  12.690  0.00  0.00    +0.000 A 
ATOM      6  C   UNL     1      46.459   6.434  11.702  0.00  0.00    +0.000 A 
ENDROOT
BRANCH   5   7
ATOM      7  C   UNL     1      48.699   7.076  12.677  0.00  0.00    +0.000 A 
ATOM      8  C   UNL     1      49.167   7.698  11.505  0.00  0.00    +0.000 A 
ATOM      9  C   UNL     1      50.350   8.444  11.492  0.00  0.00    +0.000 A 
ATOM     10  C   UNL     1      51.086   8.611  12.663  0.00  0.00    +0.000 A 
ATOM     11  C   UNL     1      50.647   8.024  13.855  0.00  0.00    +0.000 A 
ATOM     12  C   UNL     1      49.473   7.248  13.841  0.00  0.00    +0.000 A 
BRANCH  11  13
ATOM     13  C   UNL     1      51.398   8.221  15.148  0.00  0.00    +0.000 C 
ATOM     14  F   UNL     1      52.597   8.848  14.996  0.00  0.00    +0.000 F 
ATOM     15  F   UNL     1      50.697   8.973  16.043  0.00  0.00    +0.000 F 
ATOM     16  F   UNL     1      51.668   7.047  15.782  0.00  0.00    +0.000 F 
ENDBRANCH  11  13
ENDBRANCH   5   7
BRANCH   1  17
ATOM     17  C   UNL     1      44.242   5.855  10.611  0.00  0.00    +0.000 C 
BRANCH  17  18
ATOM     18  N   UNL     1      43.779   4.552  10.150  0.00  0.00    +0.000 N 
ATOM     19  H   UNL     1      42.852   4.607   9.736  0.00  0.00    +0.000 HD
BRANCH  18  23
ATOM     20  C   UNL     1      46.431   2.515   7.754  0.00  0.00    +0.000 A 
ATOM     21  C   UNL     1      46.266   3.883   7.621  0.00  0.00    +0.000 A 
ATOM     22  N   UNL     1      45.390   4.591   8.381  0.00  0.00    +0.000 NA
ATOM     23  C   UNL     1      44.667   3.893   9.286  0.00  0.00    +0.000 A 
ATOM     24  C   UNL     1      44.855   2.508   9.407  0.00  0.00    +0.000 A 
ATOM     25  N   UNL     1      45.719   1.781   8.652  0.00  0.00    +0.000 NA
BRANCH  20  27
ATOM     26  N   UNL     1      48.485   2.544   6.475  0.00  0.00    +0.000 N 
ATOM     27  C   UNL     1      47.419   1.800   6.903  0.00  0.00    +0.000 C 
ATOM     28  O   UNL     1      47.290   0.620   6.597  0.00  0.00    +0.000 OA
ATOM     29  H   UNL     1      49.183   2.121   5.880  0.00  0.00    +0.000 HD
ATOM     30  H   UNL     1      48.557   3.522   6.734  0.00  0.00    +0.000 HD
ENDBRANCH  20  27
ENDBRANCH  18  23
ENDBRANCH  17  18
ENDBRANCH   1  17
TORSDOF 6
ENDMDL
MODEL 5
REMARK VINA RESULT:    -7.628      5.932      8.190
REMARK INTER + INTRA:         -11.226
REMARK INTER:                 -10.271
REMARK INTRA:                  -0.955
REMARK UNBOUND:                -0.923
REMARK  Name = 
REMARK  6 active torsions:
REMARK  status: ('A' for Active; 'I' for Inactive)
REMARK    1  A    between atoms: C_2  and  C_4
REMARK    2  A    between atoms: C_7  and  N_8
REMARK    3  A    between atoms: N_8  and  C_9
REMARK    4  A    between atoms: C_9  and  C_10
REMARK    5  A    between atoms: C_14  and  C_15
REMARK    6  A    between atoms: C_19  and  C_20
REMARK                            x       y       z     vdW  Elec       q    Type
REMARK                         _______ _______ _______ _____ _____    ______ ____
ROOT
ATOM      1  C   UNL     1      48.132   6.642  14.319  0.00  0.00    +0.000 A 
ATOM      2  C   UNL     1      48.649   7.552  13.391  0.00  0.00    +0.000 A 
ATOM      3  C   UNL     1      48.163   7.575  12.087  0.00  0.00    +0.000 A 
ATOM      4  C   UNL     1      47.148   6.695  11.703  0.00  0.00    +0.000 A 
ATOM      5  C   UNL     1      46.600   5.760  12.602  0.00  0.00    +0.000 A 
ATOM      6  C   UNL     1      47.109   5.762  13.915  0.00  0.00    +0.000 A 
ENDROOT
BRANCH   5   7
ATOM      7  C   UNL     1      45.543   4.808  12.178  0.00  0.00    +0.000 A 
ATOM      8  C   UNL     1      44.390   4.589  12.953  0.00  0.00    +0.000 A 
ATOM      9  C   UNL     1      43.399   3.684  12.556  0.00  0.00    +0.000 A 
ATOM     10  C   UNL     1      43.524   2.992  11.354  0.00  0.00    +0.000 A 
ATOM     11  C   UNL     1      44.645   3.194  10.543  0.00  0.00    +0.000 A 
ATOM     12  C   UNL     1      45.649   4.082  10.975  0.00  0.00    +0.000 A 
BRANCH  11  13
ATOM     13  C   UNL     1      44.790   2.492   9.216  0.00  0.00    +0.000 C 
ATOM     14  F   UNL     1      44.198   1.266   9.178  0.00  0.00    +0.000 F 
ATOM     15  F   UNL     1      44.236   3.203   8.194  0.00  0.00    +0.000 F 
ATOM     16  F   UNL     1      46.090   2.291   8.867  0.00  0.00    +0.000 F 
ENDBRANCH  11  13
ENDBRANCH   5   7
BRANCH   1  17
ATOM     17  C   UNL     1      48.656   6.614  15.737  0.00  0.00    +0.000 C 
BRANCH  17  18
ATOM     18  N   UNL     1      48.088   5.469  16.437  0.00  0.00    +0.000 N 
ATOM     19  H   UNL     1      47.318   5.055  15.920  0.00  0.00    +0.000 HD
BRANCH  18  23
ATOM     20  C   UNL     1      50.963   2.699  17.430  0.00  0.00    +0.000 A 
ATOM     21  C   UNL     1      49.732   2.294  16.941  0.00  0.00    +0.000 A 
ATOM     22  N   UNL     1      48.750   3.176  16.617  0.00  0.00    +0.000 NA
ATOM     23  C   UNL     1      49.025   4.487  16.797  0.00  0.00    +0.000 A 
ATOM     24  C   UNL     1      50.281   4.874  17.289  0.00  0.00    +0.000 A 
ATOM     25  N   UNL     1      51.273   4.009  17.627  0.00  0.00    +0.000 NA
BRANCH  20  27
ATOM     26  N   UNL     1      51.544   0.423  18.011  0.00  0.00    +0.000 N 
ATOM     27  C   UNL     1      52.003   1.685  17.751  0.00  0.00    +0.000 C 
ATOM     28  O   UNL     1      53.197   1.958  17.787  0.00  0.00    +0.000 OA
ATOM     29  H   UNL     1      52.198  -0.308  18.253  0.00  0.00    +0.000 HD
ATOM     30  H   UNL     1      50.548   0.231  17.988  0.00  0.00    +0.000 HD
ENDBRANCH  20  27
ENDBRANCH  18  23
ENDBRANCH  17  18
ENDBRANCH   1  17
TORSDOF 6
ENDMDL
MODEL 6
REMARK VINA RESULT:    -7.434      5.429      8.017
REMARK INTER + INTRA:         -10.964
REMARK INTER:                 -10.032
REMARK INTRA:                  -0.931
REMARK UNBOUND:                -0.923
REMARK  Name = 
REMARK  6 active torsions:
REMARK  status: ('A' for Active; 'I' for Inactive)
REMARK    1  A    between atoms: C_2  and  C_4
REMARK    2  A    between atoms: C_7  and  N_8
REMARK    3  A    between atoms: N_8  and  C_9
REMARK    4  A    between atoms: C_9  and  C_10
REMARK    5  A    between atoms: C_14  and  C_15
REMARK    6  A    between atoms: C_19  and  C_20
REMARK                            x       y       z     vdW  Elec       q    Type
REMARK                         _______ _______ _______ _____ _____    ______ ____
ROOT
ATOM      1  C   UNL     1      46.805   7.982  13.148  0.00  0.00    +0.000 A 
ATOM      2  C   UNL     1      46.076   9.136  12.840  0.00  0.00    +0.000 A 
ATOM      3  C   UNL     1      45.016   9.075  11.940  0.00  0.00    +0.000 A 
ATOM      4  C   UNL     1      44.669   7.858  11.348  0.00  0.00    +0.000 A 
ATOM      5  C   UNL     1      45.377   6.672  11.626  0.00  0.00    +0.000 A 
ATOM      6  C   UNL     1      46.442   6.764  12.543  0.00  0.00    +0.000 A 
ENDROOT
BRANCH   5   7
ATOM      7  C   UNL     1      45.021   5.388  10.971  0.00  0.00    +0.000 A 
ATOM      8  C   UNL     1      44.039   4.533  11.502  0.00  0.00    +0.000 A 
ATOM      9  C   UNL     1      43.712   3.319  10.889  0.00  0.00    +0.000 A 
ATOM     10  C   UNL     1      44.344   2.940   9.707  0.00  0.00    +0.000 A 
ATOM     11  C   UNL     1      45.313   3.769   9.134  0.00  0.00    +0.000 A 
ATOM     12  C   UNL     1      45.654   4.971   9.784  0.00  0.00    +0.000 A 
BRANCH  11  13
ATOM     13  C   UNL     1      45.985   3.407   7.833  0.00  0.00    +0.000 C 
ATOM     14  F   UNL     1      45.128   3.321   6.779  0.00  0.00    +0.000 F 
ATOM     15  F   UNL     1      46.930   4.320   7.469  0.00  0.00    +0.000 F 
ATOM     16  F   UNL     1      46.629   2.209   7.891  0.00  0.00    +0.000 F 
ENDBRANCH  11  13
ENDBRANCH   5   7
BRANCH   1  17
ATOM     17  C   UNL     1      47.956   8.044  14.126  0.00  0.00    +0.000 C 
BRANCH  17  18
ATOM     18  N   UNL     1      48.610   6.742  14.181  0.00  0.00    +0.000 N 
ATOM     19  H   UNL     1      49.563   6.784  13.833  0.00  0.00    +0.000 HD
BRANCH  18  23
ATOM     20  C   UNL     1      48.671   4.986  17.901  0.00  0.00    +0.000 A 
ATOM     21  C   UNL     1      47.952   4.417  16.863  0.00  0.00    +0.000 A 
ATOM     22  N   UNL     1      47.893   4.973  15.624  0.00  0.00    +0.000 NA
ATOM     23  C   UNL     1      48.572   6.128  15.443  0.00  0.00    +0.000 A 
ATOM     24  C   UNL     1      49.298   6.683  16.507  0.00  0.00    +0.000 A 
ATOM     25  N   UNL     1      49.363   6.148  17.755  0.00  0.00    +0.000 NA
BRANCH  20  27
ATOM     26  N   UNL     1      48.258   3.027  19.261  0.00  0.00    +0.000 N 
ATOM     27  C   UNL     1      48.709   4.319  19.230  0.00  0.00    +0.000 C 
ATOM     28  O   UNL     1      49.115   4.886  20.237  0.00  0.00    +0.000 OA
ATOM     29  H   UNL     1      48.243   2.524  20.136  0.00  0.00    +0.000 HD
ATOM     30  H   UNL     1      47.916   2.590  18.413  0.00  0.00    +0.000 HD
ENDBRANCH  20  27
ENDBRANCH  18  23
ENDBRANCH  17  18
ENDBRANCH   1  17
TORSDOF 6
ENDMDL
MODEL 7
REMARK VINA RESULT:    -6.897      5.591      8.422
REMARK INTER + INTRA:         -10.240
REMARK INTER:                  -9.244
REMARK INTRA:                  -0.995
REMARK UNBOUND:                -0.923
REMARK  Name = 
REMARK  6 active torsions:
REMARK  status: ('A' for Active; 'I' for Inactive)
REMARK    1  A    between atoms: C_2  and  C_4
REMARK    2  A    between atoms: C_7  and  N_8
REMARK    3  A    between atoms: N_8  and  C_9
REMARK    4  A    between atoms: C_9  and  C_10
REMARK    5  A    between atoms: C_14  and  C_15
REMARK    6  A    between atoms: C_19  and  C_20
REMARK                            x       y       z     vdW  Elec       q    Type
REMARK                         _______ _______ _______ _____ _____    ______ ____
ROOT
ATOM      1  C   UNL     1      47.714   7.988  11.955  0.00  0.00    +0.000 A 
ATOM      2  C   UNL     1      46.944   9.136  12.166  0.00  0.00    +0.000 A 
ATOM      3  C   UNL     1      45.555   9.050  12.204  0.00  0.00    +0.000 A 
ATOM      4  C   UNL     1      44.926   7.814  12.041  0.00  0.00    +0.000 A 
ATOM      5  C   UNL     1      45.661   6.632  11.823  0.00  0.00    +0.000 A 
ATOM      6  C   UNL     1      47.065   6.750  11.794  0.00  0.00    +0.000 A 
ENDROOT
BRANCH   5   7
ATOM      7  C   UNL     1      44.984   5.327  11.622  0.00  0.00    +0.000 A 
ATOM      8  C   UNL     1      44.063   4.819  12.556  0.00  0.00    +0.000 A 
ATOM      9  C   UNL     1      43.432   3.584  12.369  0.00  0.00    +0.000 A 
ATOM     10  C   UNL     1      43.690   2.833  11.225  0.00  0.00    +0.000 A 
ATOM     11  C   UNL     1      44.585   3.309  10.261  0.00  0.00    +0.000 A 
ATOM     12  C   UNL     1      45.235   4.538  10.483  0.00  0.00    +0.000 A 
BRANCH  11  13
ATOM     13  C   UNL     1      44.853   2.540   8.992  0.00  0.00    +0.000 C 
ATOM     14  F   UNL     1      46.173   2.294   8.768  0.00  0.00    +0.000 F 
ATOM     15  F   UNL     1      44.243   1.320   8.990  0.00  0.00    +0.000 F 
ATOM     16  F   UNL     1      44.399   3.183   7.882  0.00  0.00    +0.000 F 
ENDBRANCH  11  13
ENDBRANCH   5   7
BRANCH   1  17
ATOM     17  C   UNL     1      49.223   8.077  11.915  0.00  0.00    +0.000 C 
BRANCH  17  18
ATOM     18  N   UNL     1      49.788   7.051  12.784  0.00  0.00    +0.000 N 
ATOM     19  H   UNL     1      50.780   6.915  12.611  0.00  0.00    +0.000 HD
BRANCH  18  23
ATOM     20  C   UNL     1      49.247   7.730  16.805  0.00  0.00    +0.000 A 
ATOM     21  C   UNL     1      48.813   6.551  16.223  0.00  0.00    +0.000 A 
ATOM     22  N   UNL     1      48.958   6.294  14.897  0.00  0.00    +0.000 NA
ATOM     23  C   UNL     1      49.549   7.255  14.152  0.00  0.00    +0.000 A 
ATOM     24  C   UNL     1      49.986   8.440  14.764  0.00  0.00    +0.000 A 
ATOM     25  N   UNL     1      49.844   8.719  16.086  0.00  0.00    +0.000 NA
BRANCH  20  27
ATOM     26  N   UNL     1      48.940   6.812  19.023  0.00  0.00    +0.000 N 
ATOM     27  C   UNL     1      49.074   7.944  18.267  0.00  0.00    +0.000 C 
ATOM     28  O   UNL     1      49.049   9.062  18.768  0.00  0.00    +0.000 OA
ATOM     29  H   UNL     1      48.802   6.889  20.020  0.00  0.00    +0.000 HD
ATOM     30  H   UNL     1      48.951   5.901  18.577  0.00  0.00    +0.000 HD
ENDBRANCH  20  27
ENDBRANCH  18  23
ENDBRANCH  17  18
ENDBRANCH   1  17
TORSDOF 6
ENDMDL
MODEL 8
REMARK VINA RESULT:    -6.871      6.485      8.522
REMARK INTER + INTRA:         -10.204
REMARK INTER:                  -9.303
REMARK INTRA:                  -0.901
REMARK UNBOUND:                -0.923
REMARK  Name = 
REMARK  6 active torsions:
REMARK  status: ('A' for Active; 'I' for Inactive)
REMARK    1  A    between atoms: C_2  and  C_4
REMARK    2  A    between atoms: C_7  and  N_8
REMARK    3  A    between atoms: N_8  and  C_9
REMARK    4  A    between atoms: C_9  and  C_10
REMARK    5  A    between atoms: C_14  and  C_15
REMARK    6  A    between atoms: C_19  and  C_20
REMARK                            x       y       z     vdW  Elec       q    Type
REMARK                         _______ _______ _______ _____ _____    ______ ____
ROOT
ATOM      1  C   UNL     1      47.834   5.092  15.774  0.00  0.00    +0.000 A 
ATOM      2  C   UNL     1      48.564   6.242  15.458  0.00  0.00    +0.000 A 
ATOM      3  C   UNL     1      48.315   6.924  14.270  0.00  0.00    +0.000 A 
ATOM      4  C   UNL     1      47.329   6.466  13.393  0.00  0.00    +0.000 A 
ATOM      5  C   UNL     1      46.572   5.311  13.669  0.00  0.00    +0.000 A 
ATOM      6  C   UNL     1      46.843   4.645  14.881  0.00  0.00    +0.000 A 
ENDROOT
BRANCH   5   7
ATOM      7  C   UNL     1      45.545   4.814  12.720  0.00  0.00    +0.000 A 
ATOM      8  C   UNL     1      44.252   4.461  13.145  0.00  0.00    +0.000 A 
ATOM      9  C   UNL     1      43.289   3.984  12.249  0.00  0.00    +0.000 A 
ATOM     10  C   UNL     1      43.588   3.873  10.894  0.00  0.00    +0.000 A 
ATOM     11  C   UNL     1      44.856   4.231  10.425  0.00  0.00    +0.000 A 
ATOM     12  C   UNL     1      45.823   4.676  11.345  0.00  0.00    +0.000 A 
BRANCH  11  13
ATOM     13  C   UNL     1      45.197   4.162   8.957  0.00  0.00    +0.000 C 
ATOM     14  F   UNL     1      44.114   4.265   8.137  0.00  0.00    +0.000 F 
ATOM     15  F   UNL     1      46.045   5.160   8.577  0.00  0.00    +0.000 F 
ATOM     16  F   UNL     1      45.815   2.999   8.616  0.00  0.00    +0.000 F 
ENDBRANCH  11  13
ENDBRANCH   5   7
BRANCH   1  17
ATOM     17  C   UNL     1      48.099   4.350  17.065  0.00  0.00    +0.000 C 
BRANCH  17  18
ATOM     18  N   UNL     1      48.558   3.000  16.757  0.00  0.00    +0.000 N 
ATOM     19  H   UNL     1      48.477   2.792  15.766  0.00  0.00    +0.000 HD
BRANCH  18  23
ATOM     20  C   UNL     1      52.396   2.312  18.068  0.00  0.00    +0.000 A 
ATOM     21  C   UNL     1      51.686   1.322  17.410  0.00  0.00    +0.000 A 
ATOM     22  N   UNL     1      50.411   1.503  16.976  0.00  0.00    +0.000 NA
ATOM     23  C   UNL     1      49.851   2.709  17.219  0.00  0.00    +0.000 A 
ATOM     24  C   UNL     1      50.591   3.699  17.882  0.00  0.00    +0.000 A 
ATOM     25  N   UNL     1      51.863   3.536  18.332  0.00  0.00    +0.000 NA
BRANCH  20  27
ATOM     26  N   UNL     1      54.045   0.808  19.001  0.00  0.00    +0.000 N 
ATOM     27  C   UNL     1      53.795   2.057  18.504  0.00  0.00    +0.000 C 
ATOM     28  O   UNL     1      54.672   2.910  18.429  0.00  0.00    +0.000 OA
ATOM     29  H   UNL     1      54.972   0.577  19.331  0.00  0.00    +0.000 HD
ATOM     30  H   UNL     1      53.295   0.127  19.064  0.00  0.00    +0.000 HD
ENDBRANCH  20  27
ENDBRANCH  18  23
ENDBRANCH  17  18
ENDBRANCH   1  17
TORSDOF 6
ENDMDL
MODEL 9
REMARK VINA RESULT:    -6.850      4.437      6.223
REMARK INTER + INTRA:         -10.176
REMARK INTER:                  -9.083
REMARK INTRA:                  -1.092
REMARK UNBOUND:                -0.923
REMARK  Name = 
REMARK  6 active torsions:
REMARK  status: ('A' for Active; 'I' for Inactive)
REMARK    1  A    between atoms: C_2  and  C_4
REMARK    2  A    between atoms: C_7  and  N_8
REMARK    3  A    between atoms: N_8  and  C_9
REMARK    4  A    between atoms: C_9  and  C_10
REMARK    5  A    between atoms: C_14  and  C_15
REMARK    6  A    between atoms: C_19  and  C_20
REMARK                            x       y       z     vdW  Elec       q    Type
REMARK                         _______ _______ _______ _____ _____    ______ ____
ROOT
ATOM      1  C   UNL     1      47.607   8.556  13.362  0.00  0.00    +0.000 A 
ATOM      2  C   UNL     1      48.265   9.789  13.414  0.00  0.00    +0.000 A 
ATOM      3  C   UNL     1      49.333   9.976  14.287  0.00  0.00    +0.000 A 
ATOM      4  C   UNL     1      49.758   8.929  15.109  0.00  0.00    +0.000 A 
ATOM      5  C   UNL     1      49.123   7.672  15.093  0.00  0.00    +0.000 A 
ATOM      6  C   UNL     1      48.048   7.511  14.196  0.00  0.00    +0.000 A 
ENDROOT
BRANCH   5   7
ATOM      7  C   UNL     1      49.561   6.573  15.989  0.00  0.00    +0.000 A 
ATOM      8  C   UNL     1      50.847   6.549  16.556  0.00  0.00    +0.000 A 
ATOM      9  C   UNL     1      51.262   5.507  17.393  0.00  0.00    +0.000 A 
ATOM     10  C   UNL     1      50.386   4.471  17.708  0.00  0.00    +0.000 A 
ATOM     11  C   UNL     1      49.090   4.466  17.180  0.00  0.00    +0.000 A 
ATOM     12  C   UNL     1      48.703   5.504  16.312  0.00  0.00    +0.000 A 
BRANCH  11  13
ATOM     13  C   UNL     1      48.104   3.380  17.535  0.00  0.00    +0.000 C 
ATOM     14  F   UNL     1      46.804   3.775  17.457  0.00  0.00    +0.000 F 
ATOM     15  F   UNL     1      48.213   2.297  16.714  0.00  0.00    +0.000 F 
ATOM     16  F   UNL     1      48.277   2.907  18.799  0.00  0.00    +0.000 F 
ENDBRANCH  11  13
ENDBRANCH   5   7
BRANCH   1  17
ATOM     17  C   UNL     1      46.447   8.348  12.414  0.00  0.00    +0.000 C 
BRANCH  17  18
ATOM     18  N   UNL     1      45.335   7.749  13.141  0.00  0.00    +0.000 N 
ATOM     19  H   UNL     1      44.555   8.393  13.235  0.00  0.00    +0.000 HD
BRANCH  18  23
ATOM     20  C   UNL     1      44.210   4.071  11.680  0.00  0.00    +0.000 A 
ATOM     21  C   UNL     1      43.920   5.229  10.977  0.00  0.00    +0.000 A 
ATOM     22  N   UNL     1      44.260   6.464  11.432  0.00  0.00    +0.000 NA
ATOM     23  C   UNL     1      44.899   6.519  12.622  0.00  0.00    +0.000 A 
ATOM     24  C   UNL     1      45.187   5.333  13.313  0.00  0.00    +0.000 A 
ATOM     25  N   UNL     1      44.849   4.090  12.880  0.00  0.00    +0.000 NA
BRANCH  20  27
ATOM     26  N   UNL     1      44.602   2.289  10.090  0.00  0.00    +0.000 N 
ATOM     27  C   UNL     1      43.826   2.748  11.119  0.00  0.00    +0.000 C 
ATOM     28  O   UNL     1      42.874   2.105  11.546  0.00  0.00    +0.000 OA
ATOM     29  H   UNL     1      44.383   1.405   9.655  0.00  0.00    +0.000 HD
ATOM     30  H   UNL     1      45.375   2.850   9.749  0.00  0.00    +0.000 HD
ENDBRANCH  20  27
ENDBRANCH  18  23
ENDBRANCH  17  18
ENDBRANCH   1  17
TORSDOF 6
ENDMDL
