MODEL 1
REMARK VINA RESULT:    -7.149      0.000      0.000
REMARK INTER + INTRA:          -9.319
REMARK INTER:                  -8.821
REMARK INTRA:                  -0.498
REMARK UNBOUND:                -0.498
REMARK  Name = 
REMARK  7 active torsions:
REMARK  status: ('A' for Active; 'I' for Inactive)
REMARK    1  A    between atoms: C_1  and  C_2
REMARK    2  A    between atoms: C_2  and  C_3
REMARK    3  A    between atoms: C_2  and  C_4
REMARK    4  A    between atoms: C_2  and  C_5
REMARK    5  A    between atoms: N_7  and  C_8
REMARK    6  A    between atoms: C_8  and  C_9
REMARK    7  A    between atoms: C_18  and  C_19
REMARK                            x       y       z     vdW  Elec       q    Type
REMARK                         _______ _______ _______ _____ _____    ______ ____
ROOT
ATOM      1  C   UNL     1      46.142   7.047  12.133  0.00  0.00    +0.000 A 
ATOM      2  C   UNL     1      45.306   6.682  11.089  0.00  0.00    +0.000 A 
ATOM      3  N   UNL     1      45.043   5.338  11.163  0.00  0.00    +0.000 N 
ATOM      4  C   UNL     1      45.686   4.804  12.247  0.00  0.00    +0.000 A 
ATOM      5  N   UNL     1      45.653   3.504  12.608  0.00  0.00    +0.000 NA
ATOM      6  C   UNL     1      46.371   3.242  13.729  0.00  0.00    +0.000 A 
ATOM      7  C   UNL     1      47.082   4.173  14.483  0.00  0.00    +0.000 A 
ATOM      8  C   UNL     1      47.093   5.502  14.050  0.00  0.00    +0.000 A 
ATOM      9  C   UNL     1      46.371   5.839  12.886  0.00  0.00    +0.000 A 
ENDROOT
BRANCH   7  10
ATOM     10  C   UNL     1      47.782   3.700  15.703  0.00  0.00    +0.000 C 
ATOM     11  N   UNL     1      47.741   4.474  16.830  0.00  0.00    +0.000 N 
ATOM     12  O   UNL     1      48.380   2.630  15.716  0.00  0.00    +0.000 OA
ATOM     13  H   UNL     1      47.238   5.342  16.926  0.00  0.00    +0.000 HD
ATOM     14  H   UNL     1      48.206   4.106  17.650  0.00  0.00    +0.000 HD
ENDBRANCH   7  10
BRANCH   1  16
ATOM     15  C   UNL     1      46.866   8.708  13.913  0.00  0.00    +0.000 C 
ATOM     16  C   UNL     1      46.700   8.445  12.398  0.00  0.00    +0.000 C 
ATOM     17  C   UNL     1      45.748   9.528  11.848  0.00  0.00    +0.000 C 
ATOM     18  C   UNL     1      48.087   8.614  11.746  0.00  0.00    +0.000 C 
ENDBRANCH   1  16
BRANCH   3  19
ATOM     19  C   UNL     1      44.178   4.611  10.243  0.00  0.00    +0.000 C 
BRANCH  19  20
ATOM     20  C   UNL     1      44.981   3.790   9.265  0.00  0.00    +0.000 A 
ATOM     21  C   UNL     1      45.029   2.397   9.377  0.00  0.00    +0.000 A 
ATOM     22  C   UNL     1      45.805   1.682   8.481  0.00  0.00    +0.000 A 
ATOM     23  N   UNL     1      46.515   2.249   7.483  0.00  0.00    +0.000 NA
ATOM     24  C   UNL     1      46.445   3.593   7.378  0.00  0.00    +0.000 A 
ATOM     25  C   UNL     1      45.703   4.396   8.231  0.00  0.00    +0.000 A 
ENDBRANCH  19  20
ENDBRANCH   3  19
TORSDOF 4
ENDMDL
MODEL 2
REMARK VINA RESULT:    -6.601      2.532      3.781
REMARK INTER + INTRA:          -8.642
REMARK INTER:                  -7.909
REMARK INTRA:                  -0.733
REMARK UNBOUND:                -0.498
REMARK  Name = 
REMARK  7 active torsions:
REMARK  status: ('A' for Active; 'I' for Inactive)
REMARK    1  A    between atoms: C_1  and  C_2
REMARK    2  A    between atoms: C_2  and  C_3
REMARK    3  A    between atoms: C_2  and  C_4
REMARK    4  A    between atoms: C_2  and  C_5
REMARK    5  A    between atoms: N_7  and  C_8
REMARK    6  A    between atoms: C_8  and  C_9
REMARK    7  A    between atoms: C_18  and  C_19
REMARK                            x       y       z     vdW  Elec       q    Type
REMARK                         _______ _______ _______ _____ _____    ______ ____
ROOT
ATOM      1  C   UNL     1      47.951   6.417  14.055  0.00  0.00    +0.000 A 
ATOM      2  C   UNL     1      47.217   5.708  13.116  0.00  0.00    +0.000 A 
ATOM      3  N   UNL     1      46.826   4.508  13.653  0.00  0.00    +0.000 N 
ATOM      4  C   UNL     1      47.284   4.411  14.940  0.00  0.00    +0.000 A 
ATOM      5  N   UNL     1      47.090   3.354  15.756  0.00  0.00    +0.000 NA
ATOM      6  C   UNL     1      47.642   3.518  16.985  0.00  0.00    +0.000 A 
ATOM      7  C   UNL     1      48.338   4.641  17.426  0.00  0.00    +0.000 A 
ATOM      8  C   UNL     1      48.520   5.698  16.530  0.00  0.00    +0.000 A 
ATOM      9  C   UNL     1      47.978   5.586  15.233  0.00  0.00    +0.000 A 
ENDROOT
BRANCH   7  10
ATOM     10  C   UNL     1      48.840   4.650  18.822  0.00  0.00    +0.000 C 
ATOM     11  N   UNL     1      48.526   3.602  19.644  0.00  0.00    +0.000 N 
ATOM     12  O   UNL     1      49.535   5.569  19.241  0.00  0.00    +0.000 OA
ATOM     13  H   UNL     1      48.002   2.785  19.375  0.00  0.00    +0.000 HD
ATOM     14  H   UNL     1      48.909   3.629  20.580  0.00  0.00    +0.000 HD
ENDBRANCH   7  10
BRANCH   1  16
ATOM     15  C   UNL     1      48.401   8.292  12.403  0.00  0.00    +0.000 C 
ATOM     16  C   UNL     1      48.598   7.787  13.851  0.00  0.00    +0.000 C 
ATOM     17  C   UNL     1      50.118   7.719  14.109  0.00  0.00    +0.000 C 
ATOM     18  C   UNL     1      47.972   8.833  14.794  0.00  0.00    +0.000 C 
ENDBRANCH   1  16
BRANCH   3  19
ATOM     19  C   UNL     1      46.017   3.515  12.960  0.00  0.00    +0.000 C 
BRANCH  19  20
ATOM     20  C   UNL     1      44.828   4.148  12.281  0.00  0.00    +0.000 A 
ATOM     21  C   UNL     1      44.778   4.254  10.888  0.00  0.00    +0.000 A 
ATOM     22  C   UNL     1      43.686   4.873  10.305  0.00  0.00    +0.000 A 
ATOM     23  N   UNL     1      42.645   5.373  11.004  0.00  0.00    +0.000 NA
ATOM     24  C   UNL     1      42.701   5.248  12.346  0.00  0.00    +0.000 A 
ATOM     25  C   UNL     1      43.755   4.652  13.023  0.00  0.00    +0.000 A 
ENDBRANCH  19  20
ENDBRANCH   3  19
TORSDOF 4
ENDMDL
MODEL 3
REMARK VINA RESULT:    -6.480      2.495      6.336
REMARK INTER + INTRA:          -8.493
REMARK INTER:                  -8.085
REMARK INTRA:                  -0.407
REMARK UNBOUND:                -0.498
REMARK  Name = 
REMARK  7 active torsions:
REMARK  status: ('A' for Active; 'I' for Inactive)
REMARK    1  A    between atoms: C_1  and  C_2
REMARK    2  A    between atoms: C_2  and  C_3
REMARK    3  A    between atoms: C_2  and  C_4
REMARK    4  A    between atoms: C_2  and  C_5
REMARK    5  A    between atoms: N_7  and  C_8
REMARK    6  A    between atoms: C_8  and  C_9
REMARK    7  A    between atoms: C_18  and  C_19
REMARK                            x       y       z     vdW  Elec       q    Type
REMARK                         _______ _______ _______ _____ _____    ______ ____
ROOT
ATOM      1  C   UNL     1      48.074   6.655  13.703  0.00  0.00    +0.000 A 
ATOM      2  C   UNL     1      48.226   6.128  14.977  0.00  0.00    +0.000 A 
ATOM      3  N   UNL     1      47.332   5.103  15.156  0.00  0.00    +0.000 N 
ATOM      4  C   UNL     1      46.592   4.935  14.017  0.00  0.00    +0.000 A 
ATOM      5  N   UNL     1      45.613   4.021  13.853  0.00  0.00    +0.000 NA
ATOM      6  C   UNL     1      45.044   4.060  12.622  0.00  0.00    +0.000 A 
ATOM      7  C   UNL     1      45.396   4.922  11.585  0.00  0.00    +0.000 A 
ATOM      8  C   UNL     1      46.407   5.857  11.819  0.00  0.00    +0.000 A 
ATOM      9  C   UNL     1      47.033   5.873  13.083  0.00  0.00    +0.000 A 
ENDROOT
BRANCH   7  10
ATOM     10  C   UNL     1      44.679   4.791  10.292  0.00  0.00    +0.000 C 
ATOM     11  N   UNL     1      45.324   5.149   9.139  0.00  0.00    +0.000 N 
ATOM     12  O   UNL     1      43.532   4.361  10.243  0.00  0.00    +0.000 OA
ATOM     13  H   UNL     1      46.279   5.467   9.079  0.00  0.00    +0.000 HD
ATOM     14  H   UNL     1      44.814   5.020   8.275  0.00  0.00    +0.000 HD
ENDBRANCH   7  10
BRANCH   1  16
ATOM     15  C   UNL     1      49.600   7.418  11.822  0.00  0.00    +0.000 C 
ATOM     16  C   UNL     1      48.853   7.829  13.112  0.00  0.00    +0.000 C 
ATOM     17  C   UNL     1      49.914   8.340  14.111  0.00  0.00    +0.000 C 
ATOM     18  C   UNL     1      47.904   8.988  12.747  0.00  0.00    +0.000 C 
ENDBRANCH   1  16
BRANCH   3  19
ATOM     19  C   UNL     1      47.224   4.300  16.368  0.00  0.00    +0.000 C 
BRANCH  19  20
ATOM     20  C   UNL     1      48.568   3.772  16.802  0.00  0.00    +0.000 A 
ATOM     21  C   UNL     1      49.494   4.612  17.428  0.00  0.00    +0.000 A 
ATOM     22  C   UNL     1      50.730   4.098  17.780  0.00  0.00    +0.000 A 
ATOM     23  N   UNL     1      51.098   2.817  17.568  0.00  0.00    +0.000 NA
ATOM     24  C   UNL     1      50.188   2.015  16.977  0.00  0.00    +0.000 A 
ATOM     25  C   UNL     1      48.928   2.438  16.581  0.00  0.00    +0.000 A 
ENDBRANCH  19  20
ENDBRANCH   3  19
TORSDOF 4
ENDMDL
MODEL 4
REMARK VINA RESULT:    -6.174      2.752      5.537
REMARK INTER + INTRA:          -8.115
REMARK INTER:                  -7.636
REMARK INTRA:                  -0.479
REMARK UNBOUND:                -0.498
REMARK  Name = 
REMARK  7 active torsions:
REMARK  status: ('A' for Active; 'I' for Inactive)
REMARK    1  A    between atoms: C_1  and  C_2
REMARK    2  A    between atoms: C_2  and  C_3
REMARK    3  A    between atoms: C_2  and  C_4
REMARK    4  A    between atoms: C_2  and  C_5
REMARK    5  A    between atoms: N_7  and  C_8
REMARK    6  A    between atoms: C_8  and  C_9
REMARK    7  A    between atoms: C_18  and  C_19
REMARK                            x       y       z     vdW  Elec       q    Type
REMARK                         _______ _______ _______ _____ _____    ______ ____
ROOT
ATOM      1  C   UNL     1      46.572   5.528  12.756  0.00  0.00    +0.000 A 
ATOM      2  C   UNL     1      47.397   6.483  12.181  0.00  0.00    +0.000 A 
ATOM      3  N   UNL     1      48.368   6.847  13.079  0.00  0.00    +0.000 N 
ATOM      4  C   UNL     1      48.205   6.143  14.241  0.00  0.00    +0.000 A 
ATOM      5  N   UNL     1      48.979   6.264  15.339  0.00  0.00    +0.000 NA
ATOM      6  C   UNL     1      48.606   5.441  16.352  0.00  0.00    +0.000 A 
ATOM      7  C   UNL     1      47.550   4.533  16.322  0.00  0.00    +0.000 A 
ATOM      8  C   UNL     1      46.773   4.463  15.162  0.00  0.00    +0.000 A 
ATOM      9  C   UNL     1      47.105   5.299  14.075  0.00  0.00    +0.000 A 
ENDROOT
BRANCH   7  10
ATOM     10  C   UNL     1      47.316   3.691  17.520  0.00  0.00    +0.000 C 
ATOM     11  N   UNL     1      47.935   4.026  18.694  0.00  0.00    +0.000 N 
ATOM     12  O   UNL     1      46.575   2.716  17.476  0.00  0.00    +0.000 OA
ATOM     13  H   UNL     1      48.523   4.832  18.836  0.00  0.00    +0.000 HD
ATOM     14  H   UNL     1      47.730   3.444  19.497  0.00  0.00    +0.000 HD
ENDBRANCH   7  10
BRANCH   1  16
ATOM     15  C   UNL     1      45.417   3.338  12.192  0.00  0.00    +0.000 C 
ATOM     16  C   UNL     1      45.349   4.880  12.105  0.00  0.00    +0.000 C 
ATOM     17  C   UNL     1      45.265   5.251  10.609  0.00  0.00    +0.000 C 
ATOM     18  C   UNL     1      44.053   5.326  12.810  0.00  0.00    +0.000 C 
ENDBRANCH   1  16
BRANCH   3  19
ATOM     19  C   UNL     1      49.426   7.812  12.809  0.00  0.00    +0.000 C 
BRANCH  19  20
ATOM     20  C   UNL     1      48.871   9.095  12.242  0.00  0.00    +0.000 A 
ATOM     21  C   UNL     1      49.560   9.785  11.240  0.00  0.00    +0.000 A 
ATOM     22  C   UNL     1      49.036  10.977  10.771  0.00  0.00    +0.000 A 
ATOM     23  N   UNL     1      47.880  11.515  11.214  0.00  0.00    +0.000 NA
ATOM     24  C   UNL     1      47.219  10.828  12.169  0.00  0.00    +0.000 A 
ATOM     25  C   UNL     1      47.666   9.631  12.708  0.00  0.00    +0.000 A 
ENDBRANCH  19  20
ENDBRANCH   3  19
TORSDOF 4
ENDMDL
MODEL 5
REMARK VINA RESULT:    -5.901      2.709      5.334
REMARK INTER + INTRA:          -7.778
REMARK INTER:                  -7.321
REMARK INTRA:                  -0.457
REMARK UNBOUND:                -0.498
REMARK  Name = 
REMARK  7 active torsions:
REMARK  status: ('A' for Active; 'I' for Inactive)
REMARK    1  A    between atoms: C_1  and  C_2
REMARK    2  A    between atoms: C_2  and  C_3
REMARK    3  A    between atoms: C_2  and  C_4
REMARK    4  A    between atoms: C_2  and  C_5
REMARK    5  A    between atoms: N_7  and  C_8
REMARK    6  A    between atoms: C_8  and  C_9
REMARK    7  A    between atoms: C_18  and  C_19
REMARK                            x       y       z     vdW  Elec       q    Type
REMARK                         _______ _______ _______ _____ _____    ______ ____
ROOT
ATOM      1  C   UNL     1      46.162   5.758  12.518  0.00  0.00    +0.000 A 
ATOM      2  C   UNL     1      46.673   6.988  12.130  0.00  0.00    +0.000 A 
ATOM      3  N   UNL     1      47.564   7.430  13.074  0.00  0.00    +0.000 N 
ATOM      4  C   UNL     1      47.659   6.509  14.082  0.00  0.00    +0.000 A 
ATOM      5  N   UNL     1      48.437   6.633  15.177  0.00  0.00    +0.000 NA
ATOM      6  C   UNL     1      48.352   5.570  16.017  0.00  0.00    +0.000 A 
ATOM      7  C   UNL     1      47.572   4.432  15.822  0.00  0.00    +0.000 A 
ATOM      8  C   UNL     1      46.775   4.368  14.675  0.00  0.00    +0.000 A 
ATOM      9  C   UNL     1      46.812   5.446  13.766  0.00  0.00    +0.000 A 
ENDROOT
BRANCH   7  10
ATOM     10  C   UNL     1      47.637   3.355  16.840  0.00  0.00    +0.000 C 
ATOM     11  N   UNL     1      48.851   2.790  17.126  0.00  0.00    +0.000 N 
ATOM     12  O   UNL     1      46.632   2.976  17.429  0.00  0.00    +0.000 OA
ATOM     13  H   UNL     1      49.734   3.067  16.728  0.00  0.00    +0.000 HD
ATOM     14  H   UNL     1      48.860   2.078  17.845  0.00  0.00    +0.000 HD
ENDBRANCH   7  10
BRANCH   1  16
ATOM     15  C   UNL     1      45.252   5.120  10.234  0.00  0.00    +0.000 C 
ATOM     16  C   UNL     1      45.118   4.935  11.764  0.00  0.00    +0.000 C 
ATOM     17  C   UNL     1      43.690   5.372  12.154  0.00  0.00    +0.000 C 
ATOM     18  C   UNL     1      45.285   3.432  12.064  0.00  0.00    +0.000 C 
ENDBRANCH   1  16
BRANCH   3  19
ATOM     19  C   UNL     1      48.313   8.676  12.986  0.00  0.00    +0.000 C 
BRANCH  19  20
ATOM     20  C   UNL     1      49.724   8.439  12.508  0.00  0.00    +0.000 A 
ATOM     21  C   UNL     1      50.815   8.818  13.297  0.00  0.00    +0.000 A 
ATOM     22  C   UNL     1      52.094   8.615  12.808  0.00  0.00    +0.000 A 
ATOM     23  N   UNL     1      52.359   8.053  11.610  0.00  0.00    +0.000 NA
ATOM     24  C   UNL     1      51.296   7.678  10.868  0.00  0.00    +0.000 A 
ATOM     25  C   UNL     1      49.978   7.846  11.267  0.00  0.00    +0.000 A 
ENDBRANCH  19  20
ENDBRANCH   3  19
TORSDOF 4
ENDMDL
MODEL 6
REMARK VINA RESULT:    -5.864      2.947      6.150
REMARK INTER + INTRA:          -7.733
REMARK INTER:                  -7.102
REMARK INTRA:                  -0.631
REMARK UNBOUND:                -0.498
REMARK  Name = 
REMARK  7 active torsions:
REMARK  status: ('A' for Active; 'I' for Inactive)
REMARK    1  A    between atoms: C_1  and  C_2
REMARK    2  A    between atoms: C_2  and  C_3
REMARK    3  A    between atoms: C_2  and  C_4
REMARK    4  A    between atoms: C_2  and  C_5
REMARK    5  A    between atoms: N_7  and  C_8
REMARK    6  A    between atoms: C_8  and  C_9
REMARK    7  A    between atoms: C_18  and  C_19
REMARK                            x       y       z     vdW  Elec       q    Type
REMARK                         _______ _______ _______ _____ _____    ______ ____
ROOT
ATOM      1  C   UNL     1      48.035   5.389  15.520  0.00  0.00    +0.000 A 
ATOM      2  C   UNL     1      48.630   6.624  15.311  0.00  0.00    +0.000 A 
ATOM      3  N   UNL     1      48.212   7.134  14.108  0.00  0.00    +0.000 N 
ATOM      4  C   UNL     1      47.341   6.258  13.517  0.00  0.00    +0.000 A 
ATOM      5  N   UNL     1      46.748   6.441  12.318  0.00  0.00    +0.000 NA
ATOM      6  C   UNL     1      45.921   5.423  11.969  0.00  0.00    +0.000 A 
ATOM      7  C   UNL     1      45.658   4.285  12.728  0.00  0.00    +0.000 A 
ATOM      8  C   UNL     1      46.313   4.144  13.954  0.00  0.00    +0.000 A 
ATOM      9  C   UNL     1      47.193   5.165  14.371  0.00  0.00    +0.000 A 
ENDROOT
BRANCH   7  10
ATOM     10  C   UNL     1      44.694   3.293  12.192  0.00  0.00    +0.000 C 
ATOM     11  N   UNL     1      44.886   2.801  10.929  0.00  0.00    +0.000 N 
ATOM     12  O   UNL     1      43.745   2.905  12.862  0.00  0.00    +0.000 OA
ATOM     13  H   UNL     1      45.660   3.027  10.325  0.00  0.00    +0.000 HD
ATOM     14  H   UNL     1      44.224   2.107  10.608  0.00  0.00    +0.000 HD
ENDBRANCH   7  10
BRANCH   1  16
ATOM     15  C   UNL     1      48.248   2.983  16.305  0.00  0.00    +0.000 C 
ATOM     16  C   UNL     1      48.256   4.472  16.723  0.00  0.00    +0.000 C 
ATOM     17  C   UNL     1      47.135   4.660  17.767  0.00  0.00    +0.000 C 
ATOM     18  C   UNL     1      49.617   4.758  17.387  0.00  0.00    +0.000 C 
ENDBRANCH   1  16
BRANCH   3  19
ATOM     19  C   UNL     1      48.614   8.428  13.572  0.00  0.00    +0.000 C 
BRANCH  19  20
ATOM     20  C   UNL     1      49.926   8.336  12.835  0.00  0.00    +0.000 A 
ATOM     21  C   UNL     1      49.973   7.849  11.524  0.00  0.00    +0.000 A 
ATOM     22  C   UNL     1      51.201   7.747  10.895  0.00  0.00    +0.000 A 
ATOM     23  N   UNL     1      52.370   8.106  11.466  0.00  0.00    +0.000 NA
ATOM     24  C   UNL     1      52.306   8.590  12.724  0.00  0.00    +0.000 A 
ATOM     25  C   UNL     1      51.126   8.722  13.441  0.00  0.00    +0.000 A 
ENDBRANCH  19  20
ENDBRANCH   3  19
TORSDOF 4
ENDMDL
MODEL 7
REMARK VINA RESULT:    -5.830      3.482      7.389
REMARK INTER + INTRA:          -7.691
REMARK INTER:                  -6.894
REMARK INTRA:                  -0.797
REMARK UNBOUND:                -0.498
REMARK  Name = 
REMARK  7 active torsions:
REMARK  status: ('A' for Active; 'I' for Inactive)
REMARK    1  A    between atoms: C_1  and  C_2
REMARK    2  A    between atoms: C_2  and  C_3
REMARK    3  A    between atoms: C_2  and  C_4
REMARK    4  A    between atoms: C_2  and  C_5
REMARK    5  A    between atoms: N_7  and  C_8
REMARK    6  A    between atoms: C_8  and  C_9
REMARK    7  A    between atoms: C_18  and  C_19
REMARK                            x       y       z     vdW  Elec       q    Type
REMARK                         _______ _______ _______ _____ _____    ______ ____
ROOT
ATOM      1  C   UNL     1      45.847   5.693  12.509  0.00  0.00    +0.000 A 
ATOM      2  C   UNL     1      47.073   5.562  13.144  0.00  0.00    +0.000 A 
ATOM      3  N   UNL     1      47.646   6.800  13.289  0.00  0.00    +0.000 N 
ATOM      4  C   UNL     1      46.814   7.754  12.767  0.00  0.00    +0.000 A 
ATOM      5  N   UNL     1      47.074   9.078  12.733  0.00  0.00    +0.000 NA
ATOM      6  C   UNL     1      46.077   9.805  12.169  0.00  0.00    +0.000 A 
ATOM      7  C   UNL     1      44.879   9.300  11.667  0.00  0.00    +0.000 A 
ATOM      8  C   UNL     1      44.673   7.919  11.716  0.00  0.00    +0.000 A 
ATOM      9  C   UNL     1      45.677   7.106  12.284  0.00  0.00    +0.000 A 
ENDROOT
BRANCH   7  10
ATOM     10  C   UNL     1      43.891  10.260  11.116  0.00  0.00    +0.000 C 
ATOM     11  N   UNL     1      43.356  10.021   9.879  0.00  0.00    +0.000 N 
ATOM     12  O   UNL     1      43.543  11.248  11.752  0.00  0.00    +0.000 OA
ATOM     13  H   UNL     1      43.546   9.214   9.306  0.00  0.00    +0.000 HD
ATOM     14  H   UNL     1      42.665  10.682   9.548  0.00  0.00    +0.000 HD
ENDBRANCH   7  10
BRANCH   1  16
ATOM     15  C   UNL     1      43.551   4.671  12.875  0.00  0.00    +0.000 C 
ATOM     16  C   UNL     1      44.901   4.554  12.129  0.00  0.00    +0.000 C 
ATOM     17  C   UNL     1      45.512   3.187  12.502  0.00  0.00    +0.000 C 
ATOM     18  C   UNL     1      44.597   4.577  10.618  0.00  0.00    +0.000 C 
ENDBRANCH   1  16
BRANCH   3  19
ATOM     19  C   UNL     1      48.928   7.049  13.936  0.00  0.00    +0.000 C 
BRANCH  19  20
ATOM     20  C   UNL     1      48.772   7.209  15.427  0.00  0.00    +0.000 A 
ATOM     21  C   UNL     1      48.616   8.478  15.994  0.00  0.00    +0.000 A 
ATOM     22  C   UNL     1      48.511   8.585  17.370  0.00  0.00    +0.000 A 
ATOM     23  N   UNL     1      48.534   7.529  18.210  0.00  0.00    +0.000 NA
ATOM     24  C   UNL     1      48.668   6.310  17.646  0.00  0.00    +0.000 A 
ATOM     25  C   UNL     1      48.789   6.100  16.280  0.00  0.00    +0.000 A 
ENDBRANCH  19  20
ENDBRANCH   3  19
TORSDOF 4
ENDMDL
MODEL 8
REMARK VINA RESULT:    -5.185      3.300      6.003
REMARK INTER + INTRA:          -6.895
REMARK INTER:                  -6.509
REMARK INTRA:                  -0.386
REMARK UNBOUND:                -0.498
REMARK  Name = 
REMARK  7 active torsions:
REMARK  status: ('A' for Active; 'I' for Inactive)
REMARK    1  A    between atoms: C_1  and  C_2
REMARK    2  A    between atoms: C_2  and  C_3
REMARK    3  A    between atoms: C_2  and  C_4
REMARK    4  A    between atoms: C_2  and  C_5
REMARK    5  A    between atoms: N_7  and  C_8
REMARK    6  A    between atoms: C_8  and  C_9
REMARK    7  A    between atoms: C_18  and  C_19
REMARK                            x       y       z     vdW  Elec       q    Type
REMARK                         _______ _______ _______ _____ _____    ______ ____
ROOT
ATOM      1  C   UNL     1      45.058   7.169  11.895  0.00  0.00    +0.000 A 
ATOM      2  C   UNL     1      44.566   8.362  11.388  0.00  0.00    +0.000 A 
ATOM      3  N   UNL     1      45.374   9.396  11.789  0.00  0.00    +0.000 N 
ATOM      4  C   UNL     1      46.400   8.906  12.551  0.00  0.00    +0.000 A 
ATOM      5  N   UNL     1      47.371   9.651  13.119  0.00  0.00    +0.000 NA
ATOM      6  C   UNL     1      48.273   8.915  13.816  0.00  0.00    +0.000 A 
ATOM      7  C   UNL     1      48.262   7.529  13.960  0.00  0.00    +0.000 A 
ATOM      8  C   UNL     1      47.223   6.812  13.361  0.00  0.00    +0.000 A 
ATOM      9  C   UNL     1      46.247   7.521  12.629  0.00  0.00    +0.000 A 
ENDROOT
BRANCH   7  10
ATOM     10  C   UNL     1      49.358   6.897  14.735  0.00  0.00    +0.000 C 
ATOM     11  N   UNL     1      50.639   7.346  14.555  0.00  0.00    +0.000 N 
ATOM     12  O   UNL     1      49.132   5.996  15.533  0.00  0.00    +0.000 OA
ATOM     13  H   UNL     1      50.912   8.110  13.958  0.00  0.00    +0.000 HD
ATOM     14  H   UNL     1      51.356   6.910  15.121  0.00  0.00    +0.000 HD
ENDBRANCH   7  10
BRANCH   1  16
ATOM     15  C   UNL     1      42.964   5.884  11.252  0.00  0.00    +0.000 C 
ATOM     16  C   UNL     1      44.438   5.784  11.709  0.00  0.00    +0.000 C 
ATOM     17  C   UNL     1      44.453   4.995  13.035  0.00  0.00    +0.000 C 
ATOM     18  C   UNL     1      45.201   4.983  10.636  0.00  0.00    +0.000 C 
ENDBRANCH   1  16
BRANCH   3  19
ATOM     19  C   UNL     1      45.176  10.792  11.423  0.00  0.00    +0.000 C 
BRANCH  19  20
ATOM     20  C   UNL     1      43.828  11.009  10.783  0.00  0.00    +0.000 A 
ATOM     21  C   UNL     1      43.708  11.112   9.393  0.00  0.00    +0.000 A 
ATOM     22  C   UNL     1      42.459  11.346   8.847  0.00  0.00    +0.000 A 
ATOM     23  N   UNL     1      41.330  11.468   9.578  0.00  0.00    +0.000 NA
ATOM     24  C   UNL     1      41.460  11.349  10.916  0.00  0.00    +0.000 A 
ATOM     25  C   UNL     1      42.669  11.123  11.557  0.00  0.00    +0.000 A 
ENDBRANCH  19  20
ENDBRANCH   3  19
TORSDOF 4
ENDMDL
MODEL 9
REMARK VINA RESULT:    -5.151      3.005      6.800
REMARK INTER + INTRA:          -6.853
REMARK INTER:                  -6.234
REMARK INTRA:                  -0.619
REMARK UNBOUND:                -0.498
REMARK  Name = 
REMARK  7 active torsions:
REMARK  status: ('A' for Active; 'I' for Inactive)
REMARK    1  A    between atoms: C_1  and  C_2
REMARK    2  A    between atoms: C_2  and  C_3
REMARK    3  A    between atoms: C_2  and  C_4
REMARK    4  A    between atoms: C_2  and  C_5
REMARK    5  A    between atoms: N_7  and  C_8
REMARK    6  A    between atoms: C_8  and  C_9
REMARK    7  A    between atoms: C_18  and  C_19
REMARK                            x       y       z     vdW  Elec       q    Type
REMARK                         _______ _______ _______ _____ _____    ______ ____
ROOT
ATOM      1  C   UNL     1      48.277   8.405  13.427  0.00  0.00    +0.000 A 
ATOM      2  C   UNL     1      49.071   8.210  14.546  0.00  0.00    +0.000 A 
ATOM      3  N   UNL     1      48.867   6.946  15.036  0.00  0.00    +0.000 N 
ATOM      4  C   UNL     1      47.953   6.293  14.254  0.00  0.00    +0.000 A 
ATOM      5  N   UNL     1      47.512   5.034  14.459  0.00  0.00    +0.000 NA
ATOM      6  C   UNL     1      46.612   4.624  13.529  0.00  0.00    +0.000 A 
ATOM      7  C   UNL     1      46.158   5.370  12.445  0.00  0.00    +0.000 A 
ATOM      8  C   UNL     1      46.639   6.674  12.293  0.00  0.00    +0.000 A 
ATOM      9  C   UNL     1      47.571   7.163  13.232  0.00  0.00    +0.000 A 
ENDROOT
BRANCH   7  10
ATOM     10  C   UNL     1      45.194   4.735  11.512  0.00  0.00    +0.000 C 
ATOM     11  N   UNL     1      44.953   3.393  11.624  0.00  0.00    +0.000 N 
ATOM     12  O   UNL     1      44.609   5.393  10.660  0.00  0.00    +0.000 OA
ATOM     13  H   UNL     1      45.351   2.783  12.321  0.00  0.00    +0.000 HD
ATOM     14  H   UNL     1      44.270   3.000  10.989  0.00  0.00    +0.000 HD
ENDBRANCH   7  10
BRANCH   1  16
ATOM     15  C   UNL     1      48.652  10.917  13.408  0.00  0.00    +0.000 C 
ATOM     16  C   UNL     1      48.180   9.686  12.598  0.00  0.00    +0.000 C 
ATOM     17  C   UNL     1      46.721   9.953  12.170  0.00  0.00    +0.000 C 
ATOM     18  C   UNL     1      49.067   9.593  11.341  0.00  0.00    +0.000 C 
ENDBRANCH   1  16
BRANCH   3  19
ATOM     19  C   UNL     1      49.553   6.384  16.193  0.00  0.00    +0.000 C 
BRANCH  19  20
ATOM     20  C   UNL     1      48.745   6.563  17.454  0.00  0.00    +0.000 A 
ATOM     21  C   UNL     1      48.072   5.480  18.026  0.00  0.00    +0.000 A 
ATOM     22  C   UNL     1      47.312   5.692  19.164  0.00  0.00    +0.000 A 
ATOM     23  N   UNL     1      47.191   6.891  19.773  0.00  0.00    +0.000 NA
ATOM     24  C   UNL     1      47.861   7.922  19.217  0.00  0.00    +0.000 A 
ATOM     25  C   UNL     1      48.640   7.812  18.075  0.00  0.00    +0.000 A 
ENDBRANCH  19  20
ENDBRANCH   3  19
TORSDOF 4
ENDMDL
