MODEL 1
REMARK VINA RESULT:    -8.352      0.000      0.000
REMARK INTER + INTRA:         -11.642
REMARK INTER:                 -10.794
REMARK INTRA:                  -0.848
REMARK UNBOUND:                -0.848
REMARK  Name = 
REMARK  5 active torsions:
REMARK  status: ('A' for Active; 'I' for Inactive)
REMARK    1  A    between atoms: C_2  and  C_3
REMARK    2  A    between atoms: C_6  and  N_7
REMARK    3  A    between atoms: N_7  and  C_8
REMARK    4  A    between atoms: C_8  and  C_9
REMARK    5  A    between atoms: C_13  and  C_14
REMARK                            x       y       z     vdW  Elec       q    Type
REMARK                         _______ _______ _______ _____ _____    ______ ____
ROOT
ATOM      1  C   UNL     1      43.905   5.018  11.152  0.00  0.00    +0.000 C 
ATOM      2  C   UNL     1      42.630   5.124  11.981  0.00  0.00    +0.000 C 
ATOM      3  C   UNL     1      43.028   6.244  11.081  0.00  0.00    +0.000 C 
ENDROOT
BRANCH   1   4
ATOM      4  C   UNL     1      45.256   5.107  11.843  0.00  0.00    +0.000 A 
ATOM      5  C   UNL     1      45.617   4.261  12.900  0.00  0.00    +0.000 A 
ATOM      6  C   UNL     1      46.760   4.509  13.659  0.00  0.00    +0.000 A 
ATOM      7  C   UNL     1      47.556   5.622  13.380  0.00  0.00    +0.000 A 
ATOM      8  C   UNL     1      47.244   6.493  12.325  0.00  0.00    +0.000 A 
ATOM      9  C   UNL     1      46.116   6.182  11.547  0.00  0.00    +0.000 A 
BRANCH   8  10
ATOM     10  C   UNL     1      47.991   7.750  12.095  0.00  0.00    +0.000 A 
ATOM     11  C   UNL     1      49.359   7.752  11.760  0.00  0.00    +0.000 A 
ATOM     12  C   UNL     1      50.033   8.942  11.469  0.00  0.00    +0.000 A 
ATOM     13  C   UNL     1      49.359  10.160  11.517  0.00  0.00    +0.000 A 
ATOM     14  C   UNL     1      48.011  10.189  11.850  0.00  0.00    +0.000 A 
ATOM     15  C   UNL     1      47.338   8.994  12.131  0.00  0.00    +0.000 A 
ENDBRANCH   8  10
ENDBRANCH   1   4
BRANCH   1  16
ATOM     16  N   UNL     1      43.851   3.897  10.192  0.00  0.00    +0.000 N 
ATOM     17  H   UNL     1      43.396   3.071  10.580  0.00  0.00    +0.000 HD
BRANCH  16  21
ATOM     18  C   UNL     1      46.657   2.593   7.476  0.00  0.00    +0.000 A 
ATOM     19  N   UNL     1      46.410   3.918   7.481  0.00  0.00    +0.000 NA
ATOM     20  C   UNL     1      45.513   4.347   8.402  0.00  0.00    +0.000 A 
ATOM     21  C   UNL     1      44.879   3.529   9.315  0.00  0.00    +0.000 A 
ATOM     22  C   UNL     1      45.227   2.189   9.195  0.00  0.00    +0.000 A 
ATOM     23  N   UNL     1      46.109   1.689   8.307  0.00  0.00    +0.000 NA
BRANCH  18  25
ATOM     24  N   UNL     1      48.286   1.704   5.653  0.00  0.00    +0.000 NA
ATOM     25  C   UNL     1      47.554   2.094   6.468  0.00  0.00    +0.000 C 
ENDBRANCH  18  25
ENDBRANCH  16  21
ENDBRANCH   1  16
TORSDOF 5
ENDMDL
MODEL 2
REMARK VINA RESULT:    -8.158      3.110      6.856
REMARK INTER + INTRA:         -11.391
REMARK INTER:                 -10.421
REMARK INTRA:                  -0.970
REMARK UNBOUND:                -0.848
REMARK  Name = 
REMARK  5 active torsions:
REMARK  status: ('A' for Active; 'I' for Inactive)
REMARK    1  A    between atoms: C_2  and  C_3
REMARK    2  A    between atoms: C_6  and  N_7
REMARK    3  A    between atoms: N_7  and  C_8
REMARK    4  A    between atoms: C_8  and  C_9
REMARK    5  A    between atoms: C_13  and  C_14
REMARK                            x       y       z     vdW  Elec       q    Type
REMARK                         _______ _______ _______ _____ _____    ______ ____
ROOT
ATOM      1  C   UNL     1      46.050   7.208  12.113  0.00  0.00    +0.000 C 
ATOM      2  C   UNL     1      46.270   8.646  11.658  0.00  0.00    +0.000 C 
ATOM      3  C   UNL     1      45.464   8.367  12.881  0.00  0.00    +0.000 C 
ENDROOT
BRANCH   1   4
ATOM      4  C   UNL     1      45.127   6.303  11.311  0.00  0.00    +0.000 A 
ATOM      5  C   UNL     1      43.799   6.061  11.689  0.00  0.00    +0.000 A 
ATOM      6  C   UNL     1      43.050   5.061  11.071  0.00  0.00    +0.000 A 
ATOM      7  C   UNL     1      43.625   4.273  10.072  0.00  0.00    +0.000 A 
ATOM      8  C   UNL     1      44.947   4.484   9.650  0.00  0.00    +0.000 A 
ATOM      9  C   UNL     1      45.654   5.535  10.256  0.00  0.00    +0.000 A 
BRANCH   8  10
ATOM     10  C   UNL     1      45.621   3.579   8.693  0.00  0.00    +0.000 A 
ATOM     11  C   UNL     1      46.373   4.070   7.608  0.00  0.00    +0.000 A 
ATOM     12  C   UNL     1      47.070   3.205   6.758  0.00  0.00    +0.000 A 
ATOM     13  C   UNL     1      47.024   1.828   6.964  0.00  0.00    +0.000 A 
ATOM     14  C   UNL     1      46.286   1.316   8.024  0.00  0.00    +0.000 A 
ATOM     15  C   UNL     1      45.598   2.186   8.878  0.00  0.00    +0.000 A 
ENDBRANCH   8  10
ENDBRANCH   1   4
BRANCH   1  16
ATOM     16  N   UNL     1      47.317   6.534  12.458  0.00  0.00    +0.000 N 
ATOM     17  H   UNL     1      47.819   6.198  11.636  0.00  0.00    +0.000 HD
BRANCH  16  21
ATOM     18  C   UNL     1      47.730   4.219  15.837  0.00  0.00    +0.000 A 
ATOM     19  N   UNL     1      47.083   3.646  14.803  0.00  0.00    +0.000 NA
ATOM     20  C   UNL     1      46.982   4.397  13.681  0.00  0.00    +0.000 A 
ATOM     21  C   UNL     1      47.507   5.667  13.541  0.00  0.00    +0.000 A 
ATOM     22  C   UNL     1      48.145   6.132  14.684  0.00  0.00    +0.000 A 
ATOM     23  N   UNL     1      48.286   5.442  15.834  0.00  0.00    +0.000 NA
BRANCH  18  25
ATOM     24  N   UNL     1      47.864   2.879  18.063  0.00  0.00    +0.000 NA
ATOM     25  C   UNL     1      47.798   3.473  17.066  0.00  0.00    +0.000 C 
ENDBRANCH  18  25
ENDBRANCH  16  21
ENDBRANCH   1  16
TORSDOF 5
ENDMDL
MODEL 3
REMARK VINA RESULT:    -7.162      1.859      3.793
REMARK INTER + INTRA:         -10.104
REMARK INTER:                 -10.485
REMARK INTRA:                   0.381
REMARK UNBOUND:                -0.848
REMARK  Name = 
REMARK  5 active torsions:
REMARK  status: ('A' for Active; 'I' for Inactive)
REMARK    1  A    between atoms: C_2  and  C_3
REMARK    2  A    between atoms: C_6  and  N_7
REMARK    3  A    between atoms: N_7  and  C_8
REMARK    4  A    between atoms: C_8  and  C_9
REMARK    5  A    between atoms: C_13  and  C_14
REMARK                            x       y       z     vdW  Elec       q    Type
REMARK                         _______ _______ _______ _____ _____    ______ ____
ROOT
ATOM      1  C   UNL     1      44.168   4.697  11.769  0.00  0.00    +0.000 C 
ATOM      2  C   UNL     1      43.838   3.298  12.277  0.00  0.00    +0.000 C 
ATOM      3  C   UNL     1      42.996   4.458  12.688  0.00  0.00    +0.000 C 
ENDROOT
BRANCH   1   4
ATOM      4  C   UNL     1      45.398   5.415  12.301  0.00  0.00    +0.000 A 
ATOM      5  C   UNL     1      46.202   6.229  11.491  0.00  0.00    +0.000 A 
ATOM      6  C   UNL     1      47.438   6.690  11.941  0.00  0.00    +0.000 A 
ATOM      7  C   UNL     1      47.898   6.331  13.209  0.00  0.00    +0.000 A 
ATOM      8  C   UNL     1      47.126   5.528  14.063  0.00  0.00    +0.000 A 
ATOM      9  C   UNL     1      45.863   5.126  13.598  0.00  0.00    +0.000 A 
BRANCH   8  10
ATOM     10  C   UNL     1      47.647   5.022  15.352  0.00  0.00    +0.000 A 
ATOM     11  C   UNL     1      48.560   5.763  16.127  0.00  0.00    +0.000 A 
ATOM     12  C   UNL     1      48.983   5.309  17.380  0.00  0.00    +0.000 A 
ATOM     13  C   UNL     1      48.514   4.098  17.884  0.00  0.00    +0.000 A 
ATOM     14  C   UNL     1      47.617   3.343  17.138  0.00  0.00    +0.000 A 
ATOM     15  C   UNL     1      47.189   3.807  15.889  0.00  0.00    +0.000 A 
ENDBRANCH   8  10
ENDBRANCH   1   4
BRANCH   1  16
ATOM     16  N   UNL     1      44.070   4.790  10.298  0.00  0.00    +0.000 N 
ATOM     17  H   UNL     1      43.110   4.916   9.977  0.00  0.00    +0.000 HD
BRANCH  16  21
ATOM     18  C   UNL     1      46.489   2.697   7.707  0.00  0.00    +0.000 A 
ATOM     19  N   UNL     1      45.777   1.957   8.579  0.00  0.00    +0.000 NA
ATOM     20  C   UNL     1      44.954   2.647   9.405  0.00  0.00    +0.000 A 
ATOM     21  C   UNL     1      44.799   4.019   9.385  0.00  0.00    +0.000 A 
ATOM     22  C   UNL     1      45.595   4.653   8.438  0.00  0.00    +0.000 A 
ATOM     23  N   UNL     1      46.434   4.034   7.584  0.00  0.00    +0.000 NA
BRANCH  18  25
ATOM     24  N   UNL     1      48.178   1.451   6.169  0.00  0.00    +0.000 NA
ATOM     25  C   UNL     1      47.422   2.001   6.860  0.00  0.00    +0.000 C 
ENDBRANCH  18  25
ENDBRANCH  16  21
ENDBRANCH   1  16
TORSDOF 5
ENDMDL
MODEL 4
REMARK VINA RESULT:    -6.801      1.208      2.152
REMARK INTER + INTRA:          -9.637
REMARK INTER:                  -9.593
REMARK INTRA:                  -0.043
REMARK UNBOUND:                -0.848
REMARK  Name = 
REMARK  5 active torsions:
REMARK  status: ('A' for Active; 'I' for Inactive)
REMARK    1  A    between atoms: C_2  and  C_3
REMARK    2  A    between atoms: C_6  and  N_7
REMARK    3  A    between atoms: N_7  and  C_8
REMARK    4  A    between atoms: C_8  and  C_9
REMARK    5  A    between atoms: C_13  and  C_14
REMARK                            x       y       z     vdW  Elec       q    Type
REMARK                         _______ _______ _______ _____ _____    ______ ____
ROOT
ATOM      1  C   UNL     1      44.133   4.285  11.603  0.00  0.00    +0.000 C 
ATOM      2  C   UNL     1      44.900   3.205  12.358  0.00  0.00    +0.000 C 
ATOM      3  C   UNL     1      43.502   3.539  12.754  0.00  0.00    +0.000 C 
ENDROOT
BRANCH   1   4
ATOM      4  C   UNL     1      44.521   5.743  11.784  0.00  0.00    +0.000 A 
ATOM      5  C   UNL     1      43.711   6.797  11.340  0.00  0.00    +0.000 A 
ATOM      6  C   UNL     1      44.188   8.106  11.315  0.00  0.00    +0.000 A 
ATOM      7  C   UNL     1      45.495   8.382  11.721  0.00  0.00    +0.000 A 
ATOM      8  C   UNL     1      46.342   7.364  12.186  0.00  0.00    +0.000 A 
ATOM      9  C   UNL     1      45.811   6.065  12.250  0.00  0.00    +0.000 A 
BRANCH   8  10
ATOM     10  C   UNL     1      47.769   7.607  12.493  0.00  0.00    +0.000 A 
ATOM     11  C   UNL     1      48.266   7.553  13.810  0.00  0.00    +0.000 A 
ATOM     12  C   UNL     1      49.630   7.706  14.077  0.00  0.00    +0.000 A 
ATOM     13  C   UNL     1      50.529   7.928  13.036  0.00  0.00    +0.000 A 
ATOM     14  C   UNL     1      50.066   7.992  11.728  0.00  0.00    +0.000 A 
ATOM     15  C   UNL     1      48.701   7.828  11.465  0.00  0.00    +0.000 A 
ENDBRANCH   8  10
ENDBRANCH   1   4
BRANCH   1  16
ATOM     16  N   UNL     1      43.943   3.939  10.180  0.00  0.00    +0.000 N 
ATOM     17  H   UNL     1      43.110   3.372  10.023  0.00  0.00    +0.000 HD
BRANCH  16  21
ATOM     18  C   UNL     1      46.715   2.674   7.412  0.00  0.00    +0.000 A 
ATOM     19  N   UNL     1      46.515   4.004   7.483  0.00  0.00    +0.000 NA
ATOM     20  C   UNL     1      45.630   4.419   8.421  0.00  0.00    +0.000 A 
ATOM     21  C   UNL     1      44.962   3.579   9.289  0.00  0.00    +0.000 A 
ATOM     22  C   UNL     1      45.263   2.235   9.103  0.00  0.00    +0.000 A 
ATOM     23  N   UNL     1      46.131   1.749   8.193  0.00  0.00    +0.000 NA
BRANCH  18  25
ATOM     24  N   UNL     1      48.313   1.820   5.544  0.00  0.00    +0.000 NA
ATOM     25  C   UNL     1      47.599   2.195   6.382  0.00  0.00    +0.000 C 
ENDBRANCH  18  25
ENDBRANCH  16  21
ENDBRANCH   1  16
TORSDOF 5
ENDMDL
MODEL 5
REMARK VINA RESULT:    -6.336      3.271      7.022
REMARK INTER + INTRA:          -9.036
REMARK INTER:                  -8.350
REMARK INTRA:                  -0.686
REMARK UNBOUND:                -0.848
REMARK  Name = 
REMARK  5 active torsions:
REMARK  status: ('A' for Active; 'I' for Inactive)
REMARK    1  A    between atoms: C_2  and  C_3
REMARK    2  A    between atoms: C_6  and  N_7
REMARK    3  A    between atoms: N_7  and  C_8
REMARK    4  A    between atoms: C_8  and  C_9
REMARK    5  A    between atoms: C_13  and  C_14
REMARK                            x       y       z     vdW  Elec       q    Type
REMARK                         _______ _______ _______ _____ _____    ______ ____
ROOT
ATOM      1  C   UNL     1      48.121   8.146  12.555  0.00  0.00    +0.000 C 
ATOM      2  C   UNL     1      49.078   9.009  11.740  0.00  0.00    +0.000 C 
ATOM      3  C   UNL     1      48.429   9.567  12.961  0.00  0.00    +0.000 C 
ENDROOT
BRANCH   1   4
ATOM      4  C   UNL     1      46.749   7.814  11.991  0.00  0.00    +0.000 A 
ATOM      5  C   UNL     1      45.585   8.477  12.405  0.00  0.00    +0.000 A 
ATOM      6  C   UNL     1      44.325   8.005  12.044  0.00  0.00    +0.000 A 
ATOM      7  C   UNL     1      44.207   6.848  11.271  0.00  0.00    +0.000 A 
ATOM      8  C   UNL     1      45.341   6.155  10.821  0.00  0.00    +0.000 A 
ATOM      9  C   UNL     1      46.596   6.689  11.158  0.00  0.00    +0.000 A 
BRANCH   8  10
ATOM     10  C   UNL     1      45.242   4.857  10.118  0.00  0.00    +0.000 A 
ATOM     11  C   UNL     1      44.673   3.722  10.729  0.00  0.00    +0.000 A 
ATOM     12  C   UNL     1      44.515   2.523  10.027  0.00  0.00    +0.000 A 
ATOM     13  C   UNL     1      44.932   2.425   8.701  0.00  0.00    +0.000 A 
ATOM     14  C   UNL     1      45.501   3.527   8.075  0.00  0.00    +0.000 A 
ATOM     15  C   UNL     1      45.649   4.727   8.779  0.00  0.00    +0.000 A 
ENDBRANCH   8  10
ENDBRANCH   1   4
BRANCH   1  16
ATOM     16  N   UNL     1      48.788   6.955  13.116  0.00  0.00    +0.000 N 
ATOM     17  H   UNL     1      49.210   6.367  12.397  0.00  0.00    +0.000 HD
BRANCH  16  21
ATOM     18  C   UNL     1      47.499   4.390  16.067  0.00  0.00    +0.000 A 
ATOM     19  N   UNL     1      48.233   5.443  16.478  0.00  0.00    +0.000 NA
ATOM     20  C   UNL     1      48.623   6.304  15.508  0.00  0.00    +0.000 A 
ATOM     21  C   UNL     1      48.302   6.173  14.172  0.00  0.00    +0.000 A 
ATOM     22  C   UNL     1      47.545   5.043  13.892  0.00  0.00    +0.000 A 
ATOM     23  N   UNL     1      47.119   4.144  14.802  0.00  0.00    +0.000 NA
BRANCH  18  25
ATOM     24  N   UNL     1      46.815   2.628  17.856  0.00  0.00    +0.000 NA
ATOM     25  C   UNL     1      47.124   3.420  17.062  0.00  0.00    +0.000 C 
ENDBRANCH  18  25
ENDBRANCH  16  21
ENDBRANCH   1  16
TORSDOF 5
ENDMDL
MODEL 6
REMARK VINA RESULT:    -6.296      5.769      8.408
REMARK INTER + INTRA:          -8.985
REMARK INTER:                  -8.406
REMARK INTRA:                  -0.579
REMARK UNBOUND:                -0.848
REMARK  Name = 
REMARK  5 active torsions:
REMARK  status: ('A' for Active; 'I' for Inactive)
REMARK    1  A    between atoms: C_2  and  C_3
REMARK    2  A    between atoms: C_6  and  N_7
REMARK    3  A    between atoms: N_7  and  C_8
REMARK    4  A    between atoms: C_8  and  C_9
REMARK    5  A    between atoms: C_13  and  C_14
REMARK                            x       y       z     vdW  Elec       q    Type
REMARK                         _______ _______ _______ _____ _____    ______ ____
ROOT
ATOM      1  C   UNL     1      48.147   4.463  16.999  0.00  0.00    +0.000 C 
ATOM      2  C   UNL     1      47.179   4.791  18.131  0.00  0.00    +0.000 C 
ATOM      3  C   UNL     1      47.161   3.438  17.504  0.00  0.00    +0.000 C 
ENDROOT
BRANCH   1   4
ATOM      4  C   UNL     1      47.935   5.088  15.629  0.00  0.00    +0.000 A 
ATOM      5  C   UNL     1      48.592   6.259  15.228  0.00  0.00    +0.000 A 
ATOM      6  C   UNL     1      48.214   6.931  14.066  0.00  0.00    +0.000 A 
ATOM      7  C   UNL     1      47.158   6.447  13.292  0.00  0.00    +0.000 A 
ATOM      8  C   UNL     1      46.476   5.272  13.644  0.00  0.00    +0.000 A 
ATOM      9  C   UNL     1      46.918   4.592  14.791  0.00  0.00    +0.000 A 
BRANCH   8  10
ATOM     10  C   UNL     1      45.270   4.815  12.919  0.00  0.00    +0.000 A 
ATOM     11  C   UNL     1      44.083   5.573  12.896  0.00  0.00    +0.000 A 
ATOM     12  C   UNL     1      42.977   5.168  12.142  0.00  0.00    +0.000 A 
ATOM     13  C   UNL     1      43.025   3.988  11.402  0.00  0.00    +0.000 A 
ATOM     14  C   UNL     1      44.181   3.217  11.411  0.00  0.00    +0.000 A 
ATOM     15  C   UNL     1      45.289   3.633  12.159  0.00  0.00    +0.000 A 
ENDBRANCH   8  10
ENDBRANCH   1   4
BRANCH   1  16
ATOM     16  N   UNL     1      49.556   4.549  17.431  0.00  0.00    +0.000 N 
ATOM     17  H   UNL     1      50.000   5.422  17.146  0.00  0.00    +0.000 HD
BRANCH  16  21
ATOM     18  C   UNL     1      52.303   1.494  17.701  0.00  0.00    +0.000 A 
ATOM     19  N   UNL     1      51.117   1.176  17.145  0.00  0.00    +0.000 NA
ATOM     20  C   UNL     1      50.230   2.193  17.025  0.00  0.00    +0.000 A 
ATOM     21  C   UNL     1      50.478   3.495  17.409  0.00  0.00    +0.000 A 
ATOM     22  C   UNL     1      51.738   3.679  17.966  0.00  0.00    +0.000 A 
ATOM     23  N   UNL     1      52.671   2.718  18.117  0.00  0.00    +0.000 NA
BRANCH  18  25
ATOM     24  N   UNL     1      53.992  -0.449  18.073  0.00  0.00    +0.000 NA
ATOM     25  C   UNL     1      53.243   0.424  17.904  0.00  0.00    +0.000 C 
ENDBRANCH  18  25
ENDBRANCH  16  21
ENDBRANCH   1  16
TORSDOF 5
ENDMDL
MODEL 7
REMARK VINA RESULT:    -6.234      3.216      6.911
REMARK INTER + INTRA:          -8.905
REMARK INTER:                  -8.112
REMARK INTRA:                  -0.794
REMARK UNBOUND:                -0.848
REMARK  Name = 
REMARK  5 active torsions:
REMARK  status: ('A' for Active; 'I' for Inactive)
REMARK    1  A    between atoms: C_2  and  C_3
REMARK    2  A    between atoms: C_6  and  N_7
REMARK    3  A    between atoms: N_7  and  C_8
REMARK    4  A    between atoms: C_8  and  C_9
REMARK    5  A    between atoms: C_13  and  C_14
REMARK                            x       y       z     vdW  Elec       q    Type
REMARK                         _______ _______ _______ _____ _____    ______ ____
ROOT
ATOM      1  C   UNL     1      46.223   5.561  13.133  0.00  0.00    +0.000 C 
ATOM      2  C   UNL     1      46.029   4.746  14.407  0.00  0.00    +0.000 C 
ATOM      3  C   UNL     1      47.217   4.501  13.540  0.00  0.00    +0.000 C 
ENDROOT
BRANCH   1   4
ATOM      4  C   UNL     1      45.315   5.310  11.939  0.00  0.00    +0.000 A 
ATOM      5  C   UNL     1      43.925   5.476  12.005  0.00  0.00    +0.000 A 
ATOM      6  C   UNL     1      43.101   5.026  10.974  0.00  0.00    +0.000 A 
ATOM      7  C   UNL     1      43.655   4.388   9.864  0.00  0.00    +0.000 A 
ATOM      8  C   UNL     1      45.042   4.208   9.745  0.00  0.00    +0.000 A 
ATOM      9  C   UNL     1      45.847   4.721  10.775  0.00  0.00    +0.000 A 
BRANCH   8  10
ATOM     10  C   UNL     1      45.642   3.416   8.648  0.00  0.00    +0.000 A 
ATOM     11  C   UNL     1      46.169   4.026   7.493  0.00  0.00    +0.000 A 
ATOM     12  C   UNL     1      46.803   3.273   6.500  0.00  0.00    +0.000 A 
ATOM     13  C   UNL     1      46.917   1.890   6.632  0.00  0.00    +0.000 A 
ATOM     14  C   UNL     1      46.401   1.262   7.759  0.00  0.00    +0.000 A 
ATOM     15  C   UNL     1      45.776   2.021   8.754  0.00  0.00    +0.000 A 
ENDBRANCH   8  10
ENDBRANCH   1   4
BRANCH   1  16
ATOM     16  N   UNL     1      46.377   7.002  13.413  0.00  0.00    +0.000 N 
ATOM     17  H   UNL     1      45.483   7.488  13.470  0.00  0.00    +0.000 HD
BRANCH  16  21
ATOM     18  C   UNL     1      49.408   9.460  12.101  0.00  0.00    +0.000 A 
ATOM     19  N   UNL     1      49.236   8.314  11.412  0.00  0.00    +0.000 NA
ATOM     20  C   UNL     1      48.214   7.526  11.824  0.00  0.00    +0.000 A 
ATOM     21  C   UNL     1      47.359   7.836  12.863  0.00  0.00    +0.000 A 
ATOM     22  C   UNL     1      47.654   9.044  13.483  0.00  0.00    +0.000 A 
ATOM     23  N   UNL     1      48.651   9.879  13.128  0.00  0.00    +0.000 NA
BRANCH  18  25
ATOM     24  N   UNL     1      51.434  10.956  11.446  0.00  0.00    +0.000 NA
ATOM     25  C   UNL     1      50.525  10.288  11.731  0.00  0.00    +0.000 C 
ENDBRANCH  18  25
ENDBRANCH  16  21
ENDBRANCH   1  16
TORSDOF 5
ENDMDL
MODEL 8
REMARK VINA RESULT:    -6.070      3.167      6.107
REMARK INTER + INTRA:          -8.693
REMARK INTER:                  -7.854
REMARK INTRA:                  -0.838
REMARK UNBOUND:                -0.848
REMARK  Name = 
REMARK  5 active torsions:
REMARK  status: ('A' for Active; 'I' for Inactive)
REMARK    1  A    between atoms: C_2  and  C_3
REMARK    2  A    between atoms: C_6  and  N_7
REMARK    3  A    between atoms: N_7  and  C_8
REMARK    4  A    between atoms: C_8  and  C_9
REMARK    5  A    between atoms: C_13  and  C_14
REMARK                            x       y       z     vdW  Elec       q    Type
REMARK                         _______ _______ _______ _____ _____    ______ ____
ROOT
ATOM      1  C   UNL     1      48.067   7.940  12.551  0.00  0.00    +0.000 C 
ATOM      2  C   UNL     1      48.993   8.881  11.788  0.00  0.00    +0.000 C 
ATOM      3  C   UNL     1      49.226   7.409  11.743  0.00  0.00    +0.000 C 
ENDROOT
BRANCH   1   4
ATOM      4  C   UNL     1      48.135   7.893  14.069  0.00  0.00    +0.000 A 
ATOM      5  C   UNL     1      48.203   9.053  14.854  0.00  0.00    +0.000 A 
ATOM      6  C   UNL     1      48.490   8.979  16.216  0.00  0.00    +0.000 A 
ATOM      7  C   UNL     1      48.728   7.741  16.814  0.00  0.00    +0.000 A 
ATOM      8  C   UNL     1      48.659   6.550  16.074  0.00  0.00    +0.000 A 
ATOM      9  C   UNL     1      48.315   6.656  14.717  0.00  0.00    +0.000 A 
BRANCH   8  10
ATOM     10  C   UNL     1      49.040   5.242  16.651  0.00  0.00    +0.000 A 
ATOM     11  C   UNL     1      48.200   4.115  16.559  0.00  0.00    +0.000 A 
ATOM     12  C   UNL     1      48.606   2.866  17.039  0.00  0.00    +0.000 A 
ATOM     13  C   UNL     1      49.857   2.714  17.634  0.00  0.00    +0.000 A 
ATOM     14  C   UNL     1      50.704   3.810  17.744  0.00  0.00    +0.000 A 
ATOM     15  C   UNL     1      50.297   5.056  17.253  0.00  0.00    +0.000 A 
ENDBRANCH   8  10
ENDBRANCH   1   4
BRANCH   1  16
ATOM     16  N   UNL     1      46.676   8.015  12.064  0.00  0.00    +0.000 N 
ATOM     17  H   UNL     1      46.187   8.845  12.400  0.00  0.00    +0.000 HD
BRANCH  16  21
ATOM     18  C   UNL     1      44.355   4.632  11.714  0.00  0.00    +0.000 A 
ATOM     19  N   UNL     1      44.136   5.389  12.808  0.00  0.00    +0.000 NA
ATOM     20  C   UNL     1      44.876   6.520  12.900  0.00  0.00    +0.000 A 
ATOM     21  C   UNL     1      45.794   6.932  11.955  0.00  0.00    +0.000 A 
ATOM     22  C   UNL     1      45.918   6.056  10.883  0.00  0.00    +0.000 A 
ATOM     23  N   UNL     1      45.217   4.916  10.723  0.00  0.00    +0.000 NA
BRANCH  18  25
ATOM     24  N   UNL     1      43.042   2.393  11.531  0.00  0.00    +0.000 NA
ATOM     25  C   UNL     1      43.634   3.391  11.618  0.00  0.00    +0.000 C 
ENDBRANCH  18  25
ENDBRANCH  16  21
ENDBRANCH   1  16
TORSDOF 5
ENDMDL
MODEL 9
REMARK VINA RESULT:    -5.786      4.365      8.138
REMARK INTER + INTRA:          -8.325
REMARK INTER:                  -7.668
REMARK INTRA:                  -0.657
REMARK UNBOUND:                -0.848
REMARK  Name = 
REMARK  5 active torsions:
REMARK  status: ('A' for Active; 'I' for Inactive)
REMARK    1  A    between atoms: C_2  and  C_3
REMARK    2  A    between atoms: C_6  and  N_7
REMARK    3  A    between atoms: N_7  and  C_8
REMARK    4  A    between atoms: C_8  and  C_9
REMARK    5  A    between atoms: C_13  and  C_14
REMARK                            x       y       z     vdW  Elec       q    Type
REMARK                         _______ _______ _______ _____ _____    ______ ____
ROOT
ATOM      1  C   UNL     1      48.989   7.863  12.517  0.00  0.00    +0.000 C 
ATOM      2  C   UNL     1      50.009   7.965  11.388  0.00  0.00    +0.000 C 
ATOM      3  C   UNL     1      49.700   9.161  12.223  0.00  0.00    +0.000 C 
ENDROOT
BRANCH   1   4
ATOM      4  C   UNL     1      47.512   7.730  12.181  0.00  0.00    +0.000 A 
ATOM      5  C   UNL     1      46.527   8.510  12.802  0.00  0.00    +0.000 A 
ATOM      6  C   UNL     1      45.174   8.215  12.643  0.00  0.00    +0.000 A 
ATOM      7  C   UNL     1      44.784   7.121  11.869  0.00  0.00    +0.000 A 
ATOM      8  C   UNL     1      45.730   6.317  11.216  0.00  0.00    +0.000 A 
ATOM      9  C   UNL     1      47.082   6.675  11.353  0.00  0.00    +0.000 A 
BRANCH   8  10
ATOM     10  C   UNL     1      45.352   5.076  10.503  0.00  0.00    +0.000 A 
ATOM     11  C   UNL     1      44.637   4.042  11.139  0.00  0.00    +0.000 A 
ATOM     12  C   UNL     1      44.217   2.910  10.433  0.00  0.00    +0.000 A 
ATOM     13  C   UNL     1      44.512   2.778   9.078  0.00  0.00    +0.000 A 
ATOM     14  C   UNL     1      45.221   3.780   8.427  0.00  0.00    +0.000 A 
ATOM     15  C   UNL     1      45.630   4.915   9.135  0.00  0.00    +0.000 A 
ENDBRANCH   8  10
ENDBRANCH   1   4
BRANCH   1  16
ATOM     16  N   UNL     1      49.405   6.900  13.556  0.00  0.00    +0.000 N 
ATOM     17  H   UNL     1      49.247   5.932  13.279  0.00  0.00    +0.000 HD
BRANCH  16  21
ATOM     18  C   UNL     1      48.612   7.608  17.533  0.00  0.00    +0.000 A 
ATOM     19  N   UNL     1      48.446   6.338  17.114  0.00  0.00    +0.000 NA
ATOM     20  C   UNL     1      48.743   6.103  15.814  0.00  0.00    +0.000 A 
ATOM     21  C   UNL     1      49.211   7.058  14.934  0.00  0.00    +0.000 A 
ATOM     22  C   UNL     1      49.333   8.321  15.500  0.00  0.00    +0.000 A 
ATOM     23  N   UNL     1      49.058   8.630  16.783  0.00  0.00    +0.000 NA
BRANCH  18  25
ATOM     24  N   UNL     1      47.930   8.151  19.984  0.00  0.00    +0.000 NA
ATOM     25  C   UNL     1      48.242   7.907  18.891  0.00  0.00    +0.000 C 
ENDBRANCH  18  25
ENDBRANCH  16  21
ENDBRANCH   1  16
TORSDOF 5
ENDMDL
