MODEL 1
REMARK VINA RESULT:    -8.989      0.000      0.000
REMARK INTER + INTRA:         -13.252
REMARK INTER:                 -12.405
REMARK INTRA:                  -0.848
REMARK UNBOUND:                -0.848
REMARK  Name = 
REMARK  7 active torsions:
REMARK  status: ('A' for Active; 'I' for Inactive)
REMARK    1  A    between atoms: C_2  and  C_20
REMARK    2  A    between atoms: N_3  and  C_4
REMARK    3  A    between atoms: C_4  and  C_5
REMARK    4  A    between atoms: C_8  and  C_9
REMARK    5  A    between atoms: C_9  and  N_10
REMARK    6  A    between atoms: N_10  and  C_11
REMARK    7  A    between atoms: C_14  and  O_15
REMARK                            x       y       z     vdW  Elec       q    Type
REMARK                         _______ _______ _______ _____ _____    ______ ____
ROOT
ATOM      1  C   UNL     1      46.224   6.006  12.482  0.00  0.00    +0.000 A 
ATOM      2  C   UNL     1      45.620   6.231  11.245  0.00  0.00    +0.000 A 
ATOM      3  C   UNL     1      44.890   5.219  10.634  0.00  0.00    +0.000 A 
ATOM      4  C   UNL     1      44.762   3.996  11.284  0.00  0.00    +0.000 A 
ATOM      5  N   UNL     1      45.306   3.758  12.508  0.00  0.00    +0.000 NA
ATOM      6  C   UNL     1      46.014   4.765  13.075  0.00  0.00    +0.000 A 
ENDROOT
BRANCH   1   7
ATOM      7  C   UNL     1      47.070   7.058  13.134  0.00  0.00    +0.000 C 
BRANCH   7  10
ATOM      8  O   UNL     1      49.710   6.971  14.123  0.00  0.00    +0.000 OA
ATOM      9  C   UNL     1      48.780   6.705  14.880  0.00  0.00    +0.000 C 
ATOM     10  N   UNL     1      47.473   6.684  14.467  0.00  0.00    +0.000 N 
ATOM     11  H   UNL     1      46.735   6.607  15.156  0.00  0.00    +0.000 HD
BRANCH   9  12
ATOM     12  C   UNL     1      49.013   6.343  16.282  0.00  0.00    +0.000 A 
ATOM     13  C   UNL     1      49.585   7.261  17.153  0.00  0.00    +0.000 A 
ATOM     14  S   UNL     1      49.740   6.680  18.750  0.00  0.00    +0.000 S 
ATOM     15  C   UNL     1      49.016   5.192  18.337  0.00  0.00    +0.000 A 
ATOM     16  N   UNL     1      48.799   4.234  19.273  0.00  0.00    +0.000 NA
ATOM     17  C   UNL     1      48.204   3.176  18.827  0.00  0.00    +0.000 A 
ATOM     18  N   UNL     1      47.827   2.986  17.522  0.00  0.00    +0.000 N 
ATOM     19  C   UNL     1      48.115   3.887  16.526  0.00  0.00    +0.000 A 
ATOM     20  O   UNL     1      47.921   3.608  15.343  0.00  0.00    +0.000 OA
ATOM     21  C   UNL     1      48.709   5.124  16.989  0.00  0.00    +0.000 A 
ATOM     22  H   UNL     1      47.411   2.113  17.228  0.00  0.00    +0.000 HD
ENDBRANCH   9  12
ENDBRANCH   7  10
ENDBRANCH   1   7
BRANCH   4  23
ATOM     23  C   UNL     1      44.006   2.862  10.614  0.00  0.00    +0.000 C 
BRANCH  23  24
ATOM     24  N   UNL     1      44.143   2.815   9.154  0.00  0.00    +0.000 NA
ATOM     25  H   UNL     1      43.860   3.744   8.828  0.00  0.00    +0.000 HD
BRANCH  24  26
ATOM     26  C   UNL     1      45.492   2.552   8.641  0.00  0.00    +0.000 C 
ATOM     27  C   UNL     1      45.771   1.087   8.264  0.00  0.00    +0.000 C 
ATOM     28  C   UNL     1      47.130   0.936   7.571  0.00  0.00    +0.000 C 
ATOM     29  C   UNL     1      47.233   1.838   6.343  0.00  0.00    +0.000 C 
ATOM     30  C   UNL     1      46.979   3.296   6.711  0.00  0.00    +0.000 C 
ATOM     31  C   UNL     1      45.638   3.464   7.407  0.00  0.00    +0.000 C 
BRANCH  29  32
ATOM     32  O   UNL     1      48.523   1.714   5.754  0.00  0.00    +0.000 OA
ATOM     33  H   UNL     1      48.800   0.784   5.824  0.00  0.00    +0.000 HD
ENDBRANCH  29  32
ENDBRANCH  24  26
ENDBRANCH  23  24
ENDBRANCH   4  23
TORSDOF 7
ENDMDL
MODEL 2
REMARK VINA RESULT:    -8.632      1.697      2.305
REMARK INTER + INTRA:         -12.760
REMARK INTER:                 -12.042
REMARK INTRA:                  -0.718
REMARK UNBOUND:                -0.848
REMARK  Name = 
REMARK  7 active torsions:
REMARK  status: ('A' for Active; 'I' for Inactive)
REMARK    1  A    between atoms: C_2  and  C_20
REMARK    2  A    between atoms: N_3  and  C_4
REMARK    3  A    between atoms: C_4  and  C_5
REMARK    4  A    between atoms: C_8  and  C_9
REMARK    5  A    between atoms: C_9  and  N_10
REMARK    6  A    between atoms: N_10  and  C_11
REMARK    7  A    between atoms: C_14  and  O_15
REMARK                            x       y       z     vdW  Elec       q    Type
REMARK                         _______ _______ _______ _____ _____    ______ ____
ROOT
ATOM      1  C   UNL     1      46.590   5.523  12.870  0.00  0.00    +0.000 A 
ATOM      2  C   UNL     1      45.960   5.963  11.706  0.00  0.00    +0.000 A 
ATOM      3  C   UNL     1      45.109   5.111  11.012  0.00  0.00    +0.000 A 
ATOM      4  C   UNL     1      44.889   3.830  11.508  0.00  0.00    +0.000 A 
ATOM      5  N   UNL     1      45.458   3.386  12.662  0.00  0.00    +0.000 NA
ATOM      6  C   UNL     1      46.283   4.240  13.313  0.00  0.00    +0.000 A 
ENDROOT
BRANCH   1   7
ATOM      7  C   UNL     1      47.561   6.398  13.603  0.00  0.00    +0.000 C 
BRANCH   7  10
ATOM      8  O   UNL     1      49.828   6.656  15.261  0.00  0.00    +0.000 OA
ATOM      9  C   UNL     1      48.772   6.263  15.751  0.00  0.00    +0.000 C 
ATOM     10  N   UNL     1      47.638   6.072  15.006  0.00  0.00    +0.000 N 
ATOM     11  H   UNL     1      46.759   5.893  15.475  0.00  0.00    +0.000 HD
BRANCH   9  12
ATOM     12  C   UNL     1      48.666   5.925  17.174  0.00  0.00    +0.000 A 
ATOM     13  C   UNL     1      48.862   4.617  17.597  0.00  0.00    +0.000 A 
ATOM     14  S   UNL     1      48.741   4.423  19.288  0.00  0.00    +0.000 S 
ATOM     15  C   UNL     1      48.454   6.088  19.514  0.00  0.00    +0.000 A 
ATOM     16  N   UNL     1      48.304   6.612  20.758  0.00  0.00    +0.000 NA
ATOM     17  C   UNL     1      48.136   7.893  20.781  0.00  0.00    +0.000 A 
ATOM     18  N   UNL     1      48.084   8.693  19.668  0.00  0.00    +0.000 N 
ATOM     19  C   UNL     1      48.132   8.192  18.389  0.00  0.00    +0.000 A 
ATOM     20  O   UNL     1      47.907   8.912  17.417  0.00  0.00    +0.000 OA
ATOM     21  C   UNL     1      48.402   6.771  18.311  0.00  0.00    +0.000 A 
ATOM     22  H   UNL     1      47.897   9.682  19.752  0.00  0.00    +0.000 HD
ENDBRANCH   9  12
ENDBRANCH   7  10
ENDBRANCH   1   7
BRANCH   4  23
ATOM     23  C   UNL     1      43.998   2.869  10.742  0.00  0.00    +0.000 C 
BRANCH  23  24
ATOM     24  N   UNL     1      44.150   2.924   9.285  0.00  0.00    +0.000 NA
ATOM     25  H   UNL     1      43.947   3.895   9.030  0.00  0.00    +0.000 HD
BRANCH  24  26
ATOM     26  C   UNL     1      45.481   2.592   8.762  0.00  0.00    +0.000 C 
ATOM     27  C   UNL     1      45.665   1.126   8.333  0.00  0.00    +0.000 C 
ATOM     28  C   UNL     1      47.013   0.913   7.635  0.00  0.00    +0.000 C 
ATOM     29  C   UNL     1      47.177   1.850   6.440  0.00  0.00    +0.000 C 
ATOM     30  C   UNL     1      47.016   3.307   6.859  0.00  0.00    +0.000 C 
ATOM     31  C   UNL     1      45.688   3.536   7.561  0.00  0.00    +0.000 C 
BRANCH  29  32
ATOM     32  O   UNL     1      48.457   1.663   5.847  0.00  0.00    +0.000 OA
ATOM     33  H   UNL     1      48.333   1.533   4.891  0.00  0.00    +0.000 HD
ENDBRANCH  29  32
ENDBRANCH  24  26
ENDBRANCH  23  24
ENDBRANCH   4  23
TORSDOF 7
ENDMDL
MODEL 3
REMARK VINA RESULT:    -7.944      1.697      2.261
REMARK INTER + INTRA:         -11.810
REMARK INTER:                 -11.011
REMARK INTRA:                  -0.799
REMARK UNBOUND:                -0.848
REMARK  Name = 
REMARK  7 active torsions:
REMARK  status: ('A' for Active; 'I' for Inactive)
REMARK    1  A    between atoms: C_2  and  C_20
REMARK    2  A    between atoms: N_3  and  C_4
REMARK    3  A    between atoms: C_4  and  C_5
REMARK    4  A    between atoms: C_8  and  C_9
REMARK    5  A    between atoms: C_9  and  N_10
REMARK    6  A    between atoms: N_10  and  C_11
REMARK    7  A    between atoms: C_14  and  O_15
REMARK                            x       y       z     vdW  Elec       q    Type
REMARK                         _______ _______ _______ _____ _____    ______ ____
ROOT
ATOM      1  C   UNL     1      45.516   7.286  12.335  0.00  0.00    +0.000 A 
ATOM      2  C   UNL     1      44.433   7.085  11.480  0.00  0.00    +0.000 A 
ATOM      3  C   UNL     1      44.198   5.827  10.939  0.00  0.00    +0.000 A 
ATOM      4  C   UNL     1      45.049   4.780  11.279  0.00  0.00    +0.000 A 
ATOM      5  N   UNL     1      46.090   4.935  12.141  0.00  0.00    +0.000 NA
ATOM      6  C   UNL     1      46.292   6.174  12.649  0.00  0.00    +0.000 A 
ENDROOT
BRANCH   1   7
ATOM      7  C   UNL     1      45.829   8.645  12.883  0.00  0.00    +0.000 C 
BRANCH   7  10
ATOM      8  O   UNL     1      48.604   9.144  12.944  0.00  0.00    +0.000 OA
ATOM      9  C   UNL     1      48.022   8.877  13.993  0.00  0.00    +0.000 C 
ATOM     10  N   UNL     1      46.685   8.583  14.042  0.00  0.00    +0.000 N 
ATOM     11  H   UNL     1      46.222   8.518  14.940  0.00  0.00    +0.000 HD
BRANCH   9  12
ATOM     12  C   UNL     1      48.738   8.812  15.271  0.00  0.00    +0.000 A 
ATOM     13  C   UNL     1      49.196   9.977  15.874  0.00  0.00    +0.000 A 
ATOM     14  S   UNL     1      49.967   9.711  17.373  0.00  0.00    +0.000 S 
ATOM     15  C   UNL     1      49.684   8.031  17.282  0.00  0.00    +0.000 A 
ATOM     16  N   UNL     1      50.059   7.201  18.288  0.00  0.00    +0.000 NA
ATOM     17  C   UNL     1      49.744   5.961  18.103  0.00  0.00    +0.000 A 
ATOM     18  N   UNL     1      49.105   5.477  16.991  0.00  0.00    +0.000 N 
ATOM     19  C   UNL     1      48.796   6.265  15.908  0.00  0.00    +0.000 A 
ATOM     20  O   UNL     1      48.385   5.769  14.860  0.00  0.00    +0.000 OA
ATOM     21  C   UNL     1      49.056   7.677  16.100  0.00  0.00    +0.000 A 
ATOM     22  H   UNL     1      48.933   4.487  16.885  0.00  0.00    +0.000 HD
ENDBRANCH   9  12
ENDBRANCH   7  10
ENDBRANCH   1   7
BRANCH   4  23
ATOM     23  C   UNL     1      44.837   3.408  10.664  0.00  0.00    +0.000 C 
BRANCH  23  24
ATOM     24  N   UNL     1      44.161   3.418   9.363  0.00  0.00    +0.000 NA
ATOM     25  H   UNL     1      43.907   4.397   9.200  0.00  0.00    +0.000 HD
BRANCH  24  26
ATOM     26  C   UNL     1      44.960   2.967   8.218  0.00  0.00    +0.000 C 
ATOM     27  C   UNL     1      45.929   4.017   7.646  0.00  0.00    +0.000 C 
ATOM     28  C   UNL     1      46.847   3.410   6.579  0.00  0.00    +0.000 C 
ATOM     29  C   UNL     1      47.615   2.207   7.124  0.00  0.00    +0.000 C 
ATOM     30  C   UNL     1      46.663   1.152   7.675  0.00  0.00    +0.000 C 
ATOM     31  C   UNL     1      45.738   1.739   8.729  0.00  0.00    +0.000 C 
BRANCH  29  32
ATOM     32  O   UNL     1      48.417   1.635   6.097  0.00  0.00    +0.000 OA
ATOM     33  H   UNL     1      47.905   1.646   5.270  0.00  0.00    +0.000 HD
ENDBRANCH  29  32
ENDBRANCH  24  26
ENDBRANCH  23  24
ENDBRANCH   4  23
TORSDOF 7
ENDMDL
MODEL 4
REMARK VINA RESULT:    -7.844      2.188      3.169
REMARK INTER + INTRA:         -11.672
REMARK INTER:                 -10.988
REMARK INTRA:                  -0.683
REMARK UNBOUND:                -0.848
REMARK  Name = 
REMARK  7 active torsions:
REMARK  status: ('A' for Active; 'I' for Inactive)
REMARK    1  A    between atoms: C_2  and  C_20
REMARK    2  A    between atoms: N_3  and  C_4
REMARK    3  A    between atoms: C_4  and  C_5
REMARK    4  A    between atoms: C_8  and  C_9
REMARK    5  A    between atoms: C_9  and  N_10
REMARK    6  A    between atoms: N_10  and  C_11
REMARK    7  A    between atoms: C_14  and  O_15
REMARK                            x       y       z     vdW  Elec       q    Type
REMARK                         _______ _______ _______ _____ _____    ______ ____
ROOT
ATOM      1  C   UNL     1      46.220   6.241  12.540  0.00  0.00    +0.000 A 
ATOM      2  C   UNL     1      46.020   5.039  13.220  0.00  0.00    +0.000 A 
ATOM      3  C   UNL     1      45.346   3.994  12.599  0.00  0.00    +0.000 A 
ATOM      4  C   UNL     1      44.894   4.166  11.294  0.00  0.00    +0.000 A 
ATOM      5  N   UNL     1      45.109   5.312  10.592  0.00  0.00    +0.000 NA
ATOM      6  C   UNL     1      45.767   6.311  11.227  0.00  0.00    +0.000 A 
ENDROOT
BRANCH   1   7
ATOM      7  C   UNL     1      46.888   7.405  13.207  0.00  0.00    +0.000 C 
BRANCH   7  10
ATOM      8  O   UNL     1      48.038   8.829  15.353  0.00  0.00    +0.000 OA
ATOM      9  C   UNL     1      48.509   7.739  15.040  0.00  0.00    +0.000 C 
ATOM     10  N   UNL     1      48.034   7.004  13.985  0.00  0.00    +0.000 N 
ATOM     11  H   UNL     1      48.352   6.051  13.860  0.00  0.00    +0.000 HD
BRANCH   9  12
ATOM     12  C   UNL     1      49.653   7.164  15.756  0.00  0.00    +0.000 A 
ATOM     13  C   UNL     1      49.445   6.349  16.861  0.00  0.00    +0.000 A 
ATOM     14  S   UNL     1      50.888   5.739  17.538  0.00  0.00    +0.000 S 
ATOM     15  C   UNL     1      51.837   6.519  16.355  0.00  0.00    +0.000 A 
ATOM     16  N   UNL     1      53.186   6.370  16.328  0.00  0.00    +0.000 NA
ATOM     17  C   UNL     1      53.771   6.982  15.351  0.00  0.00    +0.000 A 
ATOM     18  N   UNL     1      53.127   7.746  14.412  0.00  0.00    +0.000 N 
ATOM     19  C   UNL     1      51.778   8.002  14.460  0.00  0.00    +0.000 A 
ATOM     20  O   UNL     1      51.262   8.829  13.709  0.00  0.00    +0.000 OA
ATOM     21  C   UNL     1      51.065   7.273  15.488  0.00  0.00    +0.000 A 
ATOM     22  H   UNL     1      53.650   8.241  13.704  0.00  0.00    +0.000 HD
ENDBRANCH   9  12
ENDBRANCH   7  10
ENDBRANCH   1   7
BRANCH   4  23
ATOM     23  C   UNL     1      44.117   3.054  10.614  0.00  0.00    +0.000 C 
BRANCH  23  24
ATOM     24  N   UNL     1      44.244   3.024   9.153  0.00  0.00    +0.000 NA
ATOM     25  H   UNL     1      44.026   3.976   8.845  0.00  0.00    +0.000 HD
BRANCH  24  26
ATOM     26  C   UNL     1      45.570   2.677   8.629  0.00  0.00    +0.000 C 
ATOM     27  C   UNL     1      45.757   1.194   8.263  0.00  0.00    +0.000 C 
ATOM     28  C   UNL     1      47.097   0.956   7.558  0.00  0.00    +0.000 C 
ATOM     29  C   UNL     1      47.241   1.840   6.321  0.00  0.00    +0.000 C 
ATOM     30  C   UNL     1      47.077   3.313   6.676  0.00  0.00    +0.000 C 
ATOM     31  C   UNL     1      45.756   3.566   7.384  0.00  0.00    +0.000 C 
BRANCH  29  32
ATOM     32  O   UNL     1      48.515   1.634   5.720  0.00  0.00    +0.000 OA
ATOM     33  H   UNL     1      49.170   1.517   6.429  0.00  0.00    +0.000 HD
ENDBRANCH  29  32
ENDBRANCH  24  26
ENDBRANCH  23  24
ENDBRANCH   4  23
TORSDOF 7
ENDMDL
MODEL 5
REMARK VINA RESULT:    -7.663      3.899      4.732
REMARK INTER + INTRA:         -11.422
REMARK INTER:                 -10.288
REMARK INTRA:                  -1.134
REMARK UNBOUND:                -0.848
REMARK  Name = 
REMARK  7 active torsions:
REMARK  status: ('A' for Active; 'I' for Inactive)
REMARK    1  A    between atoms: C_2  and  C_20
REMARK    2  A    between atoms: N_3  and  C_4
REMARK    3  A    between atoms: C_4  and  C_5
REMARK    4  A    between atoms: C_8  and  C_9
REMARK    5  A    between atoms: C_9  and  N_10
REMARK    6  A    between atoms: N_10  and  C_11
REMARK    7  A    between atoms: C_14  and  O_15
REMARK                            x       y       z     vdW  Elec       q    Type
REMARK                         _______ _______ _______ _____ _____    ______ ____
ROOT
ATOM      1  C   UNL     1      45.287   7.095  12.401  0.00  0.00    +0.000 A 
ATOM      2  C   UNL     1      46.023   5.993  12.837  0.00  0.00    +0.000 A 
ATOM      3  C   UNL     1      45.731   4.726  12.348  0.00  0.00    +0.000 A 
ATOM      4  C   UNL     1      44.712   4.584  11.412  0.00  0.00    +0.000 A 
ATOM      5  N   UNL     1      44.003   5.645  10.938  0.00  0.00    +0.000 NA
ATOM      6  C   UNL     1      44.311   6.866  11.436  0.00  0.00    +0.000 A 
ENDROOT
BRANCH   1   7
ATOM      7  C   UNL     1      45.539   8.464  12.958  0.00  0.00    +0.000 C 
BRANCH   7  10
ATOM      8  O   UNL     1      47.695   9.131  14.649  0.00  0.00    +0.000 OA
ATOM      9  C   UNL     1      47.828   9.257  13.434  0.00  0.00    +0.000 C 
ATOM     10  N   UNL     1      46.816   8.993  12.549  0.00  0.00    +0.000 N 
ATOM     11  H   UNL     1      47.017   8.967  11.557  0.00  0.00    +0.000 HD
BRANCH   9  12
ATOM     12  C   UNL     1      49.080   9.745  12.847  0.00  0.00    +0.000 A 
ATOM     13  C   UNL     1      49.484  11.057  13.058  0.00  0.00    +0.000 A 
ATOM     14  S   UNL     1      50.982  11.434  12.334  0.00  0.00    +0.000 S 
ATOM     15  C   UNL     1      51.157   9.844  11.741  0.00  0.00    +0.000 A 
ATOM     16  N   UNL     1      52.268   9.469  11.056  0.00  0.00    +0.000 NA
ATOM     17  C   UNL     1      52.284   8.225  10.706  0.00  0.00    +0.000 A 
ATOM     18  N   UNL     1      51.278   7.329  10.963  0.00  0.00    +0.000 N 
ATOM     19  C   UNL     1      50.097   7.690  11.566  0.00  0.00    +0.000 A 
ATOM     20  O   UNL     1      49.149   6.908  11.623  0.00  0.00    +0.000 OA
ATOM     21  C   UNL     1      50.063   9.055  12.050  0.00  0.00    +0.000 A 
ATOM     22  H   UNL     1      51.329   6.382  10.616  0.00  0.00    +0.000 HD
ENDBRANCH   9  12
ENDBRANCH   7  10
ENDBRANCH   1   7
BRANCH   4  23
ATOM     23  C   UNL     1      44.347   3.203  10.899  0.00  0.00    +0.000 C 
BRANCH  23  24
ATOM     24  N   UNL     1      44.361   3.070   9.438  0.00  0.00    +0.000 NA
ATOM     25  H   UNL     1      44.114   3.998   9.081  0.00  0.00    +0.000 HD
BRANCH  24  26
ATOM     26  C   UNL     1      45.645   2.687   8.838  0.00  0.00    +0.000 C 
ATOM     27  C   UNL     1      45.728   1.229   8.354  0.00  0.00    +0.000 C 
ATOM     28  C   UNL     1      47.026   0.969   7.582  0.00  0.00    +0.000 C 
ATOM     29  C   UNL     1      47.182   1.937   6.411  0.00  0.00    +0.000 C 
ATOM     30  C   UNL     1      47.122   3.385   6.884  0.00  0.00    +0.000 C 
ATOM     31  C   UNL     1      45.844   3.659   7.659  0.00  0.00    +0.000 C 
BRANCH  29  32
ATOM     32  O   UNL     1      48.420   1.704   5.748  0.00  0.00    +0.000 OA
ATOM     33  H   UNL     1      48.515   2.364   5.040  0.00  0.00    +0.000 HD
ENDBRANCH  29  32
ENDBRANCH  24  26
ENDBRANCH  23  24
ENDBRANCH   4  23
TORSDOF 7
ENDMDL
MODEL 6
REMARK VINA RESULT:    -7.178      3.046      8.577
REMARK INTER + INTRA:         -10.754
REMARK INTER:                  -9.668
REMARK INTRA:                  -1.086
REMARK UNBOUND:                -0.848
REMARK  Name = 
REMARK  7 active torsions:
REMARK  status: ('A' for Active; 'I' for Inactive)
REMARK    1  A    between atoms: C_2  and  C_20
REMARK    2  A    between atoms: N_3  and  C_4
REMARK    3  A    between atoms: C_4  and  C_5
REMARK    4  A    between atoms: C_8  and  C_9
REMARK    5  A    between atoms: C_9  and  N_10
REMARK    6  A    between atoms: N_10  and  C_11
REMARK    7  A    between atoms: C_14  and  O_15
REMARK                            x       y       z     vdW  Elec       q    Type
REMARK                         _______ _______ _______ _____ _____    ______ ____
ROOT
ATOM      1  C   UNL     1      48.390   7.979  13.204  0.00  0.00    +0.000 A 
ATOM      2  C   UNL     1      47.739   8.650  14.239  0.00  0.00    +0.000 A 
ATOM      3  C   UNL     1      48.317   8.709  15.501  0.00  0.00    +0.000 A 
ATOM      4  C   UNL     1      49.555   8.106  15.702  0.00  0.00    +0.000 A 
ATOM      5  N   UNL     1      50.233   7.479  14.703  0.00  0.00    +0.000 NA
ATOM      6  C   UNL     1      49.640   7.437  13.485  0.00  0.00    +0.000 A 
ENDROOT
BRANCH   1   7
ATOM      7  C   UNL     1      47.760   7.846  11.850  0.00  0.00    +0.000 C 
BRANCH   7  10
ATOM      8  O   UNL     1      44.971   7.510  12.097  0.00  0.00    +0.000 OA
ATOM      9  C   UNL     1      45.666   6.539  11.806  0.00  0.00    +0.000 C 
ATOM     10  N   UNL     1      47.031   6.611  11.707  0.00  0.00    +0.000 N 
ATOM     11  H   UNL     1      47.543   5.828  11.321  0.00  0.00    +0.000 HD
BRANCH   9  12
ATOM     12  C   UNL     1      45.078   5.214  11.586  0.00  0.00    +0.000 A 
ATOM     13  C   UNL     1      44.413   4.566  12.619  0.00  0.00    +0.000 A 
ATOM     14  S   UNL     1      43.760   3.056  12.167  0.00  0.00    +0.000 S 
ATOM     15  C   UNL     1      44.316   3.233  10.565  0.00  0.00    +0.000 A 
ATOM     16  N   UNL     1      44.049   2.294   9.621  0.00  0.00    +0.000 NA
ATOM     17  C   UNL     1      44.495   2.580   8.442  0.00  0.00    +0.000 A 
ATOM     18  N   UNL     1      45.201   3.713   8.130  0.00  0.00    +0.000 N 
ATOM     19  C   UNL     1      45.578   4.639   9.073  0.00  0.00    +0.000 A 
ATOM     20  O   UNL     1      46.357   5.549   8.792  0.00  0.00    +0.000 OA
ATOM     21  C   UNL     1      45.033   4.405  10.394  0.00  0.00    +0.000 A 
ATOM     22  H   UNL     1      45.567   3.852   7.198  0.00  0.00    +0.000 HD
ENDBRANCH   9  12
ENDBRANCH   7  10
ENDBRANCH   1   7
BRANCH   4  23
ATOM     23  C   UNL     1      50.184   8.120  17.083  0.00  0.00    +0.000 C 
BRANCH  23  24
ATOM     24  N   UNL     1      50.405   6.794  17.668  0.00  0.00    +0.000 NA
ATOM     25  H   UNL     1      50.333   6.931  18.681  0.00  0.00    +0.000 HD
BRANCH  24  26
ATOM     26  C   UNL     1      49.444   5.752  17.288  0.00  0.00    +0.000 C 
ATOM     27  C   UNL     1      49.966   4.310  17.405  0.00  0.00    +0.000 C 
ATOM     28  C   UNL     1      48.848   3.289  17.166  0.00  0.00    +0.000 C 
ATOM     29  C   UNL     1      47.673   3.516  18.115  0.00  0.00    +0.000 C 
ATOM     30  C   UNL     1      47.135   4.937  17.992  0.00  0.00    +0.000 C 
ATOM     31  C   UNL     1      48.233   5.964  18.218  0.00  0.00    +0.000 C 
BRANCH  29  32
ATOM     32  O   UNL     1      46.633   2.587  17.833  0.00  0.00    +0.000 OA
ATOM     33  H   UNL     1      46.812   1.770  18.329  0.00  0.00    +0.000 HD
ENDBRANCH  29  32
ENDBRANCH  24  26
ENDBRANCH  23  24
ENDBRANCH   4  23
TORSDOF 7
ENDMDL
MODEL 7
REMARK VINA RESULT:    -6.809      3.552      4.319
REMARK INTER + INTRA:         -10.245
REMARK INTER:                  -8.927
REMARK INTRA:                  -1.317
REMARK UNBOUND:                -0.848
REMARK  Name = 
REMARK  7 active torsions:
REMARK  status: ('A' for Active; 'I' for Inactive)
REMARK    1  A    between atoms: C_2  and  C_20
REMARK    2  A    between atoms: N_3  and  C_4
REMARK    3  A    between atoms: C_4  and  C_5
REMARK    4  A    between atoms: C_8  and  C_9
REMARK    5  A    between atoms: C_9  and  N_10
REMARK    6  A    between atoms: N_10  and  C_11
REMARK    7  A    between atoms: C_14  and  O_15
REMARK                            x       y       z     vdW  Elec       q    Type
REMARK                         _______ _______ _______ _____ _____    ______ ____
ROOT
ATOM      1  C   UNL     1      48.987   8.195  13.229  0.00  0.00    +0.000 A 
ATOM      2  C   UNL     1      48.679   7.367  12.150  0.00  0.00    +0.000 A 
ATOM      3  C   UNL     1      47.444   7.477  11.521  0.00  0.00    +0.000 A 
ATOM      4  C   UNL     1      46.540   8.431  11.977  0.00  0.00    +0.000 A 
ATOM      5  N   UNL     1      46.827   9.279  13.001  0.00  0.00    +0.000 NA
ATOM      6  C   UNL     1      48.038   9.145  13.594  0.00  0.00    +0.000 A 
ENDROOT
BRANCH   1   7
ATOM      7  C   UNL     1      50.286   8.056  13.966  0.00  0.00    +0.000 C 
BRANCH   7  10
ATOM      8  O   UNL     1      49.659   8.475  16.684  0.00  0.00    +0.000 OA
ATOM      9  C   UNL     1      49.873   7.331  16.290  0.00  0.00    +0.000 C 
ATOM     10  N   UNL     1      50.223   7.048  14.995  0.00  0.00    +0.000 N 
ATOM     11  H   UNL     1      50.242   6.085  14.684  0.00  0.00    +0.000 HD
BRANCH   9  12
ATOM     12  C   UNL     1      49.810   6.183  17.200  0.00  0.00    +0.000 A 
ATOM     13  C   UNL     1      50.646   6.125  18.308  0.00  0.00    +0.000 A 
ATOM     14  S   UNL     1      50.403   4.739  19.273  0.00  0.00    +0.000 S 
ATOM     15  C   UNL     1      49.149   4.185  18.258  0.00  0.00    +0.000 A 
ATOM     16  N   UNL     1      48.464   3.049  18.545  0.00  0.00    +0.000 NA
ATOM     17  C   UNL     1      47.513   2.774  17.713  0.00  0.00    +0.000 A 
ATOM     18  N   UNL     1      47.202   3.525  16.610  0.00  0.00    +0.000 N 
ATOM     19  C   UNL     1      47.931   4.626  16.229  0.00  0.00    +0.000 A 
ATOM     20  O   UNL     1      47.735   5.173  15.144  0.00  0.00    +0.000 OA
ATOM     21  C   UNL     1      48.956   5.022  17.173  0.00  0.00    +0.000 A 
ATOM     22  H   UNL     1      46.479   3.227  15.970  0.00  0.00    +0.000 HD
ENDBRANCH   9  12
ENDBRANCH   7  10
ENDBRANCH   1   7
BRANCH   4  23
ATOM     23  C   UNL     1      45.170   8.537  11.333  0.00  0.00    +0.000 C 
BRANCH  23  24
ATOM     24  N   UNL     1      44.139   7.694  11.947  0.00  0.00    +0.000 NA
ATOM     25  H   UNL     1      43.276   7.914  11.441  0.00  0.00    +0.000 HD
BRANCH  24  26
ATOM     26  C   UNL     1      44.354   6.245  11.856  0.00  0.00    +0.000 C 
ATOM     27  C   UNL     1      44.859   5.580  13.149  0.00  0.00    +0.000 C 
ATOM     28  C   UNL     1      44.881   4.053  13.021  0.00  0.00    +0.000 C 
ATOM     29  C   UNL     1      43.508   3.506  12.633  0.00  0.00    +0.000 C 
ATOM     30  C   UNL     1      43.008   4.144  11.343  0.00  0.00    +0.000 C 
ATOM     31  C   UNL     1      42.987   5.660  11.448  0.00  0.00    +0.000 C 
BRANCH  29  32
ATOM     32  O   UNL     1      43.574   2.093  12.472  0.00  0.00    +0.000 OA
ATOM     33  H   UNL     1      43.631   1.689  13.355  0.00  0.00    +0.000 HD
ENDBRANCH  29  32
ENDBRANCH  24  26
ENDBRANCH  23  24
ENDBRANCH   4  23
TORSDOF 7
ENDMDL
MODEL 8
REMARK VINA RESULT:    -6.736      4.775      7.677
REMARK INTER + INTRA:         -10.143
REMARK INTER:                  -9.170
REMARK INTRA:                  -0.973
REMARK UNBOUND:                -0.848
REMARK  Name = 
REMARK  7 active torsions:
REMARK  status: ('A' for Active; 'I' for Inactive)
REMARK    1  A    between atoms: C_2  and  C_20
REMARK    2  A    between atoms: N_3  and  C_4
REMARK    3  A    between atoms: C_4  and  C_5
REMARK    4  A    between atoms: C_8  and  C_9
REMARK    5  A    between atoms: C_9  and  N_10
REMARK    6  A    between atoms: N_10  and  C_11
REMARK    7  A    between atoms: C_14  and  O_15
REMARK                            x       y       z     vdW  Elec       q    Type
REMARK                         _______ _______ _______ _____ _____    ______ ____
ROOT
ATOM      1  C   UNL     1      48.002   8.503  12.637  0.00  0.00    +0.000 A 
ATOM      2  C   UNL     1      48.616   7.498  11.889  0.00  0.00    +0.000 A 
ATOM      3  C   UNL     1      49.940   7.639  11.491  0.00  0.00    +0.000 A 
ATOM      4  C   UNL     1      50.636   8.785  11.865  0.00  0.00    +0.000 A 
ATOM      5  N   UNL     1      50.076   9.764  12.626  0.00  0.00    +0.000 NA
ATOM      6  C   UNL     1      48.784   9.596  12.996  0.00  0.00    +0.000 A 
ENDROOT
BRANCH   1   7
ATOM      7  C   UNL     1      46.557   8.405  13.026  0.00  0.00    +0.000 C 
BRANCH   7  10
ATOM      8  O   UNL     1      44.448   7.784  11.259  0.00  0.00    +0.000 OA
ATOM      9  C   UNL     1      45.007   6.874  11.866  0.00  0.00    +0.000 C 
ATOM     10  N   UNL     1      46.011   7.096  12.771  0.00  0.00    +0.000 N 
ATOM     11  H   UNL     1      46.539   6.310  13.131  0.00  0.00    +0.000 HD
BRANCH   9  12
ATOM     12  C   UNL     1      44.601   5.475  11.691  0.00  0.00    +0.000 A 
ATOM     13  C   UNL     1      43.904   4.821  12.698  0.00  0.00    +0.000 A 
ATOM     14  S   UNL     1      43.481   3.216  12.302  0.00  0.00    +0.000 S 
ATOM     15  C   UNL     1      44.188   3.353  10.756  0.00  0.00    +0.000 A 
ATOM     16  N   UNL     1      44.136   2.329   9.867  0.00  0.00    +0.000 NA
ATOM     17  C   UNL     1      44.674   2.588   8.721  0.00  0.00    +0.000 A 
ATOM     18  N   UNL     1      45.278   3.775   8.395  0.00  0.00    +0.000 N 
ATOM     19  C   UNL     1      45.440   4.800   9.295  0.00  0.00    +0.000 A 
ATOM     20  O   UNL     1      46.137   5.777   9.026  0.00  0.00    +0.000 OA
ATOM     21  C   UNL     1      44.781   4.589  10.568  0.00  0.00    +0.000 A 
ATOM     22  H   UNL     1      45.727   3.895   7.497  0.00  0.00    +0.000 HD
ENDBRANCH   9  12
ENDBRANCH   7  10
ENDBRANCH   1   7
BRANCH   4  23
ATOM     23  C   UNL     1      52.068   8.980  11.403  0.00  0.00    +0.000 C 
BRANCH  23  24
ATOM     24  N   UNL     1      52.892   7.767  11.436  0.00  0.00    +0.000 NA
ATOM     25  H   UNL     1      52.264   7.024  11.756  0.00  0.00    +0.000 HD
BRANCH  24  26
ATOM     26  C   UNL     1      53.469   7.344  10.154  0.00  0.00    +0.000 C 
ATOM     27  C   UNL     1      53.342   5.842   9.847  0.00  0.00    +0.000 C 
ATOM     28  C   UNL     1      53.803   5.521   8.421  0.00  0.00    +0.000 C 
ATOM     29  C   UNL     1      53.040   6.350   7.389  0.00  0.00    +0.000 C 
ATOM     30  C   UNL     1      53.178   7.841   7.673  0.00  0.00    +0.000 C 
ATOM     31  C   UNL     1      52.733   8.177   9.087  0.00  0.00    +0.000 C 
BRANCH  29  32
ATOM     32  O   UNL     1      53.527   6.067   6.082  0.00  0.00    +0.000 OA
ATOM     33  H   UNL     1      52.770   6.056   5.471  0.00  0.00    +0.000 HD
ENDBRANCH  29  32
ENDBRANCH  24  26
ENDBRANCH  23  24
ENDBRANCH   4  23
TORSDOF 7
ENDMDL
MODEL 9
REMARK VINA RESULT:    -6.590      3.799      8.017
REMARK INTER + INTRA:          -9.942
REMARK INTER:                  -8.860
REMARK INTRA:                  -1.082
REMARK UNBOUND:                -0.848
REMARK  Name = 
REMARK  7 active torsions:
REMARK  status: ('A' for Active; 'I' for Inactive)
REMARK    1  A    between atoms: C_2  and  C_20
REMARK    2  A    between atoms: N_3  and  C_4
REMARK    3  A    between atoms: C_4  and  C_5
REMARK    4  A    between atoms: C_8  and  C_9
REMARK    5  A    between atoms: C_9  and  N_10
REMARK    6  A    between atoms: N_10  and  C_11
REMARK    7  A    between atoms: C_14  and  O_15
REMARK                            x       y       z     vdW  Elec       q    Type
REMARK                         _______ _______ _______ _____ _____    ______ ____
ROOT
ATOM      1  C   UNL     1      48.625   8.346  15.059  0.00  0.00    +0.000 A 
ATOM      2  C   UNL     1      49.639   7.399  14.915  0.00  0.00    +0.000 A 
ATOM      3  C   UNL     1      50.255   6.865  16.040  0.00  0.00    +0.000 A 
ATOM      4  C   UNL     1      49.831   7.278  17.299  0.00  0.00    +0.000 A 
ATOM      5  N   UNL     1      48.818   8.170  17.472  0.00  0.00    +0.000 NA
ATOM      6  C   UNL     1      48.240   8.673  16.355  0.00  0.00    +0.000 A 
ENDROOT
BRANCH   1   7
ATOM      7  C   UNL     1      47.987   8.985  13.862  0.00  0.00    +0.000 C 
BRANCH   7  10
ATOM      8  O   UNL     1      47.866   7.007  11.855  0.00  0.00    +0.000 OA
ATOM      9  C   UNL     1      46.843   7.298  12.469  0.00  0.00    +0.000 C 
ATOM     10  N   UNL     1      46.809   8.276  13.429  0.00  0.00    +0.000 N 
ATOM     11  H   UNL     1      45.985   8.375  14.008  0.00  0.00    +0.000 HD
BRANCH   9  12
ATOM     12  C   UNL     1      45.563   6.641  12.180  0.00  0.00    +0.000 A 
ATOM     13  C   UNL     1      44.523   7.363  11.609  0.00  0.00    +0.000 A 
ATOM     14  S   UNL     1      43.129   6.425  11.308  0.00  0.00    +0.000 S 
ATOM     15  C   UNL     1      43.883   5.015  11.900  0.00  0.00    +0.000 A 
ATOM     16  N   UNL     1      43.244   3.818  11.884  0.00  0.00    +0.000 NA
ATOM     17  C   UNL     1      43.950   2.829  12.323  0.00  0.00    +0.000 A 
ATOM     18  N   UNL     1      45.233   2.937  12.796  0.00  0.00    +0.000 N 
ATOM     19  C   UNL     1      45.880   4.142  12.922  0.00  0.00    +0.000 A 
ATOM     20  O   UNL     1      46.958   4.225  13.510  0.00  0.00    +0.000 OA
ATOM     21  C   UNL     1      45.161   5.270  12.367  0.00  0.00    +0.000 A 
ATOM     22  H   UNL     1      45.712   2.132  13.175  0.00  0.00    +0.000 HD
ENDBRANCH   9  12
ENDBRANCH   7  10
ENDBRANCH   1   7
BRANCH   4  23
ATOM     23  C   UNL     1      50.521   6.741  18.540  0.00  0.00    +0.000 C 
BRANCH  23  24
ATOM     24  N   UNL     1      49.675   5.901  19.394  0.00  0.00    +0.000 NA
ATOM     25  H   UNL     1      48.795   6.416  19.491  0.00  0.00    +0.000 HD
BRANCH  24  26
ATOM     26  C   UNL     1      49.357   4.566  18.874  0.00  0.00    +0.000 C 
ATOM     27  C   UNL     1      48.117   4.501  17.964  0.00  0.00    +0.000 C 
ATOM     28  C   UNL     1      47.966   3.117  17.323  0.00  0.00    +0.000 C 
ATOM     29  C   UNL     1      49.223   2.719  16.552  0.00  0.00    +0.000 C 
ATOM     30  C   UNL     1      50.454   2.761  17.450  0.00  0.00    +0.000 C 
ATOM     31  C   UNL     1      50.616   4.125  18.102  0.00  0.00    +0.000 C 
BRANCH  29  32
ATOM     32  O   UNL     1      49.071   1.410  16.013  0.00  0.00    +0.000 OA
ATOM     33  H   UNL     1      49.169   1.466  15.047  0.00  0.00    +0.000 HD
ENDBRANCH  29  32
ENDBRANCH  24  26
ENDBRANCH  23  24
ENDBRANCH   4  23
TORSDOF 7
ENDMDL
