MODEL 1
REMARK VINA RESULT:    -7.028      0.000      0.000
REMARK INTER + INTRA:         -10.886
REMARK INTER:                  -9.699
REMARK INTRA:                  -1.187
REMARK UNBOUND:                -1.187
REMARK  Name = 
REMARK  7 active torsions:
REMARK  status: ('A' for Active; 'I' for Inactive)
REMARK    1  A    between atoms: N_1  and  C_2
REMARK    2  A    between atoms: C_2  and  C_3
REMARK    3  A    between atoms: C_6  and  C_7
REMARK    4  A    between atoms: C_7  and  C_8
REMARK    5  A    between atoms: C_11  and  C_12
REMARK    6  A    between atoms: C_12  and  N_13
REMARK    7  A    between atoms: C_14  and  C_16
REMARK                            x       y       z     vdW  Elec       q    Type
REMARK                         _______ _______ _______ _____ _____    ______ ____
ROOT
ATOM      1  C   UNL     1      49.374   7.835  15.789  0.00  0.00    +0.000 A 
ATOM      2  C   UNL     1      48.348   8.760  15.555  0.00  0.00    +0.000 A 
ATOM      3  C   UNL     1      47.678   8.790  14.328  0.00  0.00    +0.000 A 
ATOM      4  C   UNL     1      48.029   7.901  13.306  0.00  0.00    +0.000 A 
ATOM      5  C   UNL     1      49.101   7.024  13.515  0.00  0.00    +0.000 A 
ATOM      6  C   UNL     1      49.760   6.981  14.749  0.00  0.00    +0.000 A 
ENDROOT
BRANCH   1   7
ATOM      7  C   UNL     1      50.028   7.752  17.149  0.00  0.00    +0.000 C 
BRANCH   7  11
ATOM      8  C   UNL     1      48.737   3.595  17.985  0.00  0.00    +0.000 C 
ATOM      9  C   UNL     1      50.225   3.947  18.111  0.00  0.00    +0.000 C 
ATOM     10  C   UNL     1      50.589   5.257  17.415  0.00  0.00    +0.000 C 
ATOM     11  C   UNL     1      49.744   6.440  17.922  0.00  0.00    +0.000 C 
ATOM     12  C   UNL     1      48.243   6.107  17.829  0.00  0.00    +0.000 C 
ATOM     13  C   UNL     1      47.888   4.774  18.490  0.00  0.00    +0.000 C 
BRANCH   8  14
ATOM     14  C   UNL     1      48.321   3.170  16.561  0.00  0.00    +0.000 C 
BRANCH  14  15
ATOM     15  N   UNL     1      49.128   2.072  16.035  0.00  0.00    +0.000 NA
ATOM     16  H   UNL     1      48.691   1.694  15.195  0.00  0.00    +0.000 HD
ATOM     17  H   UNL     1      50.040   2.423  15.742  0.00  0.00    +0.000 HD
ENDBRANCH  14  15
ENDBRANCH   8  14
ENDBRANCH   7  11
ENDBRANCH   1   7
BRANCH   4  18
ATOM     18  C   UNL     1      47.280   7.899  12.001  0.00  0.00    +0.000 C 
BRANCH  18  19
ATOM     19  N   UNL     1      46.668   6.623  11.741  0.00  0.00    +0.000 N 
ATOM     20  C   UNL     1      45.303   6.497  11.674  0.00  0.00    +0.000 C 
ATOM     21  O   UNL     1      44.556   7.467  11.785  0.00  0.00    +0.000 OA
ATOM     22  H   UNL     1      47.246   5.797  11.862  0.00  0.00    +0.000 HD
BRANCH  20  23
ATOM     23  C   UNL     1      44.777   5.156  11.398  0.00  0.00    +0.000 A 
ATOM     24  C   UNL     1      44.040   4.499  12.374  0.00  0.00    +0.000 A 
ATOM     25  S   UNL     1      43.460   2.973  11.881  0.00  0.00    +0.000 S 
ATOM     26  C   UNL     1      44.220   3.114  10.366  0.00  0.00    +0.000 A 
ATOM     27  N   UNL     1      44.139   2.114   9.450  0.00  0.00    +0.000 NA
ATOM     28  C   UNL     1      44.788   2.337   8.354  0.00  0.00    +0.000 A 
ATOM     29  N   UNL     1      45.504   3.475   8.093  0.00  0.00    +0.000 N 
ATOM     30  C   UNL     1      45.591   4.526   8.977  0.00  0.00    +0.000 A 
ATOM     31  O   UNL     1      46.203   5.549   8.691  0.00  0.00    +0.000 OA
ATOM     32  C   UNL     1      44.890   4.317  10.230  0.00  0.00    +0.000 A 
ATOM     33  H   UNL     1      45.980   3.594   7.210  0.00  0.00    +0.000 HD
ENDBRANCH  20  23
ENDBRANCH  18  19
ENDBRANCH   4  18
TORSDOF 7
ENDMDL
MODEL 2
REMARK VINA RESULT:    -6.833      4.090      8.846
REMARK INTER + INTRA:         -10.616
REMARK INTER:                  -9.939
REMARK INTRA:                  -0.676
REMARK UNBOUND:                -1.187
REMARK  Name = 
REMARK  7 active torsions:
REMARK  status: ('A' for Active; 'I' for Inactive)
REMARK    1  A    between atoms: N_1  and  C_2
REMARK    2  A    between atoms: C_2  and  C_3
REMARK    3  A    between atoms: C_6  and  C_7
REMARK    4  A    between atoms: C_7  and  C_8
REMARK    5  A    between atoms: C_11  and  C_12
REMARK    6  A    between atoms: C_12  and  N_13
REMARK    7  A    between atoms: C_14  and  C_16
REMARK                            x       y       z     vdW  Elec       q    Type
REMARK                         _______ _______ _______ _____ _____    ______ ____
ROOT
ATOM      1  C   UNL     1      47.264   5.684  13.629  0.00  0.00    +0.000 A 
ATOM      2  C   UNL     1      46.881   4.338  13.710  0.00  0.00    +0.000 A 
ATOM      3  C   UNL     1      47.075   3.609  14.887  0.00  0.00    +0.000 A 
ATOM      4  C   UNL     1      47.667   4.209  16.004  0.00  0.00    +0.000 A 
ATOM      5  C   UNL     1      48.112   5.533  15.900  0.00  0.00    +0.000 A 
ATOM      6  C   UNL     1      47.902   6.268  14.730  0.00  0.00    +0.000 A 
ENDROOT
BRANCH   1   7
ATOM      7  C   UNL     1      46.966   6.486  12.384  0.00  0.00    +0.000 C 
BRANCH   7  11
ATOM      8  C   UNL     1      43.150   4.468  11.375  0.00  0.00    +0.000 C 
ATOM      9  C   UNL     1      43.112   5.729  12.247  0.00  0.00    +0.000 C 
ATOM     10  C   UNL     1      44.470   6.077  12.851  0.00  0.00    +0.000 C 
ATOM     11  C   UNL     1      45.561   6.238  11.778  0.00  0.00    +0.000 C 
ATOM     12  C   UNL     1      45.609   4.995  10.869  0.00  0.00    +0.000 C 
ATOM     13  C   UNL     1      44.240   4.622  10.299  0.00  0.00    +0.000 C 
BRANCH   8  14
ATOM     14  C   UNL     1      43.335   3.164  12.179  0.00  0.00    +0.000 C 
BRANCH  14  15
ATOM     15  N   UNL     1      42.943   1.972  11.431  0.00  0.00    +0.000 NA
ATOM     16  H   UNL     1      42.403   1.349  12.032  0.00  0.00    +0.000 HD
ATOM     17  H   UNL     1      42.319   2.233  10.667  0.00  0.00    +0.000 HD
ENDBRANCH  14  15
ENDBRANCH   8  14
ENDBRANCH   7  11
ENDBRANCH   1   7
BRANCH   4  18
ATOM     18  C   UNL     1      47.835   3.440  17.287  0.00  0.00    +0.000 C 
BRANCH  18  19
ATOM     19  N   UNL     1      49.224   3.264  17.623  0.00  0.00    +0.000 N 
ATOM     20  C   UNL     1      49.980   2.301  17.005  0.00  0.00    +0.000 C 
ATOM     21  O   UNL     1      49.521   1.586  16.117  0.00  0.00    +0.000 OA
ATOM     22  H   UNL     1      49.550   3.687  18.486  0.00  0.00    +0.000 HD
BRANCH  20  23
ATOM     23  C   UNL     1      51.386   2.205  17.412  0.00  0.00    +0.000 A 
ATOM     24  C   UNL     1      51.952   0.955  17.623  0.00  0.00    +0.000 A 
ATOM     25  S   UNL     1      53.603   1.013  18.043  0.00  0.00    +0.000 S 
ATOM     26  C   UNL     1      53.607   2.713  18.010  0.00  0.00    +0.000 A 
ATOM     27  N   UNL     1      54.732   3.414  18.310  0.00  0.00    +0.000 NA
ATOM     28  C   UNL     1      54.587   4.698  18.278  0.00  0.00    +0.000 A 
ATOM     29  N   UNL     1      53.419   5.342  17.966  0.00  0.00    +0.000 N 
ATOM     30  C   UNL     1      52.263   4.675  17.629  0.00  0.00    +0.000 A 
ATOM     31  O   UNL     1      51.247   5.284  17.311  0.00  0.00    +0.000 OA
ATOM     32  C   UNL     1      52.370   3.230  17.664  0.00  0.00    +0.000 A 
ATOM     33  H   UNL     1      53.374   6.351  17.947  0.00  0.00    +0.000 HD
ENDBRANCH  20  23
ENDBRANCH  18  19
ENDBRANCH   4  18
TORSDOF 7
ENDMDL
MODEL 3
REMARK VINA RESULT:    -6.740      4.102      8.731
REMARK INTER + INTRA:         -10.487
REMARK INTER:                  -9.877
REMARK INTRA:                  -0.610
REMARK UNBOUND:                -1.187
REMARK  Name = 
REMARK  7 active torsions:
REMARK  status: ('A' for Active; 'I' for Inactive)
REMARK    1  A    between atoms: N_1  and  C_2
REMARK    2  A    between atoms: C_2  and  C_3
REMARK    3  A    between atoms: C_6  and  C_7
REMARK    4  A    between atoms: C_7  and  C_8
REMARK    5  A    between atoms: C_11  and  C_12
REMARK    6  A    between atoms: C_12  and  N_13
REMARK    7  A    between atoms: C_14  and  C_16
REMARK                            x       y       z     vdW  Elec       q    Type
REMARK                         _______ _______ _______ _____ _____    ______ ____
ROOT
ATOM      1  C   UNL     1      47.300   6.188  12.822  0.00  0.00    +0.000 A 
ATOM      2  C   UNL     1      46.877   4.939  13.293  0.00  0.00    +0.000 A 
ATOM      3  C   UNL     1      47.132   4.547  14.610  0.00  0.00    +0.000 A 
ATOM      4  C   UNL     1      47.826   5.395  15.482  0.00  0.00    +0.000 A 
ATOM      5  C   UNL     1      48.309   6.615  14.990  0.00  0.00    +0.000 A 
ATOM      6  C   UNL     1      48.038   7.015  13.678  0.00  0.00    +0.000 A 
ENDROOT
BRANCH   1   7
ATOM      7  C   UNL     1      46.939   6.637  11.424  0.00  0.00    +0.000 C 
BRANCH   7  11
ATOM      8  C   UNL     1      43.080   4.477  11.124  0.00  0.00    +0.000 C 
ATOM      9  C   UNL     1      43.093   5.888  11.725  0.00  0.00    +0.000 C 
ATOM     10  C   UNL     1      44.488   6.344  12.145  0.00  0.00    +0.000 C 
ATOM     11  C   UNL     1      45.497   6.279  10.985  0.00  0.00    +0.000 C 
ATOM     12  C   UNL     1      45.491   4.878  10.345  0.00  0.00    +0.000 C 
ATOM     13  C   UNL     1      44.088   4.405   9.963  0.00  0.00    +0.000 C 
BRANCH   8  14
ATOM     14  C   UNL     1      43.335   3.361  12.160  0.00  0.00    +0.000 C 
BRANCH  14  15
ATOM     15  N   UNL     1      43.011   2.029  11.655  0.00  0.00    +0.000 NA
ATOM     16  H   UNL     1      42.521   2.108  10.764  0.00  0.00    +0.000 HD
ATOM     17  H   UNL     1      43.870   1.516  11.456  0.00  0.00    +0.000 HD
ENDBRANCH  14  15
ENDBRANCH   8  14
ENDBRANCH   7  11
ENDBRANCH   1   7
BRANCH   4  18
ATOM     18  C   UNL     1      48.062   4.996  16.913  0.00  0.00    +0.000 C 
BRANCH  18  19
ATOM     19  N   UNL     1      49.393   4.486  17.110  0.00  0.00    +0.000 N 
ATOM     20  C   UNL     1      50.018   4.600  18.326  0.00  0.00    +0.000 C 
ATOM     21  O   UNL     1      49.455   5.096  19.301  0.00  0.00    +0.000 OA
ATOM     22  H   UNL     1      49.938   4.278  16.279  0.00  0.00    +0.000 HD
BRANCH  20  23
ATOM     23  C   UNL     1      51.371   4.043  18.427  0.00  0.00    +0.000 A 
ATOM     24  C   UNL     1      52.383   4.807  18.993  0.00  0.00    +0.000 A 
ATOM     25  S   UNL     1      53.881   3.999  19.081  0.00  0.00    +0.000 S 
ATOM     26  C   UNL     1      53.245   2.621  18.316  0.00  0.00    +0.000 A 
ATOM     27  N   UNL     1      54.030   1.542  18.056  0.00  0.00    +0.000 NA
ATOM     28  C   UNL     1      53.427   0.576  17.443  0.00  0.00    +0.000 A 
ATOM     29  N   UNL     1      52.108   0.593  17.074  0.00  0.00    +0.000 N 
ATOM     30  C   UNL     1      51.268   1.649  17.341  0.00  0.00    +0.000 A 
ATOM     31  O   UNL     1      50.081   1.611  17.036  0.00  0.00    +0.000 OA
ATOM     32  C   UNL     1      51.901   2.765  18.016  0.00  0.00    +0.000 A 
ATOM     33  H   UNL     1      51.693  -0.201  16.607  0.00  0.00    +0.000 HD
ENDBRANCH  20  23
ENDBRANCH  18  19
ENDBRANCH   4  18
TORSDOF 7
ENDMDL
MODEL 4
REMARK VINA RESULT:    -6.521      3.384      8.685
REMARK INTER + INTRA:         -10.185
REMARK INTER:                  -9.086
REMARK INTRA:                  -1.099
REMARK UNBOUND:                -1.187
REMARK  Name = 
REMARK  7 active torsions:
REMARK  status: ('A' for Active; 'I' for Inactive)
REMARK    1  A    between atoms: N_1  and  C_2
REMARK    2  A    between atoms: C_2  and  C_3
REMARK    3  A    between atoms: C_6  and  C_7
REMARK    4  A    between atoms: C_7  and  C_8
REMARK    5  A    between atoms: C_11  and  C_12
REMARK    6  A    between atoms: C_12  and  N_13
REMARK    7  A    between atoms: C_14  and  C_16
REMARK                            x       y       z     vdW  Elec       q    Type
REMARK                         _______ _______ _______ _____ _____    ______ ____
ROOT
ATOM      1  C   UNL     1      45.251   4.932  11.824  0.00  0.00    +0.000 A 
ATOM      2  C   UNL     1      45.876   4.453  12.982  0.00  0.00    +0.000 A 
ATOM      3  C   UNL     1      47.007   5.089  13.500  0.00  0.00    +0.000 A 
ATOM      4  C   UNL     1      47.543   6.214  12.863  0.00  0.00    +0.000 A 
ATOM      5  C   UNL     1      46.959   6.652  11.667  0.00  0.00    +0.000 A 
ATOM      6  C   UNL     1      45.817   6.026  11.158  0.00  0.00    +0.000 A 
ENDROOT
BRANCH   1   7
ATOM      7  C   UNL     1      43.976   4.291  11.326  0.00  0.00    +0.000 C 
BRANCH   7  11
ATOM      8  C   UNL     1      45.680   2.738   7.540  0.00  0.00    +0.000 C 
ATOM      9  C   UNL     1      45.598   1.802   8.754  0.00  0.00    +0.000 C 
ATOM     10  C   UNL     1      45.389   2.549  10.069  0.00  0.00    +0.000 C 
ATOM     11  C   UNL     1      44.139   3.447  10.037  0.00  0.00    +0.000 C 
ATOM     12  C   UNL     1      44.181   4.384   8.815  0.00  0.00    +0.000 C 
ATOM     13  C   UNL     1      44.433   3.639   7.504  0.00  0.00    +0.000 C 
BRANCH   8  14
ATOM     14  C   UNL     1      46.978   3.571   7.489  0.00  0.00    +0.000 C 
BRANCH  14  15
ATOM     15  N   UNL     1      48.035   2.932   6.708  0.00  0.00    +0.000 NA
ATOM     16  H   UNL     1      48.879   2.847   7.274  0.00  0.00    +0.000 HD
ATOM     17  H   UNL     1      47.761   1.979   6.471  0.00  0.00    +0.000 HD
ENDBRANCH  14  15
ENDBRANCH   8  14
ENDBRANCH   7  11
ENDBRANCH   1   7
BRANCH   4  18
ATOM     18  C   UNL     1      48.733   6.930  13.443  0.00  0.00    +0.000 C 
BRANCH  18  19
ATOM     19  N   UNL     1      48.775   6.815  14.877  0.00  0.00    +0.000 N 
ATOM     20  C   UNL     1      49.932   7.068  15.570  0.00  0.00    +0.000 C 
ATOM     21  O   UNL     1      50.958   7.444  15.005  0.00  0.00    +0.000 OA
ATOM     22  H   UNL     1      48.019   6.307  15.324  0.00  0.00    +0.000 HD
BRANCH  20  23
ATOM     23  C   UNL     1      49.871   6.930  17.028  0.00  0.00    +0.000 A 
ATOM     24  C   UNL     1      50.301   7.978  17.832  0.00  0.00    +0.000 A 
ATOM     25  S   UNL     1      50.119   7.679  19.500  0.00  0.00    +0.000 S 
ATOM     26  C   UNL     1      49.511   6.117  19.209  0.00  0.00    +0.000 A 
ATOM     27  N   UNL     1      49.174   5.297  20.239  0.00  0.00    +0.000 NA
ATOM     28  C   UNL     1      48.756   4.128  19.878  0.00  0.00    +0.000 A 
ATOM     29  N   UNL     1      48.639   3.711  18.579  0.00  0.00    +0.000 N 
ATOM     30  C   UNL     1      48.940   4.516  17.504  0.00  0.00    +0.000 A 
ATOM     31  O   UNL     1      48.779   4.126  16.352  0.00  0.00    +0.000 OA
ATOM     32  C   UNL     1      49.428   5.835  17.857  0.00  0.00    +0.000 A 
ATOM     33  H   UNL     1      48.293   2.787  18.362  0.00  0.00    +0.000 HD
ENDBRANCH  20  23
ENDBRANCH  18  19
ENDBRANCH   4  18
TORSDOF 7
ENDMDL
MODEL 5
REMARK VINA RESULT:    -6.518      1.535      2.329
REMARK INTER + INTRA:         -10.181
REMARK INTER:                  -9.278
REMARK INTRA:                  -0.903
REMARK UNBOUND:                -1.187
REMARK  Name = 
REMARK  7 active torsions:
REMARK  status: ('A' for Active; 'I' for Inactive)
REMARK    1  A    between atoms: N_1  and  C_2
REMARK    2  A    between atoms: C_2  and  C_3
REMARK    3  A    between atoms: C_6  and  C_7
REMARK    4  A    between atoms: C_7  and  C_8
REMARK    5  A    between atoms: C_11  and  C_12
REMARK    6  A    between atoms: C_12  and  N_13
REMARK    7  A    between atoms: C_14  and  C_16
REMARK                            x       y       z     vdW  Elec       q    Type
REMARK                         _______ _______ _______ _____ _____    ______ ____
ROOT
ATOM      1  C   UNL     1      49.610   7.732  16.313  0.00  0.00    +0.000 A 
ATOM      2  C   UNL     1      49.880   6.969  15.170  0.00  0.00    +0.000 A 
ATOM      3  C   UNL     1      49.191   7.199  13.977  0.00  0.00    +0.000 A 
ATOM      4  C   UNL     1      48.208   8.193  13.905  0.00  0.00    +0.000 A 
ATOM      5  C   UNL     1      47.889   8.909  15.067  0.00  0.00    +0.000 A 
ATOM      6  C   UNL     1      48.592   8.691  16.256  0.00  0.00    +0.000 A 
ENDROOT
BRANCH   1   7
ATOM      7  C   UNL     1      50.426   7.535  17.571  0.00  0.00    +0.000 C 
BRANCH   7  11
ATOM      8  C   UNL     1      48.949   3.429  18.348  0.00  0.00    +0.000 C 
ATOM      9  C   UNL     1      50.426   3.628  17.984  0.00  0.00    +0.000 C 
ATOM     10  C   UNL     1      50.707   4.988  17.352  0.00  0.00    +0.000 C 
ATOM     11  C   UNL     1      50.245   6.153  18.246  0.00  0.00    +0.000 C 
ATOM     12  C   UNL     1      48.769   5.970  18.648  0.00  0.00    +0.000 C 
ATOM     13  C   UNL     1      48.481   4.591  19.242  0.00  0.00    +0.000 C 
BRANCH   8  14
ATOM     14  C   UNL     1      48.028   3.257  17.121  0.00  0.00    +0.000 C 
BRANCH  14  15
ATOM     15  N   UNL     1      46.614   3.168  17.478  0.00  0.00    +0.000 NA
ATOM     16  H   UNL     1      46.237   4.103  17.629  0.00  0.00    +0.000 HD
ATOM     17  H   UNL     1      46.085   2.776  16.699  0.00  0.00    +0.000 HD
ENDBRANCH  14  15
ENDBRANCH   8  14
ENDBRANCH   7  11
ENDBRANCH   1   7
BRANCH   4  18
ATOM     18  C   UNL     1      47.495   8.475  12.610  0.00  0.00    +0.000 C 
BRANCH  18  19
ATOM     19  N   UNL     1      47.023   7.265  11.989  0.00  0.00    +0.000 N 
ATOM     20  C   UNL     1      45.767   7.199  11.442  0.00  0.00    +0.000 C 
ATOM     21  O   UNL     1      45.017   8.174  11.419  0.00  0.00    +0.000 OA
ATOM     22  H   UNL     1      47.532   6.411  12.190  0.00  0.00    +0.000 HD
BRANCH  20  23
ATOM     23  C   UNL     1      45.381   5.925  10.827  0.00  0.00    +0.000 A 
ATOM     24  C   UNL     1      45.735   5.668   9.509  0.00  0.00    +0.000 A 
ATOM     25  S   UNL     1      45.256   4.127   8.961  0.00  0.00    +0.000 S 
ATOM     26  C   UNL     1      44.511   3.770  10.447  0.00  0.00    +0.000 A 
ATOM     27  N   UNL     1      43.872   2.585  10.641  0.00  0.00    +0.000 NA
ATOM     28  C   UNL     1      43.323   2.457  11.804  0.00  0.00    +0.000 A 
ATOM     29  N   UNL     1      43.364   3.405  12.792  0.00  0.00    +0.000 N 
ATOM     30  C   UNL     1      44.022   4.605  12.652  0.00  0.00    +0.000 A 
ATOM     31  O   UNL     1      44.077   5.411  13.575  0.00  0.00    +0.000 OA
ATOM     32  C   UNL     1      44.643   4.804  11.357  0.00  0.00    +0.000 A 
ATOM     33  H   UNL     1      42.924   3.238  13.686  0.00  0.00    +0.000 HD
ENDBRANCH  20  23
ENDBRANCH  18  19
ENDBRANCH   4  18
TORSDOF 7
ENDMDL
MODEL 6
REMARK VINA RESULT:    -6.491      2.208      2.785
REMARK INTER + INTRA:         -10.144
REMARK INTER:                  -8.421
REMARK INTRA:                  -1.723
REMARK UNBOUND:                -1.187
REMARK  Name = 
REMARK  7 active torsions:
REMARK  status: ('A' for Active; 'I' for Inactive)
REMARK    1  A    between atoms: N_1  and  C_2
REMARK    2  A    between atoms: C_2  and  C_3
REMARK    3  A    between atoms: C_6  and  C_7
REMARK    4  A    between atoms: C_7  and  C_8
REMARK    5  A    between atoms: C_11  and  C_12
REMARK    6  A    between atoms: C_12  and  N_13
REMARK    7  A    between atoms: C_14  and  C_16
REMARK                            x       y       z     vdW  Elec       q    Type
REMARK                         _______ _______ _______ _____ _____    ______ ____
ROOT
ATOM      1  C   UNL     1      50.231   7.434  17.485  0.00  0.00    +0.000 A 
ATOM      2  C   UNL     1      49.239   8.358  17.839  0.00  0.00    +0.000 A 
ATOM      3  C   UNL     1      48.497   9.022  16.858  0.00  0.00    +0.000 A 
ATOM      4  C   UNL     1      48.741   8.784  15.500  0.00  0.00    +0.000 A 
ATOM      5  C   UNL     1      49.780   7.913  15.147  0.00  0.00    +0.000 A 
ATOM      6  C   UNL     1      50.510   7.234  16.128  0.00  0.00    +0.000 A 
ENDROOT
BRANCH   1   7
ATOM      7  C   UNL     1      50.962   6.656  18.555  0.00  0.00    +0.000 C 
BRANCH   7  11
ATOM      8  C   UNL     1      48.679   2.908  17.932  0.00  0.00    +0.000 C 
ATOM      9  C   UNL     1      50.169   2.936  17.566  0.00  0.00    +0.000 C 
ATOM     10  C   UNL     1      50.724   4.352  17.436  0.00  0.00    +0.000 C 
ATOM     11  C   UNL     1      50.500   5.185  18.711  0.00  0.00    +0.000 C 
ATOM     12  C   UNL     1      49.014   5.157  19.118  0.00  0.00    +0.000 C 
ATOM     13  C   UNL     1      48.449   3.739  19.206  0.00  0.00    +0.000 C 
BRANCH   8  14
ATOM     14  C   UNL     1      47.752   3.365  16.787  0.00  0.00    +0.000 C 
BRANCH  14  15
ATOM     15  N   UNL     1      48.035   2.693  15.521  0.00  0.00    +0.000 NA
ATOM     16  H   UNL     1      47.303   2.908  14.845  0.00  0.00    +0.000 HD
ATOM     17  H   UNL     1      48.900   3.058  15.121  0.00  0.00    +0.000 HD
ENDBRANCH  14  15
ENDBRANCH   8  14
ENDBRANCH   7  11
ENDBRANCH   1   7
BRANCH   4  18
ATOM     18  C   UNL     1      47.914   9.462  14.442  0.00  0.00    +0.000 C 
BRANCH  18  19
ATOM     19  N   UNL     1      46.867   8.603  13.954  0.00  0.00    +0.000 N 
ATOM     20  C   UNL     1      46.965   8.005  12.723  0.00  0.00    +0.000 C 
ATOM     21  O   UNL     1      47.959   8.139  12.013  0.00  0.00    +0.000 OA
ATOM     22  H   UNL     1      45.967   8.657  14.420  0.00  0.00    +0.000 HD
BRANCH  20  23
ATOM     23  C   UNL     1      45.849   7.143  12.319  0.00  0.00    +0.000 A 
ATOM     24  C   UNL     1      44.752   7.702  11.678  0.00  0.00    +0.000 A 
ATOM     25  S   UNL     1      43.566   6.562  11.231  0.00  0.00    +0.000 S 
ATOM     26  C   UNL     1      44.451   5.288  11.928  0.00  0.00    +0.000 A 
ATOM     27  N   UNL     1      43.971   4.016  11.914  0.00  0.00    +0.000 NA
ATOM     28  C   UNL     1      44.729   3.152  12.506  0.00  0.00    +0.000 A 
ATOM     29  N   UNL     1      45.927   3.446  13.102  0.00  0.00    +0.000 N 
ATOM     30  C   UNL     1      46.466   4.712  13.115  0.00  0.00    +0.000 A 
ATOM     31  O   UNL     1      47.563   4.931  13.618  0.00  0.00    +0.000 OA
ATOM     32  C   UNL     1      45.645   5.723  12.476  0.00  0.00    +0.000 A 
ATOM     33  H   UNL     1      46.479   2.721  13.537  0.00  0.00    +0.000 HD
ENDBRANCH  20  23
ENDBRANCH  18  19
ENDBRANCH   4  18
TORSDOF 7
ENDMDL
MODEL 7
REMARK VINA RESULT:    -6.463      3.372      4.661
REMARK INTER + INTRA:         -10.105
REMARK INTER:                  -9.131
REMARK INTRA:                  -0.974
REMARK UNBOUND:                -1.187
REMARK  Name = 
REMARK  7 active torsions:
REMARK  status: ('A' for Active; 'I' for Inactive)
REMARK    1  A    between atoms: N_1  and  C_2
REMARK    2  A    between atoms: C_2  and  C_3
REMARK    3  A    between atoms: C_6  and  C_7
REMARK    4  A    between atoms: C_7  and  C_8
REMARK    5  A    between atoms: C_11  and  C_12
REMARK    6  A    between atoms: C_12  and  N_13
REMARK    7  A    between atoms: C_14  and  C_16
REMARK                            x       y       z     vdW  Elec       q    Type
REMARK                         _______ _______ _______ _____ _____    ______ ____
ROOT
ATOM      1  C   UNL     1      50.727   4.610  17.658  0.00  0.00    +0.000 A 
ATOM      2  C   UNL     1      49.345   4.802  17.526  0.00  0.00    +0.000 A 
ATOM      3  C   UNL     1      48.839   5.850  16.752  0.00  0.00    +0.000 A 
ATOM      4  C   UNL     1      49.707   6.736  16.103  0.00  0.00    +0.000 A 
ATOM      5  C   UNL     1      51.087   6.586  16.291  0.00  0.00    +0.000 A 
ATOM      6  C   UNL     1      51.594   5.526  17.050  0.00  0.00    +0.000 A 
ENDROOT
BRANCH   1   7
ATOM      7  C   UNL     1      51.261   3.420  18.421  0.00  0.00    +0.000 C 
BRANCH   7  11
ATOM      8  C   UNL     1      54.857   0.880  17.909  0.00  0.00    +0.000 C 
ATOM      9  C   UNL     1      53.560   0.479  17.195  0.00  0.00    +0.000 C 
ATOM     10  C   UNL     1      52.326   1.173  17.766  0.00  0.00    +0.000 C 
ATOM     11  C   UNL     1      52.459   2.706  17.748  0.00  0.00    +0.000 C 
ATOM     12  C   UNL     1      53.767   3.140  18.438  0.00  0.00    +0.000 C 
ATOM     13  C   UNL     1      54.996   2.412  17.895  0.00  0.00    +0.000 C 
BRANCH   8  14
ATOM     14  C   UNL     1      54.974   0.318  19.342  0.00  0.00    +0.000 C 
BRANCH  14  15
ATOM     15  N   UNL     1      54.524  -1.068  19.449  0.00  0.00    +0.000 NA
ATOM     16  H   UNL     1      54.071  -1.352  18.581  0.00  0.00    +0.000 HD
ATOM     17  H   UNL     1      55.328  -1.685  19.560  0.00  0.00    +0.000 HD
ENDBRANCH  14  15
ENDBRANCH   8  14
ENDBRANCH   7  11
ENDBRANCH   1   7
BRANCH   4  18
ATOM     18  C   UNL     1      49.166   7.838  15.232  0.00  0.00    +0.000 C 
BRANCH  18  19
ATOM     19  N   UNL     1      47.951   7.443  14.569  0.00  0.00    +0.000 N 
ATOM     20  C   UNL     1      47.988   6.773  13.373  0.00  0.00    +0.000 C 
ATOM     21  O   UNL     1      49.049   6.444  12.845  0.00  0.00    +0.000 OA
ATOM     22  H   UNL     1      47.091   7.888  14.873  0.00  0.00    +0.000 HD
BRANCH  20  23
ATOM     23  C   UNL     1      46.696   6.409  12.780  0.00  0.00    +0.000 A 
ATOM     24  C   UNL     1      45.901   7.398  12.217  0.00  0.00    +0.000 A 
ATOM     25  S   UNL     1      44.458   6.807  11.529  0.00  0.00    +0.000 S 
ATOM     26  C   UNL     1      44.819   5.216  12.008  0.00  0.00    +0.000 A 
ATOM     27  N   UNL     1      43.959   4.196  11.745  0.00  0.00    +0.000 NA
ATOM     28  C   UNL     1      44.341   3.045  12.192  0.00  0.00    +0.000 A 
ATOM     29  N   UNL     1      45.510   2.823  12.871  0.00  0.00    +0.000 N 
ATOM     30  C   UNL     1      46.423   3.817  13.135  0.00  0.00    +0.000 A 
ATOM     31  O   UNL     1      47.482   3.573  13.705  0.00  0.00    +0.000 OA
ATOM     32  C   UNL     1      46.034   5.132  12.666  0.00  0.00    +0.000 A 
ATOM     33  H   UNL     1      45.757   1.894  13.183  0.00  0.00    +0.000 HD
ENDBRANCH  20  23
ENDBRANCH  18  19
ENDBRANCH   4  18
TORSDOF 7
ENDMDL
MODEL 8
REMARK VINA RESULT:    -6.356      3.632      9.016
REMARK INTER + INTRA:          -9.957
REMARK INTER:                  -9.253
REMARK INTRA:                  -0.704
REMARK UNBOUND:                -1.187
REMARK  Name = 
REMARK  7 active torsions:
REMARK  status: ('A' for Active; 'I' for Inactive)
REMARK    1  A    between atoms: N_1  and  C_2
REMARK    2  A    between atoms: C_2  and  C_3
REMARK    3  A    between atoms: C_6  and  C_7
REMARK    4  A    between atoms: C_7  and  C_8
REMARK    5  A    between atoms: C_11  and  C_12
REMARK    6  A    between atoms: C_12  and  N_13
REMARK    7  A    between atoms: C_14  and  C_16
REMARK                            x       y       z     vdW  Elec       q    Type
REMARK                         _______ _______ _______ _____ _____    ______ ____
ROOT
ATOM      1  C   UNL     1      45.176   4.922  11.493  0.00  0.00    +0.000 A 
ATOM      2  C   UNL     1      45.348   6.286  11.224  0.00  0.00    +0.000 A 
ATOM      3  C   UNL     1      46.231   7.059  11.983  0.00  0.00    +0.000 A 
ATOM      4  C   UNL     1      46.954   6.485  13.035  0.00  0.00    +0.000 A 
ATOM      5  C   UNL     1      46.730   5.137  13.348  0.00  0.00    +0.000 A 
ATOM      6  C   UNL     1      45.860   4.359  12.577  0.00  0.00    +0.000 A 
ENDROOT
BRANCH   1   7
ATOM      7  C   UNL     1      44.288   4.078  10.608  0.00  0.00    +0.000 C 
BRANCH   7  11
ATOM      8  C   UNL     1      46.397   3.183   6.813  0.00  0.00    +0.000 C 
ATOM      9  C   UNL     1      44.931   2.755   6.964  0.00  0.00    +0.000 C 
ATOM     10  C   UNL     1      44.460   2.744   8.416  0.00  0.00    +0.000 C 
ATOM     11  C   UNL     1      44.663   4.106   9.105  0.00  0.00    +0.000 C 
ATOM     12  C   UNL     1      46.123   4.574   8.950  0.00  0.00    +0.000 C 
ATOM     13  C   UNL     1      46.606   4.543   7.500  0.00  0.00    +0.000 C 
BRANCH   8  14
ATOM     14  C   UNL     1      47.404   2.132   7.326  0.00  0.00    +0.000 C 
BRANCH  14  15
ATOM     15  N   UNL     1      48.408   1.769   6.329  0.00  0.00    +0.000 NA
ATOM     16  H   UNL     1      48.636   0.779   6.413  0.00  0.00    +0.000 HD
ATOM     17  H   UNL     1      48.023   1.889   5.392  0.00  0.00    +0.000 HD
ENDBRANCH  14  15
ENDBRANCH   8  14
ENDBRANCH   7  11
ENDBRANCH   1   7
BRANCH   4  18
ATOM     18  C   UNL     1      47.939   7.303  13.825  0.00  0.00    +0.000 C 
BRANCH  18  19
ATOM     19  N   UNL     1      47.923   6.952  15.221  0.00  0.00    +0.000 N 
ATOM     20  C   UNL     1      49.079   6.604  15.873  0.00  0.00    +0.000 C 
ATOM     21  O   UNL     1      50.172   6.622  15.310  0.00  0.00    +0.000 OA
ATOM     22  H   UNL     1      47.023   6.726  15.632  0.00  0.00    +0.000 HD
BRANCH  20  23
ATOM     23  C   UNL     1      48.958   6.270  17.296  0.00  0.00    +0.000 A 
ATOM     24  C   UNL     1      49.373   5.022  17.741  0.00  0.00    +0.000 A 
ATOM     25  S   UNL     1      49.212   4.809  19.425  0.00  0.00    +0.000 S 
ATOM     26  C   UNL     1      48.532   6.356  19.610  0.00  0.00    +0.000 A 
ATOM     27  N   UNL     1      48.134   6.801  20.832  0.00  0.00    +0.000 NA
ATOM     28  C   UNL     1      47.605   7.981  20.825  0.00  0.00    +0.000 A 
ATOM     29  N   UNL     1      47.446   8.756  19.707  0.00  0.00    +0.000 N 
ATOM     30  C   UNL     1      47.859   8.360  18.456  0.00  0.00    +0.000 A 
ATOM     31  O   UNL     1      47.742   9.099  17.484  0.00  0.00    +0.000 OA
ATOM     32  C   UNL     1      48.447   7.035  18.408  0.00  0.00    +0.000 A 
ATOM     33  H   UNL     1      47.035   9.677  19.771  0.00  0.00    +0.000 HD
ENDBRANCH  20  23
ENDBRANCH  18  19
ENDBRANCH   4  18
TORSDOF 7
ENDMDL
MODEL 9
REMARK VINA RESULT:    -6.302      3.850      5.793
REMARK INTER + INTRA:          -9.883
REMARK INTER:                  -8.962
REMARK INTRA:                  -0.921
REMARK UNBOUND:                -1.187
REMARK  Name = 
REMARK  7 active torsions:
REMARK  status: ('A' for Active; 'I' for Inactive)
REMARK    1  A    between atoms: N_1  and  C_2
REMARK    2  A    between atoms: C_2  and  C_3
REMARK    3  A    between atoms: C_6  and  C_7
REMARK    4  A    between atoms: C_7  and  C_8
REMARK    5  A    between atoms: C_11  and  C_12
REMARK    6  A    between atoms: C_12  and  N_13
REMARK    7  A    between atoms: C_14  and  C_16
REMARK                            x       y       z     vdW  Elec       q    Type
REMARK                         _______ _______ _______ _____ _____    ______ ____
ROOT
ATOM      1  C   UNL     1      50.730   8.675  11.780  0.00  0.00    +0.000 A 
ATOM      2  C   UNL     1      50.191   7.476  12.266  0.00  0.00    +0.000 A 
ATOM      3  C   UNL     1      48.809   7.316  12.401  0.00  0.00    +0.000 A 
ATOM      4  C   UNL     1      47.937   8.358  12.063  0.00  0.00    +0.000 A 
ATOM      5  C   UNL     1      48.480   9.580  11.644  0.00  0.00    +0.000 A 
ATOM      6  C   UNL     1      49.861   9.734  11.491  0.00  0.00    +0.000 A 
ENDROOT
BRANCH   1   7
ATOM      7  C   UNL     1      52.219   8.802  11.552  0.00  0.00    +0.000 C 
BRANCH   7  11
ATOM      8  C   UNL     1      54.323   7.054   8.065  0.00  0.00    +0.000 C 
ATOM      9  C   UNL     1      52.798   6.913   8.156  0.00  0.00    +0.000 C 
ATOM     10  C   UNL     1      52.258   7.179   9.559  0.00  0.00    +0.000 C 
ATOM     11  C   UNL     1      52.670   8.563  10.090  0.00  0.00    +0.000 C 
ATOM     12  C   UNL     1      54.197   8.745   9.990  0.00  0.00    +0.000 C 
ATOM     13  C   UNL     1      54.741   8.436   8.595  0.00  0.00    +0.000 C 
BRANCH   8  14
ATOM     14  C   UNL     1      55.093   5.922   8.778  0.00  0.00    +0.000 C 
BRANCH  14  15
ATOM     15  N   UNL     1      54.347   4.666   8.824  0.00  0.00    +0.000 NA
ATOM     16  H   UNL     1      54.996   3.880   8.823  0.00  0.00    +0.000 HD
ATOM     17  H   UNL     1      53.832   4.602   9.702  0.00  0.00    +0.000 HD
ENDBRANCH  14  15
ENDBRANCH   8  14
ENDBRANCH   7  11
ENDBRANCH   1   7
BRANCH   4  18
ATOM     18  C   UNL     1      46.447   8.174  12.164  0.00  0.00    +0.000 C 
BRANCH  18  19
ATOM     19  N   UNL     1      46.058   6.818  11.877  0.00  0.00    +0.000 N 
ATOM     20  C   UNL     1      44.769   6.517  11.518  0.00  0.00    +0.000 C 
ATOM     21  O   UNL     1      43.912   7.388  11.384  0.00  0.00    +0.000 OA
ATOM     22  H   UNL     1      46.682   6.081  12.188  0.00  0.00    +0.000 HD
BRANCH  20  23
ATOM     23  C   UNL     1      44.475   5.107  11.239  0.00  0.00    +0.000 A 
ATOM     24  C   UNL     1      43.715   4.377  12.143  0.00  0.00    +0.000 A 
ATOM     25  S   UNL     1      43.422   2.772  11.651  0.00  0.00    +0.000 S 
ATOM     26  C   UNL     1      44.346   2.979  10.238  0.00  0.00    +0.000 A 
ATOM     27  N   UNL     1      44.525   1.953   9.365  0.00  0.00    +0.000 NA
ATOM     28  C   UNL     1      45.274   2.238   8.350  0.00  0.00    +0.000 A 
ATOM     29  N   UNL     1      45.853   3.460   8.130  0.00  0.00    +0.000 N 
ATOM     30  C   UNL     1      45.677   4.535   8.970  0.00  0.00    +0.000 A 
ATOM     31  O   UNL     1      46.173   5.628   8.718  0.00  0.00    +0.000 OA
ATOM     32  C   UNL     1      44.854   4.262  10.133  0.00  0.00    +0.000 A 
ATOM     33  H   UNL     1      46.419   3.623   7.309  0.00  0.00    +0.000 HD
ENDBRANCH  20  23
ENDBRANCH  18  19
ENDBRANCH   4  18
TORSDOF 7
ENDMDL
