MODEL 1
REMARK VINA RESULT:    -7.083      0.000      0.000
REMARK INTER + INTRA:          -8.843
REMARK INTER:                  -8.946
REMARK INTRA:                   0.103
REMARK UNBOUND:                 0.103
REMARK  Name = 
REMARK  8 active torsions:
REMARK  status: ('A' for Active; 'I' for Inactive)
REMARK    1  A    between atoms: C_1  and  C_2
REMARK    2  A    between atoms: C_2  and  C_3
REMARK    3  A    between atoms: C_2  and  N_4
REMARK    4  A    between atoms: C_8  and  C_9
REMARK    5  A    between atoms: C_9  and  C_10
REMARK    6  A    between atoms: C_10  and  C_11
REMARK    7  A    between atoms: C_10  and  O_12
REMARK    8  A    between atoms: C_10  and  C_13
REMARK                            x       y       z     vdW  Elec       q    Type
REMARK                         _______ _______ _______ _____ _____    ______ ____
ROOT
ATOM      1  N   UNL     1      46.148   2.768   7.119  0.00  0.00    +0.000 N 
ATOM      2  C   UNL     1      45.388   3.012   8.270  0.00  0.00    +0.000 A 
ATOM      3  C   UNL     1      44.505   4.090   8.267  0.00  0.00    +0.000 A 
ATOM      4  N   UNL     1      43.741   4.449   9.330  0.00  0.00    +0.000 NA
ATOM      5  C   UNL     1      43.903   3.700  10.445  0.00  0.00    +0.000 A 
ATOM      6  C   UNL     1      44.732   2.583  10.434  0.00  0.00    +0.000 A 
ATOM      7  N   UNL     1      45.487   2.228   9.361  0.00  0.00    +0.000 NA
ATOM      8  H   UNL     1      45.516   2.435   6.393  0.00  0.00    +0.000 HD
ENDROOT
BRANCH   1  10
ATOM      9  C   UNL     1      46.862   0.470   7.336  0.00  0.00    +0.000 C 
ATOM     10  C   UNL     1      47.337   1.926   7.257  0.00  0.00    +0.000 C 
ATOM     11  C   UNL     1      48.253   2.087   6.040  0.00  0.00    +0.000 C 
ENDBRANCH   1  10
BRANCH   5  12
ATOM     12  C   UNL     1      43.156   4.097  11.700  0.00  0.00    +0.000 C 
BRANCH  12  13
ATOM     13  C   UNL     1      43.542   5.478  12.306  0.00  0.00    +0.000 C 
ATOM     14  C   UNL     1      43.174   6.675  11.409  0.00  0.00    +0.000 C 
BRANCH  13  15
ATOM     15  C   UNL     1      45.049   5.532  12.587  0.00  0.00    +0.000 A 
ATOM     16  C   UNL     1      45.881   6.447  11.921  0.00  0.00    +0.000 A 
ATOM     17  C   UNL     1      47.229   6.500  12.247  0.00  0.00    +0.000 A 
ATOM     18  N   UNL     1      47.811   5.713  13.172  0.00  0.00    +0.000 NA
ATOM     19  C   UNL     1      47.004   4.835  13.804  0.00  0.00    +0.000 A 
ATOM     20  C   UNL     1      45.646   4.710  13.551  0.00  0.00    +0.000 A 
ENDBRANCH  13  15
BRANCH  13  21
ATOM     21  O   UNL     1      42.840   5.641  13.549  0.00  0.00    +0.000 OA
ATOM     22  H   UNL     1      43.517   5.506  14.246  0.00  0.00    +0.000 HD
ENDBRANCH  13  21
ENDBRANCH  12  13
ENDBRANCH   5  12
TORSDOF 5
ENDMDL
MODEL 2
REMARK VINA RESULT:    -6.664      2.627      6.535
REMARK INTER + INTRA:          -8.315
REMARK INTER:                  -7.621
REMARK INTRA:                  -0.694
REMARK UNBOUND:                 0.103
REMARK  Name = 
REMARK  8 active torsions:
REMARK  status: ('A' for Active; 'I' for Inactive)
REMARK    1  A    between atoms: C_1  and  C_2
REMARK    2  A    between atoms: C_2  and  C_3
REMARK    3  A    between atoms: C_2  and  N_4
REMARK    4  A    between atoms: C_8  and  C_9
REMARK    5  A    between atoms: C_9  and  C_10
REMARK    6  A    between atoms: C_10  and  C_11
REMARK    7  A    between atoms: C_10  and  O_12
REMARK    8  A    between atoms: C_10  and  C_13
REMARK                            x       y       z     vdW  Elec       q    Type
REMARK                         _______ _______ _______ _____ _____    ______ ____
ROOT
ATOM      1  N   UNL     1      47.231  10.105  12.778  0.00  0.00    +0.000 N 
ATOM      2  C   UNL     1      46.824   8.789  12.521  0.00  0.00    +0.000 A 
ATOM      3  C   UNL     1      45.539   8.405  12.899  0.00  0.00    +0.000 A 
ATOM      4  N   UNL     1      45.042   7.153  12.738  0.00  0.00    +0.000 NA
ATOM      5  C   UNL     1      45.893   6.252  12.195  0.00  0.00    +0.000 A 
ATOM      6  C   UNL     1      47.153   6.644  11.755  0.00  0.00    +0.000 A 
ATOM      7  N   UNL     1      47.639   7.903  11.915  0.00  0.00    +0.000 NA
ATOM      8  H   UNL     1      46.708  10.719  12.156  0.00  0.00    +0.000 HD
ENDROOT
BRANCH   1  10
ATOM      9  C   UNL     1      48.973  11.161  11.479  0.00  0.00    +0.000 C 
ATOM     10  C   UNL     1      48.668  10.385  12.765  0.00  0.00    +0.000 C 
ATOM     11  C   UNL     1      49.057  11.245  13.972  0.00  0.00    +0.000 C 
ENDBRANCH   1  10
BRANCH   5  12
ATOM     12  C   UNL     1      45.442   4.813  12.070  0.00  0.00    +0.000 C 
BRANCH  12  13
ATOM     13  C   UNL     1      44.347   4.541  10.997  0.00  0.00    +0.000 C 
ATOM     14  C   UNL     1      43.182   3.671  11.506  0.00  0.00    +0.000 C 
BRANCH  13  15
ATOM     15  C   UNL     1      44.962   3.852   9.772  0.00  0.00    +0.000 A 
ATOM     16  C   UNL     1      45.592   4.593   8.760  0.00  0.00    +0.000 A 
ATOM     17  C   UNL     1      46.184   3.925   7.698  0.00  0.00    +0.000 A 
ATOM     18  N   UNL     1      46.191   2.585   7.561  0.00  0.00    +0.000 NA
ATOM     19  C   UNL     1      45.580   1.881   8.537  0.00  0.00    +0.000 A 
ATOM     20  C   UNL     1      44.963   2.458   9.638  0.00  0.00    +0.000 A 
ENDBRANCH  13  15
BRANCH  13  21
ATOM     21  O   UNL     1      43.793   5.800  10.583  0.00  0.00    +0.000 OA
ATOM     22  H   UNL     1      44.458   6.185   9.972  0.00  0.00    +0.000 HD
ENDBRANCH  13  21
ENDBRANCH  12  13
ENDBRANCH   5  12
TORSDOF 5
ENDMDL
MODEL 3
REMARK VINA RESULT:    -6.664      2.266      6.475
REMARK INTER + INTRA:          -8.315
REMARK INTER:                  -7.639
REMARK INTRA:                  -0.676
REMARK UNBOUND:                 0.103
REMARK  Name = 
REMARK  8 active torsions:
REMARK  status: ('A' for Active; 'I' for Inactive)
REMARK    1  A    between atoms: C_1  and  C_2
REMARK    2  A    between atoms: C_2  and  C_3
REMARK    3  A    between atoms: C_2  and  N_4
REMARK    4  A    between atoms: C_8  and  C_9
REMARK    5  A    between atoms: C_9  and  C_10
REMARK    6  A    between atoms: C_10  and  C_11
REMARK    7  A    between atoms: C_10  and  O_12
REMARK    8  A    between atoms: C_10  and  C_13
REMARK                            x       y       z     vdW  Elec       q    Type
REMARK                         _______ _______ _______ _____ _____    ______ ____
ROOT
ATOM      1  N   UNL     1      47.318   5.170  15.472  0.00  0.00    +0.000 N 
ATOM      2  C   UNL     1      46.763   4.656  14.294  0.00  0.00    +0.000 A 
ATOM      3  C   UNL     1      45.841   5.436  13.598  0.00  0.00    +0.000 A 
ATOM      4  N   UNL     1      45.208   5.035  12.466  0.00  0.00    +0.000 NA
ATOM      5  C   UNL     1      45.504   3.785  12.042  0.00  0.00    +0.000 A 
ATOM      6  C   UNL     1      46.472   3.027  12.694  0.00  0.00    +0.000 A 
ATOM      7  N   UNL     1      47.106   3.441  13.823  0.00  0.00    +0.000 NA
ATOM      8  H   UNL     1      47.941   5.935  15.214  0.00  0.00    +0.000 HD
ENDROOT
BRANCH   1  10
ATOM      9  C   UNL     1      49.058   4.973  17.137  0.00  0.00    +0.000 C 
ATOM     10  C   UNL     1      47.944   4.224  16.396  0.00  0.00    +0.000 C 
ATOM     11  C   UNL     1      46.921   3.715  17.417  0.00  0.00    +0.000 C 
ENDBRANCH   1  10
BRANCH   5  12
ATOM     12  C   UNL     1      44.769   3.233  10.841  0.00  0.00    +0.000 C 
BRANCH  12  13
ATOM     13  C   UNL     1      45.061   3.944   9.486  0.00  0.00    +0.000 C 
ATOM     14  C   UNL     1      43.795   4.428   8.753  0.00  0.00    +0.000 C 
BRANCH  13  15
ATOM     15  C   UNL     1      45.831   3.006   8.548  0.00  0.00    +0.000 A 
ATOM     16  C   UNL     1      46.677   3.509   7.548  0.00  0.00    +0.000 A 
ATOM     17  C   UNL     1      47.397   2.624   6.759  0.00  0.00    +0.000 A 
ATOM     18  N   UNL     1      47.336   1.284   6.882  0.00  0.00    +0.000 NA
ATOM     19  C   UNL     1      46.517   0.809   7.845  0.00  0.00    +0.000 A 
ATOM     20  C   UNL     1      45.760   1.613   8.684  0.00  0.00    +0.000 A 
ENDBRANCH  13  15
BRANCH  13  21
ATOM     21  O   UNL     1      45.874   5.099   9.745  0.00  0.00    +0.000 OA
ATOM     22  H   UNL     1      46.785   4.752   9.860  0.00  0.00    +0.000 HD
ENDBRANCH  13  21
ENDBRANCH  12  13
ENDBRANCH   5  12
TORSDOF 5
ENDMDL
MODEL 4
REMARK VINA RESULT:    -6.563      2.149      6.467
REMARK INTER + INTRA:          -8.186
REMARK INTER:                  -9.137
REMARK INTRA:                   0.951
REMARK UNBOUND:                 0.103
REMARK  Name = 
REMARK  8 active torsions:
REMARK  status: ('A' for Active; 'I' for Inactive)
REMARK    1  A    between atoms: C_1  and  C_2
REMARK    2  A    between atoms: C_2  and  C_3
REMARK    3  A    between atoms: C_2  and  N_4
REMARK    4  A    between atoms: C_8  and  C_9
REMARK    5  A    between atoms: C_9  and  C_10
REMARK    6  A    between atoms: C_10  and  C_11
REMARK    7  A    between atoms: C_10  and  O_12
REMARK    8  A    between atoms: C_10  and  C_13
REMARK                            x       y       z     vdW  Elec       q    Type
REMARK                         _______ _______ _______ _____ _____    ______ ____
ROOT
ATOM      1  N   UNL     1      47.854   4.866  15.803  0.00  0.00    +0.000 N 
ATOM      2  C   UNL     1      47.202   4.995  14.570  0.00  0.00    +0.000 A 
ATOM      3  C   UNL     1      47.619   6.001  13.700  0.00  0.00    +0.000 A 
ATOM      4  N   UNL     1      47.046   6.249  12.495  0.00  0.00    +0.000 NA
ATOM      5  C   UNL     1      45.993   5.462  12.176  0.00  0.00    +0.000 A 
ATOM      6  C   UNL     1      45.613   4.415  13.009  0.00  0.00    +0.000 A 
ATOM      7  N   UNL     1      46.200   4.169  14.210  0.00  0.00    +0.000 NA
ATOM      8  H   UNL     1      48.795   4.520  15.623  0.00  0.00    +0.000 HD
ENDROOT
BRANCH   1  10
ATOM      9  C   UNL     1      47.992   2.845  17.120  0.00  0.00    +0.000 C 
ATOM     10  C   UNL     1      47.170   4.112  16.855  0.00  0.00    +0.000 C 
ATOM     11  C   UNL     1      47.096   4.937  18.144  0.00  0.00    +0.000 C 
ENDBRANCH   1  10
BRANCH   5  12
ATOM     12  C   UNL     1      45.243   5.740  10.891  0.00  0.00    +0.000 C 
BRANCH  12  13
ATOM     13  C   UNL     1      44.368   4.569  10.354  0.00  0.00    +0.000 C 
ATOM     14  C   UNL     1      43.859   3.620  11.455  0.00  0.00    +0.000 C 
BRANCH  13  15
ATOM     15  C   UNL     1      45.156   3.741   9.332  0.00  0.00    +0.000 A 
ATOM     16  C   UNL     1      45.175   2.339   9.390  0.00  0.00    +0.000 A 
ATOM     17  C   UNL     1      45.855   1.628   8.411  0.00  0.00    +0.000 A 
ATOM     18  N   UNL     1      46.520   2.201   7.390  0.00  0.00    +0.000 NA
ATOM     19  C   UNL     1      46.499   3.550   7.344  0.00  0.00    +0.000 A 
ATOM     20  C   UNL     1      45.845   4.346   8.273  0.00  0.00    +0.000 A 
ENDBRANCH  13  15
BRANCH  13  21
ATOM     21  O   UNL     1      43.216   5.125   9.702  0.00  0.00    +0.000 OA
ATOM     22  H   UNL     1      42.454   4.602  10.034  0.00  0.00    +0.000 HD
ENDBRANCH  13  21
ENDBRANCH  12  13
ENDBRANCH   5  12
TORSDOF 5
ENDMDL
MODEL 5
REMARK VINA RESULT:    -6.212      2.351      6.331
REMARK INTER + INTRA:          -7.743
REMARK INTER:                  -7.858
REMARK INTRA:                   0.115
REMARK UNBOUND:                 0.103
REMARK  Name = 
REMARK  8 active torsions:
REMARK  status: ('A' for Active; 'I' for Inactive)
REMARK    1  A    between atoms: C_1  and  C_2
REMARK    2  A    between atoms: C_2  and  C_3
REMARK    3  A    between atoms: C_2  and  N_4
REMARK    4  A    between atoms: C_8  and  C_9
REMARK    5  A    between atoms: C_9  and  C_10
REMARK    6  A    between atoms: C_10  and  C_11
REMARK    7  A    between atoms: C_10  and  O_12
REMARK    8  A    between atoms: C_10  and  C_13
REMARK                            x       y       z     vdW  Elec       q    Type
REMARK                         _______ _______ _______ _____ _____    ______ ____
ROOT
ATOM      1  N   UNL     1      49.827   7.369  13.726  0.00  0.00    +0.000 N 
ATOM      2  C   UNL     1      48.643   6.661  13.485  0.00  0.00    +0.000 A 
ATOM      3  C   UNL     1      47.938   6.923  12.312  0.00  0.00    +0.000 A 
ATOM      4  N   UNL     1      46.763   6.330  11.983  0.00  0.00    +0.000 NA
ATOM      5  C   UNL     1      46.274   5.457  12.894  0.00  0.00    +0.000 A 
ATOM      6  C   UNL     1      47.004   5.141  14.035  0.00  0.00    +0.000 A 
ATOM      7  N   UNL     1      48.185   5.736  14.351  0.00  0.00    +0.000 NA
ATOM      8  H   UNL     1      50.526   7.042  13.061  0.00  0.00    +0.000 HD
ENDROOT
BRANCH   1  10
ATOM      9  C   UNL     1      51.782   7.892  15.046  0.00  0.00    +0.000 C 
ATOM     10  C   UNL     1      50.331   7.401  15.100  0.00  0.00    +0.000 C 
ATOM     11  C   UNL     1      49.506   8.372  15.951  0.00  0.00    +0.000 C 
ENDBRANCH   1  10
BRANCH   5  12
ATOM     12  C   UNL     1      44.922   4.827  12.641  0.00  0.00    +0.000 C 
BRANCH  12  13
ATOM     13  C   UNL     1      44.230   5.228  11.304  0.00  0.00    +0.000 C 
ATOM     14  C   UNL     1      42.692   5.224  11.376  0.00  0.00    +0.000 C 
BRANCH  13  15
ATOM     15  C   UNL     1      44.662   4.283  10.177  0.00  0.00    +0.000 A 
ATOM     16  C   UNL     1      45.396   4.750   9.075  0.00  0.00    +0.000 A 
ATOM     17  C   UNL     1      45.814   3.850   8.106  0.00  0.00    +0.000 A 
ATOM     18  N   UNL     1      45.554   2.529   8.144  0.00  0.00    +0.000 NA
ATOM     19  C   UNL     1      44.845   2.089   9.205  0.00  0.00    +0.000 A 
ATOM     20  C   UNL     1      44.386   2.910  10.225  0.00  0.00    +0.000 A 
ENDBRANCH  13  15
BRANCH  13  21
ATOM     21  O   UNL     1      44.639   6.562  10.964  0.00  0.00    +0.000 OA
ATOM     22  H   UNL     1      44.005   6.859  10.277  0.00  0.00    +0.000 HD
ENDBRANCH  13  21
ENDBRANCH  12  13
ENDBRANCH   5  12
TORSDOF 5
ENDMDL
MODEL 6
REMARK VINA RESULT:    -6.139      2.628      6.590
REMARK INTER + INTRA:          -7.652
REMARK INTER:                  -7.549
REMARK INTRA:                  -0.103
REMARK UNBOUND:                 0.103
REMARK  Name = 
REMARK  8 active torsions:
REMARK  status: ('A' for Active; 'I' for Inactive)
REMARK    1  A    between atoms: C_1  and  C_2
REMARK    2  A    between atoms: C_2  and  C_3
REMARK    3  A    between atoms: C_2  and  N_4
REMARK    4  A    between atoms: C_8  and  C_9
REMARK    5  A    between atoms: C_9  and  C_10
REMARK    6  A    between atoms: C_10  and  C_11
REMARK    7  A    between atoms: C_10  and  O_12
REMARK    8  A    between atoms: C_10  and  C_13
REMARK                            x       y       z     vdW  Elec       q    Type
REMARK                         _______ _______ _______ _____ _____    ______ ____
ROOT
ATOM      1  N   UNL     1      48.171   3.142  16.516  0.00  0.00    +0.000 N 
ATOM      2  C   UNL     1      47.756   3.959  15.457  0.00  0.00    +0.000 A 
ATOM      3  C   UNL     1      47.086   3.370  14.386  0.00  0.00    +0.000 A 
ATOM      4  N   UNL     1      46.666   4.047  13.287  0.00  0.00    +0.000 NA
ATOM      5  C   UNL     1      46.962   5.367  13.266  0.00  0.00    +0.000 A 
ATOM      6  C   UNL     1      47.571   5.974  14.359  0.00  0.00    +0.000 A 
ATOM      7  N   UNL     1      47.981   5.287  15.459  0.00  0.00    +0.000 NA
ATOM      8  H   UNL     1      47.338   2.836  17.017  0.00  0.00    +0.000 HD
ENDROOT
BRANCH   1  10
ATOM      9  C   UNL     1      48.590   3.769  18.812  0.00  0.00    +0.000 C 
ATOM     10  C   UNL     1      49.204   3.665  17.411  0.00  0.00    +0.000 C 
ATOM     11  C   UNL     1      50.403   2.711  17.461  0.00  0.00    +0.000 C 
ENDBRANCH   1  10
BRANCH   5  12
ATOM     12  C   UNL     1      46.609   6.170  12.033  0.00  0.00    +0.000 C 
BRANCH  12  13
ATOM     13  C   UNL     1      45.133   6.050  11.550  0.00  0.00    +0.000 C 
ATOM     14  C   UNL     1      44.131   5.765  12.684  0.00  0.00    +0.000 C 
BRANCH  13  15
ATOM     15  C   UNL     1      45.004   4.937  10.503  0.00  0.00    +0.000 A 
ATOM     16  C   UNL     1      45.608   5.051   9.241  0.00  0.00    +0.000 A 
ATOM     17  C   UNL     1      45.513   3.996   8.345  0.00  0.00    +0.000 A 
ATOM     18  N   UNL     1      44.862   2.846   8.603  0.00  0.00    +0.000 NA
ATOM     19  C   UNL     1      44.281   2.746   9.818  0.00  0.00    +0.000 A 
ATOM     20  C   UNL     1      44.324   3.744  10.780  0.00  0.00    +0.000 A 
ENDBRANCH  13  15
BRANCH  13  21
ATOM     21  O   UNL     1      44.752   7.295  10.943  0.00  0.00    +0.000 OA
ATOM     22  H   UNL     1      44.105   7.696  11.564  0.00  0.00    +0.000 HD
ENDBRANCH  13  21
ENDBRANCH  12  13
ENDBRANCH   5  12
TORSDOF 5
ENDMDL
MODEL 7
REMARK VINA RESULT:    -6.068      4.155      8.049
REMARK INTER + INTRA:          -7.562
REMARK INTER:                  -6.921
REMARK INTRA:                  -0.641
REMARK UNBOUND:                 0.103
REMARK  Name = 
REMARK  8 active torsions:
REMARK  status: ('A' for Active; 'I' for Inactive)
REMARK    1  A    between atoms: C_1  and  C_2
REMARK    2  A    between atoms: C_2  and  C_3
REMARK    3  A    between atoms: C_2  and  N_4
REMARK    4  A    between atoms: C_8  and  C_9
REMARK    5  A    between atoms: C_9  and  C_10
REMARK    6  A    between atoms: C_10  and  C_11
REMARK    7  A    between atoms: C_10  and  O_12
REMARK    8  A    between atoms: C_10  and  C_13
REMARK                            x       y       z     vdW  Elec       q    Type
REMARK                         _______ _______ _______ _____ _____    ______ ____
ROOT
ATOM      1  N   UNL     1      50.661   3.246  18.432  0.00  0.00    +0.000 N 
ATOM      2  C   UNL     1      49.601   3.714  17.647  0.00  0.00    +0.000 A 
ATOM      3  C   UNL     1      48.552   2.843  17.358  0.00  0.00    +0.000 A 
ATOM      4  N   UNL     1      47.488   3.167  16.580  0.00  0.00    +0.000 NA
ATOM      5  C   UNL     1      47.505   4.414  16.055  0.00  0.00    +0.000 A 
ATOM      6  C   UNL     1      48.515   5.310  16.392  0.00  0.00    +0.000 A 
ATOM      7  N   UNL     1      49.572   4.978  17.179  0.00  0.00    +0.000 NA
ATOM      8  H   UNL     1      50.313   3.119  19.382  0.00  0.00    +0.000 HD
ENDROOT
BRANCH   1  10
ATOM      9  C   UNL     1      52.094   4.673  19.755  0.00  0.00    +0.000 C 
ATOM     10  C   UNL     1      51.918   3.995  18.391  0.00  0.00    +0.000 C 
ATOM     11  C   UNL     1      53.098   3.048  18.149  0.00  0.00    +0.000 C 
ENDBRANCH   1  10
BRANCH   5  12
ATOM     12  C   UNL     1      46.401   4.815  15.102  0.00  0.00    +0.000 C 
BRANCH  12  13
ATOM     13  C   UNL     1      46.671   4.525  13.596  0.00  0.00    +0.000 C 
ATOM     14  C   UNL     1      47.392   5.671  12.863  0.00  0.00    +0.000 C 
BRANCH  13  15
ATOM     15  C   UNL     1      45.354   4.240  12.865  0.00  0.00    +0.000 A 
ATOM     16  C   UNL     1      44.216   5.035  13.076  0.00  0.00    +0.000 A 
ATOM     17  C   UNL     1      43.062   4.776  12.352  0.00  0.00    +0.000 A 
ATOM     18  N   UNL     1      42.949   3.788  11.443  0.00  0.00    +0.000 NA
ATOM     19  C   UNL     1      44.047   3.026  11.249  0.00  0.00    +0.000 A 
ATOM     20  C   UNL     1      45.246   3.209  11.922  0.00  0.00    +0.000 A 
ENDBRANCH  13  15
BRANCH  13  21
ATOM     21  O   UNL     1      47.507   3.361  13.501  0.00  0.00    +0.000 OA
ATOM     22  H   UNL     1      48.408   3.706  13.318  0.00  0.00    +0.000 HD
ENDBRANCH  13  21
ENDBRANCH  12  13
ENDBRANCH   5  12
TORSDOF 5
ENDMDL
MODEL 8
REMARK VINA RESULT:    -5.980      2.728      7.160
REMARK INTER + INTRA:          -7.451
REMARK INTER:                  -6.763
REMARK INTRA:                  -0.687
REMARK UNBOUND:                 0.103
REMARK  Name = 
REMARK  8 active torsions:
REMARK  status: ('A' for Active; 'I' for Inactive)
REMARK    1  A    between atoms: C_1  and  C_2
REMARK    2  A    between atoms: C_2  and  C_3
REMARK    3  A    between atoms: C_2  and  N_4
REMARK    4  A    between atoms: C_8  and  C_9
REMARK    5  A    between atoms: C_9  and  C_10
REMARK    6  A    between atoms: C_10  and  C_11
REMARK    7  A    between atoms: C_10  and  O_12
REMARK    8  A    between atoms: C_10  and  C_13
REMARK                            x       y       z     vdW  Elec       q    Type
REMARK                         _______ _______ _______ _____ _____    ______ ____
ROOT
ATOM      1  N   UNL     1      49.202   7.210  16.042  0.00  0.00    +0.000 N 
ATOM      2  C   UNL     1      48.463   6.246  15.345  0.00  0.00    +0.000 A 
ATOM      3  C   UNL     1      48.302   6.398  13.969  0.00  0.00    +0.000 A 
ATOM      4  N   UNL     1      47.580   5.553  13.191  0.00  0.00    +0.000 NA
ATOM      5  C   UNL     1      46.979   4.529  13.841  0.00  0.00    +0.000 A 
ATOM      6  C   UNL     1      47.190   4.333  15.202  0.00  0.00    +0.000 A 
ATOM      7  N   UNL     1      47.922   5.182  15.971  0.00  0.00    +0.000 NA
ATOM      8  H   UNL     1      50.179   7.111  15.770  0.00  0.00    +0.000 HD
ENDROOT
BRANCH   1  10
ATOM      9  C   UNL     1      50.424   7.398  18.118  0.00  0.00    +0.000 C 
ATOM     10  C   UNL     1      49.029   7.279  17.493  0.00  0.00    +0.000 C 
ATOM     11  C   UNL     1      48.203   8.512  17.877  0.00  0.00    +0.000 C 
ENDBRANCH   1  10
BRANCH   5  12
ATOM     12  C   UNL     1      46.081   3.599  13.055  0.00  0.00    +0.000 C 
BRANCH  12  13
ATOM     13  C   UNL     1      44.878   4.274  12.332  0.00  0.00    +0.000 C 
ATOM     14  C   UNL     1      43.513   3.660  12.694  0.00  0.00    +0.000 C 
BRANCH  13  15
ATOM     15  C   UNL     1      45.057   4.188  10.811  0.00  0.00    +0.000 A 
ATOM     16  C   UNL     1      44.558   3.099  10.080  0.00  0.00    +0.000 A 
ATOM     17  C   UNL     1      44.693   3.089   8.698  0.00  0.00    +0.000 A 
ATOM     18  N   UNL     1      45.287   4.071   7.994  0.00  0.00    +0.000 NA
ATOM     19  C   UNL     1      45.766   5.113   8.706  0.00  0.00    +0.000 A 
ATOM     20  C   UNL     1      45.677   5.214  10.086  0.00  0.00    +0.000 A 
ENDBRANCH  13  15
BRANCH  13  21
ATOM     21  O   UNL     1      44.840   5.659  12.710  0.00  0.00    +0.000 OA
ATOM     22  H   UNL     1      45.259   5.695  13.597  0.00  0.00    +0.000 HD
ENDBRANCH  13  21
ENDBRANCH  12  13
ENDBRANCH   5  12
TORSDOF 5
ENDMDL
MODEL 9
REMARK VINA RESULT:    -5.893      2.431      6.852
REMARK INTER + INTRA:          -7.341
REMARK INTER:                  -7.296
REMARK INTRA:                  -0.045
REMARK UNBOUND:                 0.103
REMARK  Name = 
REMARK  8 active torsions:
REMARK  status: ('A' for Active; 'I' for Inactive)
REMARK    1  A    between atoms: C_1  and  C_2
REMARK    2  A    between atoms: C_2  and  C_3
REMARK    3  A    between atoms: C_2  and  N_4
REMARK    4  A    between atoms: C_8  and  C_9
REMARK    5  A    between atoms: C_9  and  C_10
REMARK    6  A    between atoms: C_10  and  C_11
REMARK    7  A    between atoms: C_10  and  O_12
REMARK    8  A    between atoms: C_10  and  C_13
REMARK                            x       y       z     vdW  Elec       q    Type
REMARK                         _______ _______ _______ _____ _____    ______ ____
ROOT
ATOM      1  N   UNL     1      48.948   6.242  16.487  0.00  0.00    +0.000 N 
ATOM      2  C   UNL     1      48.392   6.290  15.203  0.00  0.00    +0.000 A 
ATOM      3  C   UNL     1      48.290   7.526  14.568  0.00  0.00    +0.000 A 
ATOM      4  N   UNL     1      47.738   7.707  13.341  0.00  0.00    +0.000 NA
ATOM      5  C   UNL     1      47.248   6.593  12.750  0.00  0.00    +0.000 A 
ATOM      6  C   UNL     1      47.406   5.347  13.349  0.00  0.00    +0.000 A 
ATOM      7  N   UNL     1      47.967   5.176  14.575  0.00  0.00    +0.000 NA
ATOM      8  H   UNL     1      49.944   6.444  16.402  0.00  0.00    +0.000 HD
ENDROOT
BRANCH   1  10
ATOM      9  C   UNL     1      49.970   4.725  18.066  0.00  0.00    +0.000 C 
ATOM     10  C   UNL     1      48.684   5.053  17.297  0.00  0.00    +0.000 C 
ATOM     11  C   UNL     1      47.559   5.327  18.301  0.00  0.00    +0.000 C 
ENDBRANCH   1  10
BRANCH   5  12
ATOM     12  C   UNL     1      46.534   6.729  11.424  0.00  0.00    +0.000 C 
BRANCH  12  13
ATOM     13  C   UNL     1      45.048   6.264  11.407  0.00  0.00    +0.000 C 
ATOM     14  C   UNL     1      44.476   5.964  12.805  0.00  0.00    +0.000 C 
BRANCH  13  15
ATOM     15  C   UNL     1      44.894   5.006  10.543  0.00  0.00    +0.000 A 
ATOM     16  C   UNL     1      45.428   4.943   9.247  0.00  0.00    +0.000 A 
ATOM     17  C   UNL     1      45.315   3.765   8.522  0.00  0.00    +0.000 A 
ATOM     18  N   UNL     1      44.707   2.655   8.982  0.00  0.00    +0.000 NA
ATOM     19  C   UNL     1      44.194   2.725  10.228  0.00  0.00    +0.000 A 
ATOM     20  C   UNL     1      44.260   3.856  11.030  0.00  0.00    +0.000 A 
ENDBRANCH  13  15
BRANCH  13  21
ATOM     21  O   UNL     1      44.251   7.312  10.833  0.00  0.00    +0.000 OA
ATOM     22  H   UNL     1      44.600   7.433   9.924  0.00  0.00    +0.000 HD
ENDBRANCH  13  21
ENDBRANCH  12  13
ENDBRANCH   5  12
TORSDOF 5
ENDMDL
