MODEL 1
REMARK VINA RESULT:    -7.900      0.000      0.000
REMARK INTER + INTRA:         -10.273
REMARK INTER:                  -9.979
REMARK INTRA:                  -0.295
REMARK UNBOUND:                -0.295
REMARK  Name = 
REMARK  5 active torsions:
REMARK  status: ('A' for Active; 'I' for Inactive)
REMARK    1  A    between atoms: N_1  and  C_2
REMARK    2  A    between atoms: C_2  and  C_3
REMARK    3  A    between atoms: C_3  and  C_4
REMARK    4  A    between atoms: C_8  and  C_9
REMARK    5  A    between atoms: C_9  and  N_10
REMARK                            x       y       z     vdW  Elec       q    Type
REMARK                         _______ _______ _______ _____ _____    ______ ____
ROOT
ATOM      1  C   UNL     1      45.307   4.974  12.843  0.00  0.00    +0.000 A 
ATOM      2  C   UNL     1      44.058   5.473  13.196  0.00  0.00    +0.000 A 
ATOM      3  N   UNL     1      42.910   5.151  12.560  0.00  0.00    +0.000 NA
ATOM      4  C   UNL     1      43.004   4.277  11.535  0.00  0.00    +0.000 A 
ATOM      5  C   UNL     1      44.198   3.719  11.089  0.00  0.00    +0.000 A 
ATOM      6  C   UNL     1      45.370   4.097  11.755  0.00  0.00    +0.000 A 
ENDROOT
BRANCH   1   7
ATOM      7  C   UNL     1      46.543   5.352  13.616  0.00  0.00    +0.000 C 
BRANCH   7   8
ATOM      8  C   UNL     1      46.793   4.442  14.822  0.00  0.00    +0.000 C 
BRANCH   8   9
ATOM      9  N   UNL     1      47.467   3.210  14.412  0.00  0.00    +0.000 NA
ATOM     10  H   UNL     1      47.994   3.381  13.557  0.00  0.00    +0.000 HD
ATOM     11  H   UNL     1      46.775   2.499  14.181  0.00  0.00    +0.000 HD
ENDBRANCH   8   9
ENDBRANCH   7   8
ENDBRANCH   1   7
BRANCH   5  12
ATOM     12  C   UNL     1      44.216   2.734   9.957  0.00  0.00    +0.000 C 
BRANCH  12  13
ATOM     13  N   UNL     1      45.124   3.131   8.888  0.00  0.00    +0.000 N 
ATOM     14  C   UNL     1      45.389   4.429   8.510  0.00  0.00    +0.000 A 
ATOM     15  C   UNL     1      46.400   4.404   7.573  0.00  0.00    +0.000 A 
ATOM     16  C   UNL     1      46.773   3.046   7.387  0.00  0.00    +0.000 A 
ATOM     17  C   UNL     1      47.724   2.359   6.637  0.00  0.00    +0.000 A 
ATOM     18  N   UNL     1      47.806   1.012   6.731  0.00  0.00    +0.000 NA
ATOM     19  C   UNL     1      46.945   0.389   7.565  0.00  0.00    +0.000 A 
ATOM     20  N   UNL     1      45.992   0.941   8.338  0.00  0.00    +0.000 NA
ATOM     21  C   UNL     1      45.959   2.280   8.205  0.00  0.00    +0.000 A 
ENDBRANCH  12  13
ENDBRANCH   5  12
TORSDOF 5
ENDMDL
MODEL 2
REMARK VINA RESULT:    -7.349      1.528      5.980
REMARK INTER + INTRA:          -9.577
REMARK INTER:                  -9.174
REMARK INTRA:                  -0.403
REMARK UNBOUND:                -0.295
REMARK  Name = 
REMARK  5 active torsions:
REMARK  status: ('A' for Active; 'I' for Inactive)
REMARK    1  A    between atoms: N_1  and  C_2
REMARK    2  A    between atoms: C_2  and  C_3
REMARK    3  A    between atoms: C_3  and  C_4
REMARK    4  A    between atoms: C_8  and  C_9
REMARK    5  A    between atoms: C_9  and  N_10
REMARK                            x       y       z     vdW  Elec       q    Type
REMARK                         _______ _______ _______ _____ _____    ______ ____
ROOT
ATOM      1  C   UNL     1      46.003   3.286   7.876  0.00  0.00    +0.000 A 
ATOM      2  C   UNL     1      45.643   1.966   8.126  0.00  0.00    +0.000 A 
ATOM      3  N   UNL     1      44.829   1.584   9.134  0.00  0.00    +0.000 NA
ATOM      4  C   UNL     1      44.333   2.563   9.922  0.00  0.00    +0.000 A 
ATOM      5  C   UNL     1      44.628   3.914   9.772  0.00  0.00    +0.000 A 
ATOM      6  C   UNL     1      45.497   4.268   8.733  0.00  0.00    +0.000 A 
ENDROOT
BRANCH   1   7
ATOM      7  C   UNL     1      46.892   3.644   6.714  0.00  0.00    +0.000 C 
BRANCH   7   8
ATOM      8  C   UNL     1      47.035   2.506   5.700  0.00  0.00    +0.000 C 
BRANCH   8   9
ATOM      9  N   UNL     1      48.363   1.898   5.787  0.00  0.00    +0.000 NA
ATOM     10  H   UNL     1      48.334   0.963   5.383  0.00  0.00    +0.000 HD
ATOM     11  H   UNL     1      48.623   1.776   6.764  0.00  0.00    +0.000 HD
ENDBRANCH   8   9
ENDBRANCH   7   8
ENDBRANCH   1   7
BRANCH   5  12
ATOM     12  C   UNL     1      44.015   4.943  10.675  0.00  0.00    +0.000 C 
BRANCH  12  13
ATOM     13  N   UNL     1      45.018   5.736  11.376  0.00  0.00    +0.000 N 
ATOM     14  C   UNL     1      45.170   7.102  11.269  0.00  0.00    +0.000 A 
ATOM     15  C   UNL     1      46.118   7.500  12.187  0.00  0.00    +0.000 A 
ATOM     16  C   UNL     1      46.546   6.340  12.885  0.00  0.00    +0.000 A 
ATOM     17  C   UNL     1      47.426   6.063  13.929  0.00  0.00    +0.000 A 
ATOM     18  N   UNL     1      47.569   4.790  14.365  0.00  0.00    +0.000 NA
ATOM     19  C   UNL     1      46.839   3.832  13.752  0.00  0.00    +0.000 A 
ATOM     20  N   UNL     1      45.960   3.977  12.743  0.00  0.00    +0.000 NA
ATOM     21  C   UNL     1      45.857   5.262  12.355  0.00  0.00    +0.000 A 
ENDBRANCH  12  13
ENDBRANCH   5  12
TORSDOF 5
ENDMDL
MODEL 3
REMARK VINA RESULT:    -7.060      2.052      6.165
REMARK INTER + INTRA:          -9.211
REMARK INTER:                  -8.730
REMARK INTRA:                  -0.482
REMARK UNBOUND:                -0.295
REMARK  Name = 
REMARK  5 active torsions:
REMARK  status: ('A' for Active; 'I' for Inactive)
REMARK    1  A    between atoms: N_1  and  C_2
REMARK    2  A    between atoms: C_2  and  C_3
REMARK    3  A    between atoms: C_3  and  C_4
REMARK    4  A    between atoms: C_8  and  C_9
REMARK    5  A    between atoms: C_9  and  N_10
REMARK                            x       y       z     vdW  Elec       q    Type
REMARK                         _______ _______ _______ _____ _____    ______ ____
ROOT
ATOM      1  C   UNL     1      45.831   3.279   8.045  0.00  0.00    +0.000 A 
ATOM      2  C   UNL     1      45.193   2.090   8.381  0.00  0.00    +0.000 A 
ATOM      3  N   UNL     1      44.391   1.943   9.459  0.00  0.00    +0.000 NA
ATOM      4  C   UNL     1      44.200   3.035  10.231  0.00  0.00    +0.000 A 
ATOM      5  C   UNL     1      44.790   4.272   9.997  0.00  0.00    +0.000 A 
ATOM      6  C   UNL     1      45.636   4.379   8.886  0.00  0.00    +0.000 A 
ENDROOT
BRANCH   1   7
ATOM      7  C   UNL     1      46.687   3.381   6.810  0.00  0.00    +0.000 C 
BRANCH   7   8
ATOM      8  C   UNL     1      47.908   2.458   6.854  0.00  0.00    +0.000 C 
BRANCH   8   9
ATOM      9  N   UNL     1      48.268   2.009   5.509  0.00  0.00    +0.000 NA
ATOM     10  H   UNL     1      47.426   1.719   5.012  0.00  0.00    +0.000 HD
ATOM     11  H   UNL     1      48.860   1.182   5.569  0.00  0.00    +0.000 HD
ENDBRANCH   8   9
ENDBRANCH   7   8
ENDBRANCH   1   7
BRANCH   5  12
ATOM     12  C   UNL     1      44.506   5.445  10.889  0.00  0.00    +0.000 C 
BRANCH  12  13
ATOM     13  N   UNL     1      45.338   5.448  12.085  0.00  0.00    +0.000 N 
ATOM     14  C   UNL     1      45.145   4.651  13.192  0.00  0.00    +0.000 A 
ATOM     15  C   UNL     1      46.211   4.836  14.045  0.00  0.00    +0.000 A 
ATOM     16  C   UNL     1      47.091   5.766  13.429  0.00  0.00    +0.000 A 
ATOM     17  C   UNL     1      48.326   6.332  13.733  0.00  0.00    +0.000 A 
ATOM     18  N   UNL     1      48.897   7.200  12.865  0.00  0.00    +0.000 NA
ATOM     19  C   UNL     1      48.226   7.478  11.726  0.00  0.00    +0.000 A 
ATOM     20  N   UNL     1      47.036   6.994  11.323  0.00  0.00    +0.000 NA
ATOM     21  C   UNL     1      46.519   6.136  12.223  0.00  0.00    +0.000 A 
ENDBRANCH  12  13
ENDBRANCH   5  12
TORSDOF 5
ENDMDL
MODEL 4
REMARK VINA RESULT:    -6.690      1.425      2.033
REMARK INTER + INTRA:          -8.745
REMARK INTER:                  -8.373
REMARK INTRA:                  -0.372
REMARK UNBOUND:                -0.295
REMARK  Name = 
REMARK  5 active torsions:
REMARK  status: ('A' for Active; 'I' for Inactive)
REMARK    1  A    between atoms: N_1  and  C_2
REMARK    2  A    between atoms: C_2  and  C_3
REMARK    3  A    between atoms: C_3  and  C_4
REMARK    4  A    between atoms: C_8  and  C_9
REMARK    5  A    between atoms: C_9  and  N_10
REMARK                            x       y       z     vdW  Elec       q    Type
REMARK                         _______ _______ _______ _____ _____    ______ ____
ROOT
ATOM      1  C   UNL     1      45.333   6.048  12.255  0.00  0.00    +0.000 A 
ATOM      2  C   UNL     1      44.134   5.734  12.885  0.00  0.00    +0.000 A 
ATOM      3  N   UNL     1      43.106   5.102  12.279  0.00  0.00    +0.000 NA
ATOM      4  C   UNL     1      43.283   4.749  10.987  0.00  0.00    +0.000 A 
ATOM      5  C   UNL     1      44.434   5.016  10.253  0.00  0.00    +0.000 A 
ATOM      6  C   UNL     1      45.468   5.696  10.908  0.00  0.00    +0.000 A 
ENDROOT
BRANCH   1   7
ATOM      7  C   UNL     1      46.451   6.727  13.001  0.00  0.00    +0.000 C 
BRANCH   7   8
ATOM      8  C   UNL     1      47.528   5.749  13.480  0.00  0.00    +0.000 C 
BRANCH   8   9
ATOM      9  N   UNL     1      48.850   6.162  13.010  0.00  0.00    +0.000 NA
ATOM     10  H   UNL     1      48.871   6.134  11.991  0.00  0.00    +0.000 HD
ATOM     11  H   UNL     1      49.552   5.494  13.326  0.00  0.00    +0.000 HD
ENDBRANCH   8   9
ENDBRANCH   7   8
ENDBRANCH   1   7
BRANCH   5  12
ATOM     12  C   UNL     1      44.563   4.567   8.827  0.00  0.00    +0.000 C 
BRANCH  12  13
ATOM     13  N   UNL     1      45.065   3.203   8.716  0.00  0.00    +0.000 N 
ATOM     14  C   UNL     1      44.438   2.081   9.213  0.00  0.00    +0.000 A 
ATOM     15  C   UNL     1      45.138   0.974   8.785  0.00  0.00    +0.000 A 
ATOM     16  C   UNL     1      46.218   1.437   7.987  0.00  0.00    +0.000 A 
ATOM     17  C   UNL     1      47.244   0.853   7.248  0.00  0.00    +0.000 A 
ATOM     18  N   UNL     1      48.112   1.639   6.569  0.00  0.00    +0.000 NA
ATOM     19  C   UNL     1      47.937   2.976   6.646  0.00  0.00    +0.000 A 
ATOM     20  N   UNL     1      46.988   3.653   7.319  0.00  0.00    +0.000 NA
ATOM     21  C   UNL     1      46.154   2.821   7.971  0.00  0.00    +0.000 A 
ENDBRANCH  12  13
ENDBRANCH   5  12
TORSDOF 5
ENDMDL
MODEL 5
REMARK VINA RESULT:    -6.138      2.777      4.459
REMARK INTER + INTRA:          -8.048
REMARK INTER:                  -7.577
REMARK INTRA:                  -0.471
REMARK UNBOUND:                -0.295
REMARK  Name = 
REMARK  5 active torsions:
REMARK  status: ('A' for Active; 'I' for Inactive)
REMARK    1  A    between atoms: N_1  and  C_2
REMARK    2  A    between atoms: C_2  and  C_3
REMARK    3  A    between atoms: C_3  and  C_4
REMARK    4  A    between atoms: C_8  and  C_9
REMARK    5  A    between atoms: C_9  and  N_10
REMARK                            x       y       z     vdW  Elec       q    Type
REMARK                         _______ _______ _______ _____ _____    ______ ____
ROOT
ATOM      1  C   UNL     1      48.373   7.477  12.173  0.00  0.00    +0.000 A 
ATOM      2  C   UNL     1      48.775   6.686  13.244  0.00  0.00    +0.000 A 
ATOM      3  N   UNL     1      47.962   5.822  13.890  0.00  0.00    +0.000 NA
ATOM      4  C   UNL     1      46.692   5.725  13.439  0.00  0.00    +0.000 A 
ATOM      5  C   UNL     1      46.178   6.469  12.383  0.00  0.00    +0.000 A 
ATOM      6  C   UNL     1      47.042   7.374  11.756  0.00  0.00    +0.000 A 
ENDROOT
BRANCH   1   7
ATOM      7  C   UNL     1      49.341   8.398  11.478  0.00  0.00    +0.000 C 
BRANCH   7   8
ATOM      8  C   UNL     1      50.796   8.152  11.888  0.00  0.00    +0.000 C 
BRANCH   8   9
ATOM      9  N   UNL     1      51.481   7.321  10.898  0.00  0.00    +0.000 NA
ATOM     10  H   UNL     1      51.642   6.393  11.289  0.00  0.00    +0.000 HD
ATOM     11  H   UNL     1      52.403   7.709  10.701  0.00  0.00    +0.000 HD
ENDBRANCH   8   9
ENDBRANCH   7   8
ENDBRANCH   1   7
BRANCH   5  12
ATOM     12  C   UNL     1      44.760   6.285  11.926  0.00  0.00    +0.000 C 
BRANCH  12  13
ATOM     13  N   UNL     1      44.470   4.906  11.553  0.00  0.00    +0.000 N 
ATOM     14  C   UNL     1      43.693   4.031  12.280  0.00  0.00    +0.000 A 
ATOM     15  C   UNL     1      43.534   2.881  11.537  0.00  0.00    +0.000 A 
ATOM     16  C   UNL     1      44.226   3.068  10.311  0.00  0.00    +0.000 A 
ATOM     17  C   UNL     1      44.420   2.333   9.145  0.00  0.00    +0.000 A 
ATOM     18  N   UNL     1      45.150   2.860   8.134  0.00  0.00    +0.000 NA
ATOM     19  C   UNL     1      45.663   4.097   8.311  0.00  0.00    +0.000 A 
ATOM     20  N   UNL     1      45.541   4.900   9.384  0.00  0.00    +0.000 NA
ATOM     21  C   UNL     1      44.805   4.326  10.354  0.00  0.00    +0.000 A 
ENDBRANCH  12  13
ENDBRANCH   5  12
TORSDOF 5
ENDMDL
MODEL 6
REMARK VINA RESULT:    -6.109      2.998      6.387
REMARK INTER + INTRA:          -8.011
REMARK INTER:                  -7.461
REMARK INTRA:                  -0.550
REMARK UNBOUND:                -0.295
REMARK  Name = 
REMARK  5 active torsions:
REMARK  status: ('A' for Active; 'I' for Inactive)
REMARK    1  A    between atoms: N_1  and  C_2
REMARK    2  A    between atoms: C_2  and  C_3
REMARK    3  A    between atoms: C_3  and  C_4
REMARK    4  A    between atoms: C_8  and  C_9
REMARK    5  A    between atoms: C_9  and  N_10
REMARK                            x       y       z     vdW  Elec       q    Type
REMARK                         _______ _______ _______ _____ _____    ______ ____
ROOT
ATOM      1  C   UNL     1      44.431   3.943   9.764  0.00  0.00    +0.000 A 
ATOM      2  C   UNL     1      43.950   2.782  10.358  0.00  0.00    +0.000 A 
ATOM      3  N   UNL     1      43.690   2.663  11.679  0.00  0.00    +0.000 NA
ATOM      4  C   UNL     1      43.901   3.756  12.444  0.00  0.00    +0.000 A 
ATOM      5  C   UNL     1      44.385   4.967  11.961  0.00  0.00    +0.000 A 
ATOM      6  C   UNL     1      44.669   5.044  10.592  0.00  0.00    +0.000 A 
ENDROOT
BRANCH   1   7
ATOM      7  C   UNL     1      44.670   4.017   8.279  0.00  0.00    +0.000 C 
BRANCH   7   8
ATOM      8  C   UNL     1      45.962   3.316   7.848  0.00  0.00    +0.000 C 
BRANCH   8   9
ATOM      9  N   UNL     1      46.883   4.265   7.223  0.00  0.00    +0.000 NA
ATOM     10  H   UNL     1      47.127   3.935   6.290  0.00  0.00    +0.000 HD
ATOM     11  H   UNL     1      47.755   4.296   7.749  0.00  0.00    +0.000 HD
ENDBRANCH   8   9
ENDBRANCH   7   8
ENDBRANCH   1   7
BRANCH   5  12
ATOM     12  C   UNL     1      44.569   6.145  12.874  0.00  0.00    +0.000 C 
BRANCH  12  13
ATOM     13  N   UNL     1      45.949   6.613  12.907  0.00  0.00    +0.000 N 
ATOM     14  C   UNL     1      47.055   5.816  13.107  0.00  0.00    +0.000 A 
ATOM     15  C   UNL     1      48.180   6.592  12.925  0.00  0.00    +0.000 A 
ATOM     16  C   UNL     1      47.742   7.901  12.590  0.00  0.00    +0.000 A 
ATOM     17  C   UNL     1      48.351   9.108  12.255  0.00  0.00    +0.000 A 
ATOM     18  N   UNL     1      47.585  10.186  11.964  0.00  0.00    +0.000 NA
ATOM     19  C   UNL     1      46.244  10.034  12.015  0.00  0.00    +0.000 A 
ATOM     20  N   UNL     1      45.546   8.925  12.321  0.00  0.00    +0.000 NA
ATOM     21  C   UNL     1      46.357   7.887  12.597  0.00  0.00    +0.000 A 
ENDBRANCH  12  13
ENDBRANCH   5  12
TORSDOF 5
ENDMDL
MODEL 7
REMARK VINA RESULT:    -6.103      1.822      3.705
REMARK INTER + INTRA:          -8.003
REMARK INTER:                  -7.447
REMARK INTRA:                  -0.556
REMARK UNBOUND:                -0.295
REMARK  Name = 
REMARK  5 active torsions:
REMARK  status: ('A' for Active; 'I' for Inactive)
REMARK    1  A    between atoms: N_1  and  C_2
REMARK    2  A    between atoms: C_2  and  C_3
REMARK    3  A    between atoms: C_3  and  C_4
REMARK    4  A    between atoms: C_8  and  C_9
REMARK    5  A    between atoms: C_9  and  N_10
REMARK                            x       y       z     vdW  Elec       q    Type
REMARK                         _______ _______ _______ _____ _____    ______ ____
ROOT
ATOM      1  C   UNL     1      47.443   6.134  14.058  0.00  0.00    +0.000 A 
ATOM      2  C   UNL     1      48.129   7.208  13.501  0.00  0.00    +0.000 A 
ATOM      3  N   UNL     1      47.672   7.936  12.458  0.00  0.00    +0.000 NA
ATOM      4  C   UNL     1      46.467   7.591  11.955  0.00  0.00    +0.000 A 
ATOM      5  C   UNL     1      45.695   6.534  12.424  0.00  0.00    +0.000 A 
ATOM      6  C   UNL     1      46.214   5.786  13.488  0.00  0.00    +0.000 A 
ENDROOT
BRANCH   1   7
ATOM      7  C   UNL     1      47.997   5.385  15.241  0.00  0.00    +0.000 C 
BRANCH   7   8
ATOM      8  C   UNL     1      47.175   4.142  15.597  0.00  0.00    +0.000 C 
BRANCH   8   9
ATOM      9  N   UNL     1      47.817   2.931  15.087  0.00  0.00    +0.000 NA
ATOM     10  H   UNL     1      48.304   2.460  15.848  0.00  0.00    +0.000 HD
ATOM     11  H   UNL     1      48.532   3.181  14.405  0.00  0.00    +0.000 HD
ENDBRANCH   8   9
ENDBRANCH   7   8
ENDBRANCH   1   7
BRANCH   5  12
ATOM     12  C   UNL     1      44.353   6.231  11.826  0.00  0.00    +0.000 C 
BRANCH  12  13
ATOM     13  N   UNL     1      44.204   4.823  11.478  0.00  0.00    +0.000 N 
ATOM     14  C   UNL     1      43.445   3.907  12.173  0.00  0.00    +0.000 A 
ATOM     15  C   UNL     1      43.436   2.728  11.459  0.00  0.00    +0.000 A 
ATOM     16  C   UNL     1      44.202   2.939  10.282  0.00  0.00    +0.000 A 
ATOM     17  C   UNL     1      44.544   2.191   9.158  0.00  0.00    +0.000 A 
ATOM     18  N   UNL     1      45.304   2.749   8.188  0.00  0.00    +0.000 NA
ATOM     19  C   UNL     1      45.703   4.028   8.362  0.00  0.00    +0.000 A 
ATOM     20  N   UNL     1      45.435   4.847   9.395  0.00  0.00    +0.000 NA
ATOM     21  C   UNL     1      44.675   4.241  10.326  0.00  0.00    +0.000 A 
ENDBRANCH  12  13
ENDBRANCH   5  12
TORSDOF 5
ENDMDL
MODEL 8
REMARK VINA RESULT:    -5.926      2.784      6.038
REMARK INTER + INTRA:          -7.779
REMARK INTER:                  -7.306
REMARK INTRA:                  -0.473
REMARK UNBOUND:                -0.295
REMARK  Name = 
REMARK  5 active torsions:
REMARK  status: ('A' for Active; 'I' for Inactive)
REMARK    1  A    between atoms: N_1  and  C_2
REMARK    2  A    between atoms: C_2  and  C_3
REMARK    3  A    between atoms: C_3  and  C_4
REMARK    4  A    between atoms: C_8  and  C_9
REMARK    5  A    between atoms: C_9  and  N_10
REMARK                            x       y       z     vdW  Elec       q    Type
REMARK                         _______ _______ _______ _____ _____    ______ ____
ROOT
ATOM      1  C   UNL     1      44.645   3.867   9.854  0.00  0.00    +0.000 A 
ATOM      2  C   UNL     1      43.766   2.871  10.265  0.00  0.00    +0.000 A 
ATOM      3  N   UNL     1      43.479   2.604  11.558  0.00  0.00    +0.000 NA
ATOM      4  C   UNL     1      44.082   3.376  12.488  0.00  0.00    +0.000 A 
ATOM      5  C   UNL     1      44.983   4.395  12.196  0.00  0.00    +0.000 A 
ATOM      6  C   UNL     1      45.276   4.623  10.846  0.00  0.00    +0.000 A 
ENDROOT
BRANCH   1   7
ATOM      7  C   UNL     1      44.895   4.130   8.392  0.00  0.00    +0.000 C 
BRANCH   7   8
ATOM      8  C   UNL     1      46.048   3.297   7.825  0.00  0.00    +0.000 C 
BRANCH   8   9
ATOM      9  N   UNL     1      46.854   4.091   6.897  0.00  0.00    +0.000 NA
ATOM     10  H   UNL     1      46.748   3.719   5.954  0.00  0.00    +0.000 HD
ATOM     11  H   UNL     1      47.841   3.996   7.131  0.00  0.00    +0.000 HD
ENDBRANCH   8   9
ENDBRANCH   7   8
ENDBRANCH   1   7
BRANCH   5  12
ATOM     12  C   UNL     1      45.592   5.224  13.288  0.00  0.00    +0.000 C 
BRANCH  12  13
ATOM     13  N   UNL     1      45.953   6.562  12.835  0.00  0.00    +0.000 N 
ATOM     14  C   UNL     1      45.069   7.596  12.620  0.00  0.00    +0.000 A 
ATOM     15  C   UNL     1      45.797   8.733  12.343  0.00  0.00    +0.000 A 
ATOM     16  C   UNL     1      47.172   8.381  12.405  0.00  0.00    +0.000 A 
ATOM     17  C   UNL     1      48.387   9.049  12.270  0.00  0.00    +0.000 A 
ATOM     18  N   UNL     1      49.546   8.367  12.423  0.00  0.00    +0.000 NA
ATOM     19  C   UNL     1      49.465   7.048  12.703  0.00  0.00    +0.000 A 
ATOM     20  N   UNL     1      48.358   6.300  12.861  0.00  0.00    +0.000 NA
ATOM     21  C   UNL     1      47.238   7.029  12.701  0.00  0.00    +0.000 A 
ENDBRANCH  12  13
ENDBRANCH   5  12
TORSDOF 5
ENDMDL
MODEL 9
REMARK VINA RESULT:    -5.799      1.707      6.244
REMARK INTER + INTRA:          -7.619
REMARK INTER:                  -7.588
REMARK INTRA:                  -0.031
REMARK UNBOUND:                -0.295
REMARK  Name = 
REMARK  5 active torsions:
REMARK  status: ('A' for Active; 'I' for Inactive)
REMARK    1  A    between atoms: N_1  and  C_2
REMARK    2  A    between atoms: C_2  and  C_3
REMARK    3  A    between atoms: C_3  and  C_4
REMARK    4  A    between atoms: C_8  and  C_9
REMARK    5  A    between atoms: C_9  and  N_10
REMARK                            x       y       z     vdW  Elec       q    Type
REMARK                         _______ _______ _______ _____ _____    ______ ____
ROOT
ATOM      1  C   UNL     1      46.103   2.378   6.828  0.00  0.00    +0.000 A 
ATOM      2  C   UNL     1      46.225   1.263   7.649  0.00  0.00    +0.000 A 
ATOM      3  N   UNL     1      45.719   1.187   8.899  0.00  0.00    +0.000 NA
ATOM      4  C   UNL     1      45.043   2.266   9.351  0.00  0.00    +0.000 A 
ATOM      5  C   UNL     1      44.864   3.438   8.624  0.00  0.00    +0.000 A 
ATOM      6  C   UNL     1      45.426   3.489   7.342  0.00  0.00    +0.000 A 
ENDROOT
BRANCH   1   7
ATOM      7  C   UNL     1      46.665   2.383   5.431  0.00  0.00    +0.000 C 
BRANCH   7   8
ATOM      8  C   UNL     1      48.076   2.976   5.359  0.00  0.00    +0.000 C 
BRANCH   8   9
ATOM      9  N   UNL     1      48.919   2.441   6.428  0.00  0.00    +0.000 NA
ATOM     10  H   UNL     1      49.335   1.562   6.123  0.00  0.00    +0.000 HD
ATOM     11  H   UNL     1      48.345   2.216   7.239  0.00  0.00    +0.000 HD
ENDBRANCH   8   9
ENDBRANCH   7   8
ENDBRANCH   1   7
BRANCH   5  12
ATOM     12  C   UNL     1      44.079   4.586   9.188  0.00  0.00    +0.000 C 
BRANCH  12  13
ATOM     13  N   UNL     1      44.115   4.622  10.645  0.00  0.00    +0.000 N 
ATOM     14  C   UNL     1      43.263   3.933  11.480  0.00  0.00    +0.000 A 
ATOM     15  C   UNL     1      43.702   4.104  12.775  0.00  0.00    +0.000 A 
ATOM     16  C   UNL     1      44.868   4.913  12.725  0.00  0.00    +0.000 A 
ATOM     17  C   UNL     1      45.788   5.408  13.646  0.00  0.00    +0.000 A 
ATOM     18  N   UNL     1      46.830   6.158  13.216  0.00  0.00    +0.000 NA
ATOM     19  C   UNL     1      46.926   6.393  11.889  0.00  0.00    +0.000 A 
ATOM     20  N   UNL     1      46.107   5.969  10.909  0.00  0.00    +0.000 NA
ATOM     21  C   UNL     1      45.094   5.228  11.394  0.00  0.00    +0.000 A 
ENDBRANCH  12  13
ENDBRANCH   5  12
TORSDOF 5
ENDMDL
