MODEL 1
REMARK VINA RESULT:    -8.049      0.000      0.000
REMARK INTER + INTRA:         -12.070
REMARK INTER:                 -10.873
REMARK INTRA:                  -1.197
REMARK UNBOUND:                -1.197
REMARK  Name = 
REMARK  10 active torsions:
REMARK  status: ('A' for Active; 'I' for Inactive)
REMARK    1  A    between atoms: C_1  and  C_2
REMARK    2  A    between atoms: N_4  and  C_5
REMARK    3  A    between atoms: C_9  and  C_10
REMARK    4  A    between atoms: C_10  and  C_11
REMARK    5  A    between atoms: C_10  and  C_12
REMARK    6  A    between atoms: C_10  and  C_13
REMARK    7  A    between atoms: C_13  and  N_14
REMARK    8  A    between atoms: N_14  and  C_15
REMARK    9  A    between atoms: C_18  and  C_19
REMARK   10  A    between atoms: C_26  and  C_27
REMARK                            x       y       z     vdW  Elec       q    Type
REMARK                         _______ _______ _______ _____ _____    ______ ____
ROOT
ATOM      1  C   UNL     1      43.704   5.562  12.023  0.00  0.00    +0.000 C 
ATOM      2  C   UNL     1      42.709   5.386  13.198  0.00  0.00    +0.000 C 
ATOM      3  C   UNL     1      43.503   6.951  11.379  0.00  0.00    +0.000 C 
ENDROOT
BRANCH   1   8
ATOM      4  C   UNL     1      47.178   6.645  13.363  0.00  0.00    +0.000 A 
ATOM      5  C   UNL     1      47.677   5.421  13.817  0.00  0.00    +0.000 A 
ATOM      6  C   UNL     1      46.963   4.236  13.647  0.00  0.00    +0.000 A 
ATOM      7  C   UNL     1      45.707   4.254  13.041  0.00  0.00    +0.000 A 
ATOM      8  C   UNL     1      45.145   5.455  12.587  0.00  0.00    +0.000 A 
ATOM      9  C   UNL     1      45.930   6.622  12.720  0.00  0.00    +0.000 A 
BRANCH   4  13
ATOM     10  C   UNL     1      50.202   7.631  11.372  0.00  0.00    +0.000 C 
ATOM     11  C   UNL     1      50.096   8.509  12.619  0.00  0.00    +0.000 C 
ATOM     12  C   UNL     1      49.344   7.833  13.782  0.00  0.00    +0.000 C 
ATOM     13  N   UNL     1      47.896   7.811  13.548  0.00  0.00    +0.000 N 
ATOM     14  C   UNL     1      47.322   9.111  13.161  0.00  0.00    +0.000 C 
ATOM     15  C   UNL     1      48.131   9.740  12.004  0.00  0.00    +0.000 C 
ATOM     16  C   UNL     1      47.661  11.164  11.732  0.00  0.00    +0.000 C 
ATOM     17  O   UNL     1      49.539   9.800  12.302  0.00  0.00    +0.000 OA
ENDBRANCH   4  13
ENDBRANCH   1   8
BRANCH   1  18
ATOM     18  C   UNL     1      43.411   4.448  10.971  0.00  0.00    +0.000 C 
BRANCH  18  19
ATOM     19  N   UNL     1      43.798   4.796   9.596  0.00  0.00    +0.000 N 
ATOM     20  H   UNL     1      44.156   5.744   9.514  0.00  0.00    +0.000 HD
BRANCH  19  21
ATOM     21  C   UNL     1      44.641   3.885   8.936  0.00  0.00    +0.000 A 
ATOM     22  C   UNL     1      45.655   4.280   8.057  0.00  0.00    +0.000 A 
ATOM     23  C   UNL     1      46.502   3.339   7.479  0.00  0.00    +0.000 A 
ATOM     24  C   UNL     1      46.336   2.008   7.823  0.00  0.00    +0.000 A 
ATOM     25  N   UNL     1      45.394   1.564   8.700  0.00  0.00    +0.000 NA
ATOM     26  C   UNL     1      44.594   2.517   9.239  0.00  0.00    +0.000 A 
BRANCH  24  27
ATOM     27  C   UNL     1      47.241   0.979   7.226  0.00  0.00    +0.000 C 
ATOM     28  N   UNL     1      46.943  -0.315   7.538  0.00  0.00    +0.000 N 
ATOM     29  O   UNL     1      48.191   1.271   6.506  0.00  0.00    +0.000 OA
ATOM     30  H   UNL     1      46.162  -0.517   8.152  0.00  0.00    +0.000 HD
ATOM     31  H   UNL     1      47.524  -1.062   7.183  0.00  0.00    +0.000 HD
ENDBRANCH  24  27
ENDBRANCH  19  21
ENDBRANCH  18  19
ENDBRANCH   1  18
TORSDOF 6
ENDMDL
MODEL 2
REMARK VINA RESULT:    -8.001      1.378      2.109
REMARK INTER + INTRA:         -12.004
REMARK INTER:                 -10.903
REMARK INTRA:                  -1.101
REMARK UNBOUND:                -1.197
REMARK  Name = 
REMARK  10 active torsions:
REMARK  status: ('A' for Active; 'I' for Inactive)
REMARK    1  A    between atoms: C_1  and  C_2
REMARK    2  A    between atoms: N_4  and  C_5
REMARK    3  A    between atoms: C_9  and  C_10
REMARK    4  A    between atoms: C_10  and  C_11
REMARK    5  A    between atoms: C_10  and  C_12
REMARK    6  A    between atoms: C_10  and  C_13
REMARK    7  A    between atoms: C_13  and  N_14
REMARK    8  A    between atoms: N_14  and  C_15
REMARK    9  A    between atoms: C_18  and  C_19
REMARK   10  A    between atoms: C_26  and  C_27
REMARK                            x       y       z     vdW  Elec       q    Type
REMARK                         _______ _______ _______ _____ _____    ______ ____
ROOT
ATOM      1  C   UNL     1      43.973   4.888  12.133  0.00  0.00    +0.000 C 
ATOM      2  C   UNL     1      43.004   4.821  13.340  0.00  0.00    +0.000 C 
ATOM      3  C   UNL     1      43.492   5.972  11.143  0.00  0.00    +0.000 C 
ENDROOT
BRANCH   1   8
ATOM      4  C   UNL     1      47.322   6.800  12.539  0.00  0.00    +0.000 A 
ATOM      5  C   UNL     1      47.840   6.181  13.679  0.00  0.00    +0.000 A 
ATOM      6  C   UNL     1      47.183   5.115  14.291  0.00  0.00    +0.000 A 
ATOM      7  C   UNL     1      45.964   4.662  13.789  0.00  0.00    +0.000 A 
ATOM      8  C   UNL     1      45.382   5.259  12.662  0.00  0.00    +0.000 A 
ATOM      9  C   UNL     1      46.114   6.292  12.035  0.00  0.00    +0.000 A 
BRANCH   4  13
ATOM     10  C   UNL     1      48.767   9.716  14.407  0.00  0.00    +0.000 C 
ATOM     11  C   UNL     1      48.703  10.040  12.915  0.00  0.00    +0.000 C 
ATOM     12  C   UNL     1      47.603   9.262  12.166  0.00  0.00    +0.000 C 
ATOM     13  N   UNL     1      47.983   7.861  11.951  0.00  0.00    +0.000 N 
ATOM     14  C   UNL     1      49.325   7.677  11.371  0.00  0.00    +0.000 C 
ATOM     15  C   UNL     1      50.374   8.494  12.158  0.00  0.00    +0.000 C 
ATOM     16  C   UNL     1      51.723   8.460  11.448  0.00  0.00    +0.000 C 
ATOM     17  O   UNL     1      49.991   9.877  12.290  0.00  0.00    +0.000 OA
ENDBRANCH   4  13
ENDBRANCH   1   8
BRANCH   1  18
ATOM     18  C   UNL     1      43.967   3.496  11.430  0.00  0.00    +0.000 C 
BRANCH  18  19
ATOM     19  N   UNL     1      43.669   3.543   9.991  0.00  0.00    +0.000 N 
ATOM     20  H   UNL     1      43.234   4.417   9.706  0.00  0.00    +0.000 HD
BRANCH  19  21
ATOM     21  C   UNL     1      44.721   3.203   9.123  0.00  0.00    +0.000 A 
ATOM     22  C   UNL     1      45.230   1.905   9.011  0.00  0.00    +0.000 A 
ATOM     23  C   UNL     1      46.229   1.610   8.089  0.00  0.00    +0.000 A 
ATOM     24  C   UNL     1      46.682   2.627   7.264  0.00  0.00    +0.000 A 
ATOM     25  N   UNL     1      46.201   3.899   7.298  0.00  0.00    +0.000 NA
ATOM     26  C   UNL     1      45.227   4.139   8.211  0.00  0.00    +0.000 A 
BRANCH  24  27
ATOM     27  C   UNL     1      47.746   2.333   6.257  0.00  0.00    +0.000 C 
ATOM     28  N   UNL     1      47.738   3.127   5.148  0.00  0.00    +0.000 N 
ATOM     29  O   UNL     1      48.572   1.438   6.408  0.00  0.00    +0.000 OA
ATOM     30  H   UNL     1      47.028   3.843   5.047  0.00  0.00    +0.000 HD
ATOM     31  H   UNL     1      48.419   2.973   4.417  0.00  0.00    +0.000 HD
ENDBRANCH  24  27
ENDBRANCH  19  21
ENDBRANCH  18  19
ENDBRANCH   1  18
TORSDOF 6
ENDMDL
MODEL 3
REMARK VINA RESULT:    -7.883      1.508      2.186
REMARK INTER + INTRA:         -11.845
REMARK INTER:                 -10.858
REMARK INTRA:                  -0.987
REMARK UNBOUND:                -1.197
REMARK  Name = 
REMARK  10 active torsions:
REMARK  status: ('A' for Active; 'I' for Inactive)
REMARK    1  A    between atoms: C_1  and  C_2
REMARK    2  A    between atoms: N_4  and  C_5
REMARK    3  A    between atoms: C_9  and  C_10
REMARK    4  A    between atoms: C_10  and  C_11
REMARK    5  A    between atoms: C_10  and  C_12
REMARK    6  A    between atoms: C_10  and  C_13
REMARK    7  A    between atoms: C_13  and  N_14
REMARK    8  A    between atoms: N_14  and  C_15
REMARK    9  A    between atoms: C_18  and  C_19
REMARK   10  A    between atoms: C_26  and  C_27
REMARK                            x       y       z     vdW  Elec       q    Type
REMARK                         _______ _______ _______ _____ _____    ______ ____
ROOT
ATOM      1  C   UNL     1      44.152   4.888  12.124  0.00  0.00    +0.000 C 
ATOM      2  C   UNL     1      45.263   3.851  12.425  0.00  0.00    +0.000 C 
ATOM      3  C   UNL     1      43.019   4.749  13.164  0.00  0.00    +0.000 C 
ENDROOT
BRANCH   1   8
ATOM      4  C   UNL     1      46.650   7.717  13.021  0.00  0.00    +0.000 A 
ATOM      5  C   UNL     1      46.122   8.776  12.278  0.00  0.00    +0.000 A 
ATOM      6  C   UNL     1      44.945   8.638  11.547  0.00  0.00    +0.000 A 
ATOM      7  C   UNL     1      44.278   7.413  11.515  0.00  0.00    +0.000 A 
ATOM      8  C   UNL     1      44.772   6.306  12.220  0.00  0.00    +0.000 A 
ATOM      9  C   UNL     1      45.932   6.509  13.001  0.00  0.00    +0.000 A 
BRANCH   4  13
ATOM     10  C   UNL     1      50.039   8.177  11.479  0.00  0.00    +0.000 C 
ATOM     11  C   UNL     1      50.189   7.835  12.961  0.00  0.00    +0.000 C 
ATOM     12  C   UNL     1      49.005   7.026  13.525  0.00  0.00    +0.000 C 
ATOM     13  N   UNL     1      47.823   7.871  13.733  0.00  0.00    +0.000 N 
ATOM     14  C   UNL     1      48.087   9.113  14.479  0.00  0.00    +0.000 C 
ATOM     15  C   UNL     1      49.293   9.866  13.872  0.00  0.00    +0.000 C 
ATOM     16  C   UNL     1      49.688  11.045  14.753  0.00  0.00    +0.000 C 
ATOM     17  O   UNL     1      50.449   9.016  13.745  0.00  0.00    +0.000 OA
ENDBRANCH   4  13
ENDBRANCH   1   8
BRANCH   1  18
ATOM     18  C   UNL     1      43.593   4.598  10.697  0.00  0.00    +0.000 C 
BRANCH  18  19
ATOM     19  N   UNL     1      43.794   3.216  10.236  0.00  0.00    +0.000 N 
ATOM     20  H   UNL     1      42.921   2.736  10.035  0.00  0.00    +0.000 HD
BRANCH  19  21
ATOM     21  C   UNL     1      44.717   3.034   9.191  0.00  0.00    +0.000 A 
ATOM     22  C   UNL     1      45.230   4.089   8.431  0.00  0.00    +0.000 A 
ATOM     23  C   UNL     1      46.190   3.859   7.450  0.00  0.00    +0.000 A 
ATOM     24  C   UNL     1      46.647   2.564   7.271  0.00  0.00    +0.000 A 
ATOM     25  N   UNL     1      46.216   1.501   8.003  0.00  0.00    +0.000 NA
ATOM     26  C   UNL     1      45.283   1.775   8.949  0.00  0.00    +0.000 A 
BRANCH  24  27
ATOM     27  C   UNL     1      47.687   2.293   6.232  0.00  0.00    +0.000 C 
ATOM     28  N   UNL     1      47.694   3.151   5.172  0.00  0.00    +0.000 N 
ATOM     29  O   UNL     1      48.481   1.361   6.317  0.00  0.00    +0.000 OA
ATOM     30  H   UNL     1      47.010   3.898   5.125  0.00  0.00    +0.000 HD
ATOM     31  H   UNL     1      48.359   3.017   4.424  0.00  0.00    +0.000 HD
ENDBRANCH  24  27
ENDBRANCH  19  21
ENDBRANCH  18  19
ENDBRANCH   1  18
TORSDOF 6
ENDMDL
MODEL 4
REMARK VINA RESULT:    -7.827      2.255      3.512
REMARK INTER + INTRA:         -11.769
REMARK INTER:                 -10.914
REMARK INTRA:                  -0.855
REMARK UNBOUND:                -1.197
REMARK  Name = 
REMARK  10 active torsions:
REMARK  status: ('A' for Active; 'I' for Inactive)
REMARK    1  A    between atoms: C_1  and  C_2
REMARK    2  A    between atoms: N_4  and  C_5
REMARK    3  A    between atoms: C_9  and  C_10
REMARK    4  A    between atoms: C_10  and  C_11
REMARK    5  A    between atoms: C_10  and  C_12
REMARK    6  A    between atoms: C_10  and  C_13
REMARK    7  A    between atoms: C_13  and  N_14
REMARK    8  A    between atoms: N_14  and  C_15
REMARK    9  A    between atoms: C_18  and  C_19
REMARK   10  A    between atoms: C_26  and  C_27
REMARK                            x       y       z     vdW  Elec       q    Type
REMARK                         _______ _______ _______ _____ _____    ______ ____
ROOT
ATOM      1  C   UNL     1      44.323   4.940  12.256  0.00  0.00    +0.000 C 
ATOM      2  C   UNL     1      44.974   3.557  12.504  0.00  0.00    +0.000 C 
ATOM      3  C   UNL     1      43.047   5.074  13.116  0.00  0.00    +0.000 C 
ENDROOT
BRANCH   1   8
ATOM      4  C   UNL     1      47.391   6.616  13.936  0.00  0.00    +0.000 A 
ATOM      5  C   UNL     1      47.383   7.864  13.309  0.00  0.00    +0.000 A 
ATOM      6  C   UNL     1      46.380   8.220  12.408  0.00  0.00    +0.000 A 
ATOM      7  C   UNL     1      45.371   7.314  12.087  0.00  0.00    +0.000 A 
ATOM      8  C   UNL     1      45.340   6.037  12.666  0.00  0.00    +0.000 A 
ATOM      9  C   UNL     1      46.337   5.741  13.621  0.00  0.00    +0.000 A 
BRANCH   4  13
ATOM     10  C   UNL     1      48.533   8.758  16.796  0.00  0.00    +0.000 C 
ATOM     11  C   UNL     1      49.554   7.651  16.541  0.00  0.00    +0.000 C 
ATOM     12  C   UNL     1      49.553   7.140  15.087  0.00  0.00    +0.000 C 
ATOM     13  N   UNL     1      48.398   6.277  14.819  0.00  0.00    +0.000 N 
ATOM     14  C   UNL     1      48.192   5.208  15.811  0.00  0.00    +0.000 C 
ATOM     15  C   UNL     1      48.220   5.786  17.245  0.00  0.00    +0.000 C 
ATOM     16  C   UNL     1      48.202   4.663  18.276  0.00  0.00    +0.000 C 
ATOM     17  O   UNL     1      49.403   6.573  17.485  0.00  0.00    +0.000 OA
ENDBRANCH   4  13
ENDBRANCH   1   8
BRANCH   1  18
ATOM     18  C   UNL     1      43.948   5.035  10.745  0.00  0.00    +0.000 C 
BRANCH  18  19
ATOM     19  N   UNL     1      43.768   3.735  10.082  0.00  0.00    +0.000 N 
ATOM     20  H   UNL     1      42.853   3.634   9.651  0.00  0.00    +0.000 HD
BRANCH  19  21
ATOM     21  C   UNL     1      44.784   3.340   9.194  0.00  0.00    +0.000 A 
ATOM     22  C   UNL     1      45.209   2.015   9.059  0.00  0.00    +0.000 A 
ATOM     23  C   UNL     1      46.174   1.669   8.118  0.00  0.00    +0.000 A 
ATOM     24  C   UNL     1      46.678   2.666   7.298  0.00  0.00    +0.000 A 
ATOM     25  N   UNL     1      46.278   3.965   7.355  0.00  0.00    +0.000 NA
ATOM     26  C   UNL     1      45.334   4.254   8.285  0.00  0.00    +0.000 A 
BRANCH  24  27
ATOM     27  C   UNL     1      47.707   2.319   6.272  0.00  0.00    +0.000 C 
ATOM     28  N   UNL     1      47.734   3.127   5.174  0.00  0.00    +0.000 N 
ATOM     29  O   UNL     1      48.475   1.371   6.398  0.00  0.00    +0.000 OA
ATOM     30  H   UNL     1      47.070   3.890   5.093  0.00  0.00    +0.000 HD
ATOM     31  H   UNL     1      48.393   2.941   4.431  0.00  0.00    +0.000 HD
ENDBRANCH  24  27
ENDBRANCH  19  21
ENDBRANCH  18  19
ENDBRANCH   1  18
TORSDOF 6
ENDMDL
MODEL 5
REMARK VINA RESULT:    -7.134      3.238      7.734
REMARK INTER + INTRA:         -10.833
REMARK INTER:                  -9.762
REMARK INTRA:                  -1.071
REMARK UNBOUND:                -1.197
REMARK  Name = 
REMARK  10 active torsions:
REMARK  status: ('A' for Active; 'I' for Inactive)
REMARK    1  A    between atoms: C_1  and  C_2
REMARK    2  A    between atoms: N_4  and  C_5
REMARK    3  A    between atoms: C_9  and  C_10
REMARK    4  A    between atoms: C_10  and  C_11
REMARK    5  A    between atoms: C_10  and  C_12
REMARK    6  A    between atoms: C_10  and  C_13
REMARK    7  A    between atoms: C_13  and  N_14
REMARK    8  A    between atoms: N_14  and  C_15
REMARK    9  A    between atoms: C_18  and  C_19
REMARK   10  A    between atoms: C_26  and  C_27
REMARK                            x       y       z     vdW  Elec       q    Type
REMARK                         _______ _______ _______ _____ _____    ______ ____
ROOT
ATOM      1  C   UNL     1      49.243   8.506  12.363  0.00  0.00    +0.000 C 
ATOM      2  C   UNL     1      49.900   7.941  11.079  0.00  0.00    +0.000 C 
ATOM      3  C   UNL     1      49.502  10.026  12.451  0.00  0.00    +0.000 C 
ENDROOT
BRANCH   1   8
ATOM      4  C   UNL     1      45.890   6.589  12.006  0.00  0.00    +0.000 A 
ATOM      5  C   UNL     1      44.978   7.593  12.339  0.00  0.00    +0.000 A 
ATOM      6  C   UNL     1      45.395   8.895  12.610  0.00  0.00    +0.000 A 
ATOM      7  C   UNL     1      46.752   9.216  12.586  0.00  0.00    +0.000 A 
ATOM      8  C   UNL     1      47.716   8.245  12.282  0.00  0.00    +0.000 A 
ATOM      9  C   UNL     1      47.245   6.955  11.950  0.00  0.00    +0.000 A 
BRANCH   4  13
ATOM     10  C   UNL     1      42.293   5.546  11.783  0.00  0.00    +0.000 C 
ATOM     11  C   UNL     1      43.182   4.309  11.901  0.00  0.00    +0.000 C 
ATOM     12  C   UNL     1      44.520   4.582  12.617  0.00  0.00    +0.000 C 
ATOM     13  N   UNL     1      45.459   5.301  11.749  0.00  0.00    +0.000 N 
ATOM     14  C   UNL     1      45.625   4.712  10.410  0.00  0.00    +0.000 C 
ATOM     15  C   UNL     1      44.249   4.449   9.757  0.00  0.00    +0.000 C 
ATOM     16  C   UNL     1      44.411   3.665   8.460  0.00  0.00    +0.000 C 
ATOM     17  O   UNL     1      43.382   3.685  10.618  0.00  0.00    +0.000 OA
ENDBRANCH   4  13
ENDBRANCH   1   8
BRANCH   1  18
ATOM     18  C   UNL     1      49.887   7.792  13.591  0.00  0.00    +0.000 C 
BRANCH  18  19
ATOM     19  N   UNL     1      49.216   8.062  14.871  0.00  0.00    +0.000 N 
ATOM     20  H   UNL     1      48.423   8.691  14.777  0.00  0.00    +0.000 HD
BRANCH  19  21
ATOM     21  C   UNL     1      48.874   6.941  15.646  0.00  0.00    +0.000 A 
ATOM     22  C   UNL     1      48.996   6.908  17.039  0.00  0.00    +0.000 A 
ATOM     23  C   UNL     1      48.582   5.794  17.763  0.00  0.00    +0.000 A 
ATOM     24  C   UNL     1      48.017   4.735  17.073  0.00  0.00    +0.000 A 
ATOM     25  N   UNL     1      47.836   4.722  15.724  0.00  0.00    +0.000 NA
ATOM     26  C   UNL     1      48.252   5.829  15.061  0.00  0.00    +0.000 A 
BRANCH  24  27
ATOM     27  C   UNL     1      47.553   3.532  17.829  0.00  0.00    +0.000 C 
ATOM     28  N   UNL     1      48.301   3.204  18.922  0.00  0.00    +0.000 N 
ATOM     29  O   UNL     1      46.572   2.877  17.495  0.00  0.00    +0.000 OA
ATOM     30  H   UNL     1      49.118   3.756  19.157  0.00  0.00    +0.000 HD
ATOM     31  H   UNL     1      48.056   2.392  19.470  0.00  0.00    +0.000 HD
ENDBRANCH  24  27
ENDBRANCH  19  21
ENDBRANCH  18  19
ENDBRANCH   1  18
TORSDOF 6
ENDMDL
MODEL 6
REMARK VINA RESULT:    -7.016      3.040      7.788
REMARK INTER + INTRA:         -10.674
REMARK INTER:                  -9.471
REMARK INTRA:                  -1.202
REMARK UNBOUND:                -1.197
REMARK  Name = 
REMARK  10 active torsions:
REMARK  status: ('A' for Active; 'I' for Inactive)
REMARK    1  A    between atoms: C_1  and  C_2
REMARK    2  A    between atoms: N_4  and  C_5
REMARK    3  A    between atoms: C_9  and  C_10
REMARK    4  A    between atoms: C_10  and  C_11
REMARK    5  A    between atoms: C_10  and  C_12
REMARK    6  A    between atoms: C_10  and  C_13
REMARK    7  A    between atoms: C_13  and  N_14
REMARK    8  A    between atoms: N_14  and  C_15
REMARK    9  A    between atoms: C_18  and  C_19
REMARK   10  A    between atoms: C_26  and  C_27
REMARK                            x       y       z     vdW  Elec       q    Type
REMARK                         _______ _______ _______ _____ _____    ______ ____
ROOT
ATOM      1  C   UNL     1      46.099   6.523  12.006  0.00  0.00    +0.000 C 
ATOM      2  C   UNL     1      46.459   7.130  10.627  0.00  0.00    +0.000 C 
ATOM      3  C   UNL     1      45.281   7.547  12.824  0.00  0.00    +0.000 C 
ENDROOT
BRANCH   1   8
ATOM      4  C   UNL     1      44.595   3.430  10.214  0.00  0.00    +0.000 A 
ATOM      5  C   UNL     1      43.930   2.810  11.275  0.00  0.00    +0.000 A 
ATOM      6  C   UNL     1      43.886   3.387  12.543  0.00  0.00    +0.000 A 
ATOM      7  C   UNL     1      44.542   4.593  12.788  0.00  0.00    +0.000 A 
ATOM      8  C   UNL     1      45.246   5.250  11.768  0.00  0.00    +0.000 A 
ATOM      9  C   UNL     1      45.209   4.664  10.484  0.00  0.00    +0.000 A 
BRANCH   4  13
ATOM     10  C   UNL     1      47.064   4.287   7.522  0.00  0.00    +0.000 C 
ATOM     11  C   UNL     1      45.919   3.468   6.929  0.00  0.00    +0.000 C 
ATOM     12  C   UNL     1      44.599   3.603   7.714  0.00  0.00    +0.000 C 
ATOM     13  N   UNL     1      44.635   2.838   8.966  0.00  0.00    +0.000 N 
ATOM     14  C   UNL     1      45.083   1.443   8.815  0.00  0.00    +0.000 C 
ATOM     15  C   UNL     1      46.399   1.379   8.007  0.00  0.00    +0.000 C 
ATOM     16  C   UNL     1      46.760  -0.066   7.683  0.00  0.00    +0.000 C 
ATOM     17  O   UNL     1      46.298   2.088   6.757  0.00  0.00    +0.000 OA
ENDBRANCH   4  13
ENDBRANCH   1   8
BRANCH   1  18
ATOM     18  C   UNL     1      47.428   6.197  12.753  0.00  0.00    +0.000 C 
BRANCH  18  19
ATOM     19  N   UNL     1      47.499   6.722  14.124  0.00  0.00    +0.000 N 
ATOM     20  H   UNL     1      46.673   7.254  14.387  0.00  0.00    +0.000 HD
BRANCH  19  21
ATOM     21  C   UNL     1      47.839   5.800  15.130  0.00  0.00    +0.000 A 
ATOM     22  C   UNL     1      47.189   4.574  15.295  0.00  0.00    +0.000 A 
ATOM     23  C   UNL     1      47.608   3.671  16.267  0.00  0.00    +0.000 A 
ATOM     24  C   UNL     1      48.706   4.005  17.043  0.00  0.00    +0.000 A 
ATOM     25  N   UNL     1      49.404   5.165  16.906  0.00  0.00    +0.000 NA
ATOM     26  C   UNL     1      48.960   6.012  15.945  0.00  0.00    +0.000 A 
BRANCH  24  27
ATOM     27  C   UNL     1      49.184   3.047  18.085  0.00  0.00    +0.000 C 
ATOM     28  N   UNL     1      48.446   3.013  19.232  0.00  0.00    +0.000 N 
ATOM     29  O   UNL     1      50.173   2.339  17.931  0.00  0.00    +0.000 OA
ATOM     30  H   UNL     1      47.645   3.628  19.333  0.00  0.00    +0.000 HD
ATOM     31  H   UNL     1      48.721   2.401  19.987  0.00  0.00    +0.000 HD
ENDBRANCH  24  27
ENDBRANCH  19  21
ENDBRANCH  18  19
ENDBRANCH   1  18
TORSDOF 6
ENDMDL
MODEL 7
REMARK VINA RESULT:    -6.774      3.928      6.381
REMARK INTER + INTRA:         -10.347
REMARK INTER:                  -9.215
REMARK INTRA:                  -1.133
REMARK UNBOUND:                -1.197
REMARK  Name = 
REMARK  10 active torsions:
REMARK  status: ('A' for Active; 'I' for Inactive)
REMARK    1  A    between atoms: C_1  and  C_2
REMARK    2  A    between atoms: N_4  and  C_5
REMARK    3  A    between atoms: C_9  and  C_10
REMARK    4  A    between atoms: C_10  and  C_11
REMARK    5  A    between atoms: C_10  and  C_12
REMARK    6  A    between atoms: C_10  and  C_13
REMARK    7  A    between atoms: C_13  and  N_14
REMARK    8  A    between atoms: N_14  and  C_15
REMARK    9  A    between atoms: C_18  and  C_19
REMARK   10  A    between atoms: C_26  and  C_27
REMARK                            x       y       z     vdW  Elec       q    Type
REMARK                         _______ _______ _______ _____ _____    ______ ____
ROOT
ATOM      1  C   UNL     1      48.954   8.273  14.170  0.00  0.00    +0.000 C 
ATOM      2  C   UNL     1      48.472   9.657  13.668  0.00  0.00    +0.000 C 
ATOM      3  C   UNL     1      50.472   8.133  13.925  0.00  0.00    +0.000 C 
ENDROOT
BRANCH   1   8
ATOM      4  C   UNL     1      48.780   6.818  17.761  0.00  0.00    +0.000 A 
ATOM      5  C   UNL     1      48.405   7.953  18.485  0.00  0.00    +0.000 A 
ATOM      6  C   UNL     1      48.136   9.164  17.851  0.00  0.00    +0.000 A 
ATOM      7  C   UNL     1      48.268   9.277  16.468  0.00  0.00    +0.000 A 
ATOM      8  C   UNL     1      48.665   8.180  15.691  0.00  0.00    +0.000 A 
ATOM      9  C   UNL     1      48.864   6.955  16.366  0.00  0.00    +0.000 A 
BRANCH   4  13
ATOM     10  C   UNL     1      47.597   3.446  16.616  0.00  0.00    +0.000 C 
ATOM     11  C   UNL     1      48.105   3.354  18.054  0.00  0.00    +0.000 C 
ATOM     12  C   UNL     1      48.009   4.684  18.825  0.00  0.00    +0.000 C 
ATOM     13  N   UNL     1      49.052   5.628  18.407  0.00  0.00    +0.000 N 
ATOM     14  C   UNL     1      50.412   5.062  18.390  0.00  0.00    +0.000 C 
ATOM     15  C   UNL     1      50.435   3.724  17.617  0.00  0.00    +0.000 C 
ATOM     16  C   UNL     1      51.791   3.043  17.762  0.00  0.00    +0.000 C 
ATOM     17  O   UNL     1      49.437   2.805  18.102  0.00  0.00    +0.000 OA
ENDBRANCH   4  13
ENDBRANCH   1   8
BRANCH   1  18
ATOM     18  C   UNL     1      48.189   7.175  13.368  0.00  0.00    +0.000 C 
BRANCH  18  19
ATOM     19  N   UNL     1      46.728   7.218  13.522  0.00  0.00    +0.000 N 
ATOM     20  H   UNL     1      46.333   8.127  13.298  0.00  0.00    +0.000 HD
BRANCH  19  21
ATOM     21  C   UNL     1      46.003   6.190  12.894  0.00  0.00    +0.000 A 
ATOM     22  C   UNL     1      45.601   6.245  11.556  0.00  0.00    +0.000 A 
ATOM     23  C   UNL     1      44.941   5.172  10.966  0.00  0.00    +0.000 A 
ATOM     24  C   UNL     1      44.722   4.037  11.729  0.00  0.00    +0.000 A 
ATOM     25  N   UNL     1      45.121   3.907  13.024  0.00  0.00    +0.000 NA
ATOM     26  C   UNL     1      45.763   4.977  13.555  0.00  0.00    +0.000 A 
BRANCH  24  27
ATOM     27  C   UNL     1      44.026   2.866  11.116  0.00  0.00    +0.000 C 
ATOM     28  N   UNL     1      44.661   2.300  10.049  0.00  0.00    +0.000 N 
ATOM     29  O   UNL     1      42.954   2.439  11.533  0.00  0.00    +0.000 OA
ATOM     30  H   UNL     1      45.535   2.692   9.718  0.00  0.00    +0.000 HD
ATOM     31  H   UNL     1      44.238   1.514   9.574  0.00  0.00    +0.000 HD
ENDBRANCH  24  27
ENDBRANCH  19  21
ENDBRANCH  18  19
ENDBRANCH   1  18
TORSDOF 6
ENDMDL
MODEL 8
REMARK VINA RESULT:    -6.725      3.659      6.072
REMARK INTER + INTRA:         -10.281
REMARK INTER:                  -9.102
REMARK INTRA:                  -1.179
REMARK UNBOUND:                -1.197
REMARK  Name = 
REMARK  10 active torsions:
REMARK  status: ('A' for Active; 'I' for Inactive)
REMARK    1  A    between atoms: C_1  and  C_2
REMARK    2  A    between atoms: N_4  and  C_5
REMARK    3  A    between atoms: C_9  and  C_10
REMARK    4  A    between atoms: C_10  and  C_11
REMARK    5  A    between atoms: C_10  and  C_12
REMARK    6  A    between atoms: C_10  and  C_13
REMARK    7  A    between atoms: C_13  and  N_14
REMARK    8  A    between atoms: N_14  and  C_15
REMARK    9  A    between atoms: C_18  and  C_19
REMARK   10  A    between atoms: C_26  and  C_27
REMARK                            x       y       z     vdW  Elec       q    Type
REMARK                         _______ _______ _______ _____ _____    ______ ____
ROOT
ATOM      1  C   UNL     1      48.476   8.307  12.862  0.00  0.00    +0.000 C 
ATOM      2  C   UNL     1      49.178   9.516  12.194  0.00  0.00    +0.000 C 
ATOM      3  C   UNL     1      49.160   6.997  12.411  0.00  0.00    +0.000 C 
ENDROOT
BRANCH   1   8
ATOM      4  C   UNL     1      49.073   7.358  16.575  0.00  0.00    +0.000 A 
ATOM      5  C   UNL     1      49.105   8.623  17.166  0.00  0.00    +0.000 A 
ATOM      6  C   UNL     1      48.871   9.780  16.425  0.00  0.00    +0.000 A 
ATOM      7  C   UNL     1      48.630   9.698  15.054  0.00  0.00    +0.000 A 
ATOM      8  C   UNL     1      48.610   8.457  14.400  0.00  0.00    +0.000 A 
ATOM      9  C   UNL     1      48.787   7.307  15.201  0.00  0.00    +0.000 A 
BRANCH   4  13
ATOM     10  C   UNL     1      47.484   6.607  19.890  0.00  0.00    +0.000 C 
ATOM     11  C   UNL     1      48.674   5.676  19.665  0.00  0.00    +0.000 C 
ATOM     12  C   UNL     1      49.745   6.265  18.727  0.00  0.00    +0.000 C 
ATOM     13  N   UNL     1      49.316   6.223  17.324  0.00  0.00    +0.000 N 
ATOM     14  C   UNL     1      48.811   4.913  16.881  0.00  0.00    +0.000 C 
ATOM     15  C   UNL     1      47.755   4.373  17.872  0.00  0.00    +0.000 C 
ATOM     16  C   UNL     1      47.375   2.939  17.523  0.00  0.00    +0.000 C 
ATOM     17  O   UNL     1      48.242   4.372  19.229  0.00  0.00    +0.000 OA
ENDBRANCH   4  13
ENDBRANCH   1   8
BRANCH   1  18
ATOM     18  C   UNL     1      46.984   8.304  12.409  0.00  0.00    +0.000 C 
BRANCH  18  19
ATOM     19  N   UNL     1      46.089   7.520  13.273  0.00  0.00    +0.000 N 
ATOM     20  H   UNL     1      45.391   8.092  13.742  0.00  0.00    +0.000 HD
BRANCH  19  21
ATOM     21  C   UNL     1      45.497   6.384  12.694  0.00  0.00    +0.000 A 
ATOM     22  C   UNL     1      45.169   6.301  11.337  0.00  0.00    +0.000 A 
ATOM     23  C   UNL     1      44.644   5.129  10.803  0.00  0.00    +0.000 A 
ATOM     24  C   UNL     1      44.485   4.038  11.642  0.00  0.00    +0.000 A 
ATOM     25  N   UNL     1      44.820   4.044  12.961  0.00  0.00    +0.000 NA
ATOM     26  C   UNL     1      45.331   5.207  13.436  0.00  0.00    +0.000 A 
BRANCH  24  27
ATOM     27  C   UNL     1      43.934   2.764  11.089  0.00  0.00    +0.000 C 
ATOM     28  N   UNL     1      44.593   2.261  10.006  0.00  0.00    +0.000 N 
ATOM     29  O   UNL     1      42.954   2.204  11.569  0.00  0.00    +0.000 OA
ATOM     30  H   UNL     1      45.388   2.762   9.624  0.00  0.00    +0.000 HD
ATOM     31  H   UNL     1      44.265   1.411   9.570  0.00  0.00    +0.000 HD
ENDBRANCH  24  27
ENDBRANCH  19  21
ENDBRANCH  18  19
ENDBRANCH   1  18
TORSDOF 6
ENDMDL
MODEL 9
REMARK VINA RESULT:    -6.702      3.704      6.225
REMARK INTER + INTRA:         -10.250
REMARK INTER:                  -9.109
REMARK INTRA:                  -1.141
REMARK UNBOUND:                -1.197
REMARK  Name = 
REMARK  10 active torsions:
REMARK  status: ('A' for Active; 'I' for Inactive)
REMARK    1  A    between atoms: C_1  and  C_2
REMARK    2  A    between atoms: N_4  and  C_5
REMARK    3  A    between atoms: C_9  and  C_10
REMARK    4  A    between atoms: C_10  and  C_11
REMARK    5  A    between atoms: C_10  and  C_12
REMARK    6  A    between atoms: C_10  and  C_13
REMARK    7  A    between atoms: C_13  and  N_14
REMARK    8  A    between atoms: N_14  and  C_15
REMARK    9  A    between atoms: C_18  and  C_19
REMARK   10  A    between atoms: C_26  and  C_27
REMARK                            x       y       z     vdW  Elec       q    Type
REMARK                         _______ _______ _______ _____ _____    ______ ____
ROOT
ATOM      1  C   UNL     1      49.438   8.304  13.075  0.00  0.00    +0.000 C 
ATOM      2  C   UNL     1      48.448   9.447  13.415  0.00  0.00    +0.000 C 
ATOM      3  C   UNL     1      50.631   8.873  12.277  0.00  0.00    +0.000 C 
ENDROOT
BRANCH   1   8
ATOM      4  C   UNL     1      49.466   6.257  16.369  0.00  0.00    +0.000 A 
ATOM      5  C   UNL     1      50.816   6.340  16.717  0.00  0.00    +0.000 A 
ATOM      6  C   UNL     1      51.716   7.093  15.966  0.00  0.00    +0.000 A 
ATOM      7  C   UNL     1      51.288   7.760  14.819  0.00  0.00    +0.000 A 
ATOM      8  C   UNL     1      49.950   7.694  14.406  0.00  0.00    +0.000 A 
ATOM      9  C   UNL     1      49.058   6.974  15.232  0.00  0.00    +0.000 A 
BRANCH   4  13
ATOM     10  C   UNL     1      49.879   2.596  17.082  0.00  0.00    +0.000 C 
ATOM     11  C   UNL     1      48.457   3.033  17.433  0.00  0.00    +0.000 C 
ATOM     12  C   UNL     1      47.977   4.258  16.631  0.00  0.00    +0.000 C 
ATOM     13  N   UNL     1      48.589   5.498  17.121  0.00  0.00    +0.000 N 
ATOM     14  C   UNL     1      48.501   5.686  18.579  0.00  0.00    +0.000 C 
ATOM     15  C   UNL     1      48.981   4.418  19.321  0.00  0.00    +0.000 C 
ATOM     16  C   UNL     1      48.710   4.535  20.816  0.00  0.00    +0.000 C 
ATOM     17  O   UNL     1      48.308   3.233  18.852  0.00  0.00    +0.000 OA
ENDBRANCH   4  13
ENDBRANCH   1   8
BRANCH   1  18
ATOM     18  C   UNL     1      48.681   7.251  12.210  0.00  0.00    +0.000 C 
BRANCH  18  19
ATOM     19  N   UNL     1      47.216   7.372  12.249  0.00  0.00    +0.000 N 
ATOM     20  H   UNL     1      46.870   8.165  11.715  0.00  0.00    +0.000 HD
BRANCH  19  21
ATOM     21  C   UNL     1      46.484   6.210  11.950  0.00  0.00    +0.000 A 
ATOM     22  C   UNL     1      46.189   5.226  12.898  0.00  0.00    +0.000 A 
ATOM     23  C   UNL     1      45.406   4.126  12.562  0.00  0.00    +0.000 A 
ATOM     24  C   UNL     1      44.900   4.049  11.275  0.00  0.00    +0.000 A 
ATOM     25  N   UNL     1      45.119   4.992  10.319  0.00  0.00    +0.000 NA
ATOM     26  C   UNL     1      45.886   6.046  10.693  0.00  0.00    +0.000 A 
BRANCH  24  27
ATOM     27  C   UNL     1      44.047   2.884  10.893  0.00  0.00    +0.000 C 
ATOM     28  N   UNL     1      44.511   2.133   9.853  0.00  0.00    +0.000 N 
ATOM     29  O   UNL     1      42.996   2.616  11.467  0.00  0.00    +0.000 OA
ATOM     30  H   UNL     1      45.374   2.396   9.389  0.00  0.00    +0.000 HD
ATOM     31  H   UNL     1      43.976   1.340   9.529  0.00  0.00    +0.000 HD
ENDBRANCH  24  27
ENDBRANCH  19  21
ENDBRANCH  18  19
ENDBRANCH   1  18
TORSDOF 6
ENDMDL
