MODEL 1
REMARK VINA RESULT:    -7.778      0.000      0.000
REMARK INTER + INTRA:          -9.898
REMARK INTER:                  -9.597
REMARK INTRA:                  -0.301
REMARK UNBOUND:                -0.301
REMARK  Name = 
REMARK  5 active torsions:
REMARK  status: ('A' for Active; 'I' for Inactive)
REMARK    1  A    between atoms: C_1  and  C_2
REMARK    2  A    between atoms: C_2  and  O_3
REMARK    3  A    between atoms: C_2  and  C_13
REMARK    4  A    between atoms: O_3  and  C_4
REMARK    5  A    between atoms: C_7  and  C_8
REMARK                            x       y       z     vdW  Elec       q    Type
REMARK                         _______ _______ _______ _____ _____    ______ ____
ROOT
ATOM      1  C   UNL     1      44.469   3.274   9.328  0.00  0.00    +0.000 A 
ATOM      2  C   UNL     1      45.082   2.038   9.264  0.00  0.00    +0.000 A 
ATOM      3  N   UNL     1      46.032   1.700   8.365  0.00  0.00    +0.000 NA
ATOM      4  C   UNL     1      46.370   2.670   7.482  0.00  0.00    +0.000 A 
ATOM      5  N   UNL     1      45.836   3.905   7.432  0.00  0.00    +0.000 NA
ATOM      6  C   UNL     1      44.896   4.171   8.366  0.00  0.00    +0.000 A 
ENDROOT
BRANCH   4   7
ATOM      7  C   UNL     1      47.463   2.317   6.501  0.00  0.00    +0.000 C 
ATOM      8  N   UNL     1      47.444   3.018   5.318  0.00  0.00    +0.000 N 
ATOM      9  O   UNL     1      48.319   1.465   6.704  0.00  0.00    +0.000 OA
ATOM     10  H   UNL     1      46.720   3.708   5.151  0.00  0.00    +0.000 HD
ATOM     11  H   UNL     1      48.132   2.809   4.608  0.00  0.00    +0.000 HD
ENDBRANCH   4   7
BRANCH   1  12
ATOM     12  O   UNL     1      43.530   3.700  10.220  0.00  0.00    +0.000 OA
BRANCH  12  14
ATOM     13  C   UNL     1      42.609   5.218  11.883  0.00  0.00    +0.000 C 
ATOM     14  C   UNL     1      43.713   4.979  10.850  0.00  0.00    +0.000 C 
BRANCH  14  15
ATOM     15  C   UNL     1      45.131   5.051  11.488  0.00  0.00    +0.000 C 
ATOM     16  C   UNL     1      45.062   4.600  12.961  0.00  0.00    +0.000 C 
ATOM     17  C   UNL     1      46.421   4.658  13.656  0.00  0.00    +0.000 C 
ATOM     18  C   UNL     1      47.041   6.045  13.547  0.00  0.00    +0.000 C 
ATOM     19  C   UNL     1      47.159   6.471  12.089  0.00  0.00    +0.000 C 
ATOM     20  C   UNL     1      45.803   6.435  11.382  0.00  0.00    +0.000 C 
ENDBRANCH  14  15
ENDBRANCH  12  14
ENDBRANCH   1  12
TORSDOF 4
ENDMDL
MODEL 2
REMARK VINA RESULT:    -6.893      3.947      6.380
REMARK INTER + INTRA:          -8.805
REMARK INTER:                  -8.311
REMARK INTRA:                  -0.494
REMARK UNBOUND:                -0.301
REMARK  Name = 
REMARK  5 active torsions:
REMARK  status: ('A' for Active; 'I' for Inactive)
REMARK    1  A    between atoms: C_1  and  C_2
REMARK    2  A    between atoms: C_2  and  O_3
REMARK    3  A    between atoms: C_2  and  C_13
REMARK    4  A    between atoms: O_3  and  C_4
REMARK    5  A    between atoms: C_7  and  C_8
REMARK                            x       y       z     vdW  Elec       q    Type
REMARK                         _______ _______ _______ _____ _____    ______ ____
ROOT
ATOM      1  C   UNL     1      46.139   5.445  12.606  0.00  0.00    +0.000 A 
ATOM      2  C   UNL     1      47.333   5.956  13.074  0.00  0.00    +0.000 A 
ATOM      3  N   UNL     1      47.914   5.599  14.240  0.00  0.00    +0.000 NA
ATOM      4  C   UNL     1      47.240   4.678  14.969  0.00  0.00    +0.000 A 
ATOM      5  N   UNL     1      46.064   4.118  14.630  0.00  0.00    +0.000 NA
ATOM      6  C   UNL     1      45.547   4.521  13.447  0.00  0.00    +0.000 A 
ENDROOT
BRANCH   4   7
ATOM      7  C   UNL     1      47.903   4.240  16.254  0.00  0.00    +0.000 C 
ATOM      8  N   UNL     1      47.167   3.381  17.036  0.00  0.00    +0.000 N 
ATOM      9  O   UNL     1      49.014   4.610  16.614  0.00  0.00    +0.000 OA
ATOM     10  H   UNL     1      46.240   3.095  16.738  0.00  0.00    +0.000 HD
ATOM     11  H   UNL     1      47.544   3.072  17.921  0.00  0.00    +0.000 HD
ENDBRANCH   4   7
BRANCH   1  12
ATOM     12  O   UNL     1      45.507   5.729  11.432  0.00  0.00    +0.000 OA
BRANCH  12  14
ATOM     13  C   UNL     1      43.131   6.047  11.019  0.00  0.00    +0.000 C 
ATOM     14  C   UNL     1      44.281   5.042  11.129  0.00  0.00    +0.000 C 
BRANCH  14  15
ATOM     15  C   UNL     1      44.453   4.212   9.824  0.00  0.00    +0.000 C 
ATOM     16  C   UNL     1      44.621   2.720  10.174  0.00  0.00    +0.000 C 
ATOM     17  C   UNL     1      44.808   1.844   8.937  0.00  0.00    +0.000 C 
ATOM     18  C   UNL     1      45.974   2.330   8.086  0.00  0.00    +0.000 C 
ATOM     19  C   UNL     1      45.785   3.790   7.693  0.00  0.00    +0.000 C 
ATOM     20  C   UNL     1      45.613   4.684   8.922  0.00  0.00    +0.000 C 
ENDBRANCH  14  15
ENDBRANCH  12  14
ENDBRANCH   1  12
TORSDOF 4
ENDMDL
MODEL 3
REMARK VINA RESULT:    -6.824      4.092      6.441
REMARK INTER + INTRA:          -8.721
REMARK INTER:                  -8.266
REMARK INTRA:                  -0.454
REMARK UNBOUND:                -0.301
REMARK  Name = 
REMARK  5 active torsions:
REMARK  status: ('A' for Active; 'I' for Inactive)
REMARK    1  A    between atoms: C_1  and  C_2
REMARK    2  A    between atoms: C_2  and  O_3
REMARK    3  A    between atoms: C_2  and  C_13
REMARK    4  A    between atoms: O_3  and  C_4
REMARK    5  A    between atoms: C_7  and  C_8
REMARK                            x       y       z     vdW  Elec       q    Type
REMARK                         _______ _______ _______ _____ _____    ______ ____
ROOT
ATOM      1  C   UNL     1      46.174   5.241  12.659  0.00  0.00    +0.000 A 
ATOM      2  C   UNL     1      45.838   4.218  13.524  0.00  0.00    +0.000 A 
ATOM      3  N   UNL     1      46.417   4.012  14.728  0.00  0.00    +0.000 NA
ATOM      4  C   UNL     1      47.392   4.890  15.063  0.00  0.00    +0.000 A 
ATOM      5  N   UNL     1      47.818   5.915  14.303  0.00  0.00    +0.000 NA
ATOM      6  C   UNL     1      47.190   6.061  13.115  0.00  0.00    +0.000 A 
ENDROOT
BRANCH   4   7
ATOM      7  C   UNL     1      48.014   4.694  16.426  0.00  0.00    +0.000 C 
ATOM      8  N   UNL     1      47.263   5.139  17.489  0.00  0.00    +0.000 N 
ATOM      9  O   UNL     1      49.113   4.186  16.613  0.00  0.00    +0.000 OA
ATOM     10  H   UNL     1      46.362   5.575  17.322  0.00  0.00    +0.000 HD
ATOM     11  H   UNL     1      47.635   5.062  18.425  0.00  0.00    +0.000 HD
ENDBRANCH   4   7
BRANCH   1  12
ATOM     12  O   UNL     1      45.619   5.533  11.449  0.00  0.00    +0.000 OA
BRANCH  12  14
ATOM     13  C   UNL     1      43.265   5.926  10.979  0.00  0.00    +0.000 C 
ATOM     14  C   UNL     1      44.386   4.889  11.087  0.00  0.00    +0.000 C 
BRANCH  14  15
ATOM     15  C   UNL     1      44.577   4.100   9.759  0.00  0.00    +0.000 C 
ATOM     16  C   UNL     1      44.831   2.611  10.070  0.00  0.00    +0.000 C 
ATOM     17  C   UNL     1      45.041   1.776   8.809  0.00  0.00    +0.000 C 
ATOM     18  C   UNL     1      46.161   2.344   7.948  0.00  0.00    +0.000 C 
ATOM     19  C   UNL     1      45.886   3.800   7.594  0.00  0.00    +0.000 C 
ATOM     20  C   UNL     1      45.690   4.655   8.847  0.00  0.00    +0.000 C 
ENDBRANCH  14  15
ENDBRANCH  12  14
ENDBRANCH   1  12
TORSDOF 4
ENDMDL
MODEL 4
REMARK VINA RESULT:    -6.782      1.055      1.932
REMARK INTER + INTRA:          -8.669
REMARK INTER:                  -8.707
REMARK INTRA:                   0.038
REMARK UNBOUND:                -0.301
REMARK  Name = 
REMARK  5 active torsions:
REMARK  status: ('A' for Active; 'I' for Inactive)
REMARK    1  A    between atoms: C_1  and  C_2
REMARK    2  A    between atoms: C_2  and  O_3
REMARK    3  A    between atoms: C_2  and  C_13
REMARK    4  A    between atoms: O_3  and  C_4
REMARK    5  A    between atoms: C_7  and  C_8
REMARK                            x       y       z     vdW  Elec       q    Type
REMARK                         _______ _______ _______ _____ _____    ______ ____
ROOT
ATOM      1  C   UNL     1      44.817   3.805   9.250  0.00  0.00    +0.000 A 
ATOM      2  C   UNL     1      45.591   4.603   8.430  0.00  0.00    +0.000 A 
ATOM      3  N   UNL     1      46.508   4.138   7.554  0.00  0.00    +0.000 NA
ATOM      4  C   UNL     1      46.647   2.791   7.515  0.00  0.00    +0.000 A 
ATOM      5  N   UNL     1      45.964   1.911   8.271  0.00  0.00    +0.000 NA
ATOM      6  C   UNL     1      45.061   2.451   9.120  0.00  0.00    +0.000 A 
ENDROOT
BRANCH   4   7
ATOM      7  C   UNL     1      47.639   2.259   6.507  0.00  0.00    +0.000 C 
ATOM      8  N   UNL     1      47.833   3.047   5.397  0.00  0.00    +0.000 N 
ATOM      9  O   UNL     1      48.242   1.200   6.630  0.00  0.00    +0.000 OA
ATOM     10  H   UNL     1      47.315   3.914   5.295  0.00  0.00    +0.000 HD
ATOM     11  H   UNL     1      48.463   2.735   4.672  0.00  0.00    +0.000 HD
ENDBRANCH   4   7
BRANCH   1  12
ATOM     12  O   UNL     1      43.854   4.195  10.132  0.00  0.00    +0.000 OA
BRANCH  12  14
ATOM     13  C   UNL     1      45.087   3.570  12.134  0.00  0.00    +0.000 C 
ATOM     14  C   UNL     1      44.259   4.651  11.433  0.00  0.00    +0.000 C 
BRANCH  14  15
ATOM     15  C   UNL     1      45.045   5.988  11.298  0.00  0.00    +0.000 C 
ATOM     16  C   UNL     1      46.348   5.912  12.120  0.00  0.00    +0.000 C 
ATOM     17  C   UNL     1      47.166   7.198  12.043  0.00  0.00    +0.000 C 
ATOM     18  C   UNL     1      46.338   8.407  12.459  0.00  0.00    +0.000 C 
ATOM     19  C   UNL     1      45.076   8.516  11.612  0.00  0.00    +0.000 C 
ATOM     20  C   UNL     1      44.235   7.240  11.691  0.00  0.00    +0.000 C 
ENDBRANCH  14  15
ENDBRANCH  12  14
ENDBRANCH   1  12
TORSDOF 4
ENDMDL
MODEL 5
REMARK VINA RESULT:    -6.411      4.141      6.416
REMARK INTER + INTRA:          -8.211
REMARK INTER:                  -7.791
REMARK INTRA:                  -0.420
REMARK UNBOUND:                -0.301
REMARK  Name = 
REMARK  5 active torsions:
REMARK  status: ('A' for Active; 'I' for Inactive)
REMARK    1  A    between atoms: C_1  and  C_2
REMARK    2  A    between atoms: C_2  and  O_3
REMARK    3  A    between atoms: C_2  and  C_13
REMARK    4  A    between atoms: O_3  and  C_4
REMARK    5  A    between atoms: C_7  and  C_8
REMARK                            x       y       z     vdW  Elec       q    Type
REMARK                         _______ _______ _______ _____ _____    ______ ____
ROOT
ATOM      1  C   UNL     1      46.429   6.130  12.083  0.00  0.00    +0.000 A 
ATOM      2  C   UNL     1      46.673   5.173  13.048  0.00  0.00    +0.000 A 
ATOM      3  N   UNL     1      47.478   5.353  14.118  0.00  0.00    +0.000 NA
ATOM      4  C   UNL     1      48.069   6.568  14.205  0.00  0.00    +0.000 A 
ATOM      5  N   UNL     1      47.924   7.575  13.324  0.00  0.00    +0.000 NA
ATOM      6  C   UNL     1      47.099   7.323  12.283  0.00  0.00    +0.000 A 
ENDROOT
BRANCH   4   7
ATOM      7  C   UNL     1      48.938   6.793  15.421  0.00  0.00    +0.000 C 
ATOM      8  N   UNL     1      48.333   7.453  16.465  0.00  0.00    +0.000 N 
ATOM      9  O   UNL     1      50.106   6.436  15.506  0.00  0.00    +0.000 OA
ATOM     10  H   UNL     1      47.370   7.762  16.377  0.00  0.00    +0.000 HD
ATOM     11  H   UNL     1      48.867   7.659  17.297  0.00  0.00    +0.000 HD
ENDBRANCH   4   7
BRANCH   1  12
ATOM     12  O   UNL     1      45.609   6.038  10.998  0.00  0.00    +0.000 OA
BRANCH  12  14
ATOM     13  C   UNL     1      43.202   5.714  11.132  0.00  0.00    +0.000 C 
ATOM     14  C   UNL     1      44.572   5.043  11.005  0.00  0.00    +0.000 C 
BRANCH  14  15
ATOM     15  C   UNL     1      44.674   4.169   9.721  0.00  0.00    +0.000 C 
ATOM     16  C   UNL     1      44.864   2.690  10.111  0.00  0.00    +0.000 C 
ATOM     17  C   UNL     1      44.985   1.774   8.895  0.00  0.00    +0.000 C 
ATOM     18  C   UNL     1      46.101   2.232   7.965  0.00  0.00    +0.000 C 
ATOM     19  C   UNL     1      45.888   3.678   7.535  0.00  0.00    +0.000 C 
ATOM     20  C   UNL     1      45.781   4.612   8.741  0.00  0.00    +0.000 C 
ENDBRANCH  14  15
ENDBRANCH  12  14
ENDBRANCH   1  12
TORSDOF 4
ENDMDL
MODEL 6
REMARK VINA RESULT:    -5.801      4.862      7.211
REMARK INTER + INTRA:          -7.458
REMARK INTER:                  -7.102
REMARK INTRA:                  -0.356
REMARK UNBOUND:                -0.301
REMARK  Name = 
REMARK  5 active torsions:
REMARK  status: ('A' for Active; 'I' for Inactive)
REMARK    1  A    between atoms: C_1  and  C_2
REMARK    2  A    between atoms: C_2  and  O_3
REMARK    3  A    between atoms: C_2  and  C_13
REMARK    4  A    between atoms: O_3  and  C_4
REMARK    5  A    between atoms: C_7  and  C_8
REMARK                            x       y       z     vdW  Elec       q    Type
REMARK                         _______ _______ _______ _____ _____    ______ ____
ROOT
ATOM      1  C   UNL     1      47.210   5.526  13.984  0.00  0.00    +0.000 A 
ATOM      2  C   UNL     1      48.171   6.221  14.691  0.00  0.00    +0.000 A 
ATOM      3  N   UNL     1      48.652   5.850  15.898  0.00  0.00    +0.000 NA
ATOM      4  C   UNL     1      48.122   4.715  16.413  0.00  0.00    +0.000 A 
ATOM      5  N   UNL     1      47.173   3.959  15.830  0.00  0.00    +0.000 NA
ATOM      6  C   UNL     1      46.745   4.391  14.623  0.00  0.00    +0.000 A 
ENDROOT
BRANCH   4   7
ATOM      7  C   UNL     1      48.684   4.268  17.742  0.00  0.00    +0.000 C 
ATOM      8  N   UNL     1      47.900   3.387  18.450  0.00  0.00    +0.000 N 
ATOM      9  O   UNL     1      49.757   4.647  18.197  0.00  0.00    +0.000 OA
ATOM     10  H   UNL     1      47.004   3.094  18.073  0.00  0.00    +0.000 HD
ATOM     11  H   UNL     1      48.207   3.071  19.359  0.00  0.00    +0.000 HD
ENDBRANCH   4   7
BRANCH   1  12
ATOM     12  O   UNL     1      46.700   5.816  12.754  0.00  0.00    +0.000 OA
BRANCH  12  14
ATOM     13  C   UNL     1      45.316   7.758  12.273  0.00  0.00    +0.000 C 
ATOM     14  C   UNL     1      45.342   6.279  12.667  0.00  0.00    +0.000 C 
BRANCH  14  15
ATOM     15  C   UNL     1      44.550   5.395  11.660  0.00  0.00    +0.000 C 
ATOM     16  C   UNL     1      44.170   4.058  12.326  0.00  0.00    +0.000 C 
ATOM     17  C   UNL     1      43.400   3.132  11.387  0.00  0.00    +0.000 C 
ATOM     18  C   UNL     1      44.169   2.889  10.095  0.00  0.00    +0.000 C 
ATOM     19  C   UNL     1      44.500   4.207   9.407  0.00  0.00    +0.000 C 
ATOM     20  C   UNL     1      45.286   5.141  10.328  0.00  0.00    +0.000 C 
ENDBRANCH  14  15
ENDBRANCH  12  14
ENDBRANCH   1  12
TORSDOF 4
ENDMDL
MODEL 7
REMARK VINA RESULT:    -5.625      3.348      5.270
REMARK INTER + INTRA:          -7.241
REMARK INTER:                  -6.832
REMARK INTRA:                  -0.409
REMARK UNBOUND:                -0.301
REMARK  Name = 
REMARK  5 active torsions:
REMARK  status: ('A' for Active; 'I' for Inactive)
REMARK    1  A    between atoms: C_1  and  C_2
REMARK    2  A    between atoms: C_2  and  O_3
REMARK    3  A    between atoms: C_2  and  C_13
REMARK    4  A    between atoms: O_3  and  C_4
REMARK    5  A    between atoms: C_7  and  C_8
REMARK                            x       y       z     vdW  Elec       q    Type
REMARK                         _______ _______ _______ _____ _____    ______ ____
ROOT
ATOM      1  C   UNL     1      45.331   6.459  12.400  0.00  0.00    +0.000 A 
ATOM      2  C   UNL     1      45.048   6.172  11.079  0.00  0.00    +0.000 A 
ATOM      3  N   UNL     1      44.577   4.986  10.636  0.00  0.00    +0.000 NA
ATOM      4  C   UNL     1      44.391   4.041  11.589  0.00  0.00    +0.000 A 
ATOM      5  N   UNL     1      44.643   4.193  12.902  0.00  0.00    +0.000 NA
ATOM      6  C   UNL     1      45.107   5.408  13.270  0.00  0.00    +0.000 A 
ENDROOT
BRANCH   4   7
ATOM      7  C   UNL     1      43.823   2.725  11.110  0.00  0.00    +0.000 C 
ATOM      8  N   UNL     1      44.416   2.200   9.986  0.00  0.00    +0.000 N 
ATOM      9  O   UNL     1      42.895   2.139  11.653  0.00  0.00    +0.000 OA
ATOM     10  H   UNL     1      45.172   2.702   9.533  0.00  0.00    +0.000 HD
ATOM     11  H   UNL     1      44.065   1.335   9.599  0.00  0.00    +0.000 HD
ENDBRANCH   4   7
BRANCH   1  12
ATOM     12  O   UNL     1      45.776   7.634  12.927  0.00  0.00    +0.000 OA
BRANCH  12  14
ATOM     13  C   UNL     1      45.549   9.955  12.233  0.00  0.00    +0.000 C 
ATOM     14  C   UNL     1      46.296   8.633  12.033  0.00  0.00    +0.000 C 
BRANCH  14  15
ATOM     15  C   UNL     1      47.828   8.791  12.258  0.00  0.00    +0.000 C 
ATOM     16  C   UNL     1      48.310  10.121  11.643  0.00  0.00    +0.000 C 
ATOM     17  C   UNL     1      49.812  10.337  11.817  0.00  0.00    +0.000 C 
ATOM     18  C   UNL     1      50.608   9.165  11.257  0.00  0.00    +0.000 C 
ATOM     19  C   UNL     1      50.171   7.856  11.901  0.00  0.00    +0.000 C 
ATOM     20  C   UNL     1      48.671   7.616  11.723  0.00  0.00    +0.000 C 
ENDBRANCH  14  15
ENDBRANCH  12  14
ENDBRANCH   1  12
TORSDOF 4
ENDMDL
MODEL 8
REMARK VINA RESULT:    -5.560      3.351      5.033
REMARK INTER + INTRA:          -7.161
REMARK INTER:                  -6.692
REMARK INTRA:                  -0.469
REMARK UNBOUND:                -0.301
REMARK  Name = 
REMARK  5 active torsions:
REMARK  status: ('A' for Active; 'I' for Inactive)
REMARK    1  A    between atoms: C_1  and  C_2
REMARK    2  A    between atoms: C_2  and  O_3
REMARK    3  A    between atoms: C_2  and  C_13
REMARK    4  A    between atoms: O_3  and  C_4
REMARK    5  A    between atoms: C_7  and  C_8
REMARK                            x       y       z     vdW  Elec       q    Type
REMARK                         _______ _______ _______ _____ _____    ______ ____
ROOT
ATOM      1  C   UNL     1      44.882   6.665  12.413  0.00  0.00    +0.000 A 
ATOM      2  C   UNL     1      43.991   6.430  11.384  0.00  0.00    +0.000 A 
ATOM      3  N   UNL     1      43.633   5.203  10.946  0.00  0.00    +0.000 NA
ATOM      4  C   UNL     1      44.218   4.163  11.587  0.00  0.00    +0.000 A 
ATOM      5  N   UNL     1      45.109   4.262  12.591  0.00  0.00    +0.000 NA
ATOM      6  C   UNL     1      45.414   5.520  12.977  0.00  0.00    +0.000 A 
ENDROOT
BRANCH   4   7
ATOM      7  C   UNL     1      43.790   2.786  11.134  0.00  0.00    +0.000 C 
ATOM      8  N   UNL     1      44.474   2.282  10.052  0.00  0.00    +0.000 N 
ATOM      9  O   UNL     1      42.897   2.135  11.662  0.00  0.00    +0.000 OA
ATOM     10  H   UNL     1      45.200   2.836   9.610  0.00  0.00    +0.000 HD
ATOM     11  H   UNL     1      44.218   1.377   9.683  0.00  0.00    +0.000 HD
ENDBRANCH   4   7
BRANCH   1  12
ATOM     12  O   UNL     1      45.267   7.866  12.931  0.00  0.00    +0.000 OA
BRANCH  12  14
ATOM     13  C   UNL     1      45.300  10.146  12.084  0.00  0.00    +0.000 C 
ATOM     14  C   UNL     1      45.987   8.778  12.085  0.00  0.00    +0.000 C 
BRANCH  14  15
ATOM     15  C   UNL     1      47.468   8.872  12.555  0.00  0.00    +0.000 C 
ATOM     16  C   UNL     1      48.320   7.830  11.804  0.00  0.00    +0.000 C 
ATOM     17  C   UNL     1      49.787   7.857  12.227  0.00  0.00    +0.000 C 
ATOM     18  C   UNL     1      49.933   7.686  13.734  0.00  0.00    +0.000 C 
ATOM     19  C   UNL     1      49.134   8.748  14.478  0.00  0.00    +0.000 C 
ATOM     20  C   UNL     1      47.658   8.723  14.079  0.00  0.00    +0.000 C 
ENDBRANCH  14  15
ENDBRANCH  12  14
ENDBRANCH   1  12
TORSDOF 4
ENDMDL
MODEL 9
REMARK VINA RESULT:    -5.509      3.941      5.913
REMARK INTER + INTRA:          -7.098
REMARK INTER:                  -6.634
REMARK INTRA:                  -0.463
REMARK UNBOUND:                -0.301
REMARK  Name = 
REMARK  5 active torsions:
REMARK  status: ('A' for Active; 'I' for Inactive)
REMARK    1  A    between atoms: C_1  and  C_2
REMARK    2  A    between atoms: C_2  and  O_3
REMARK    3  A    between atoms: C_2  and  C_13
REMARK    4  A    between atoms: O_3  and  C_4
REMARK    5  A    between atoms: C_7  and  C_8
REMARK                            x       y       z     vdW  Elec       q    Type
REMARK                         _______ _______ _______ _____ _____    ______ ____
ROOT
ATOM      1  C   UNL     1      47.069   5.416  13.120  0.00  0.00    +0.000 A 
ATOM      2  C   UNL     1      46.416   4.316  13.641  0.00  0.00    +0.000 A 
ATOM      3  N   UNL     1      45.195   3.891  13.246  0.00  0.00    +0.000 NA
ATOM      4  C   UNL     1      44.608   4.630  12.275  0.00  0.00    +0.000 A 
ATOM      5  N   UNL     1      45.133   5.728  11.700  0.00  0.00    +0.000 NA
ATOM      6  C   UNL     1      46.358   6.088  12.143  0.00  0.00    +0.000 A 
ENDROOT
BRANCH   4   7
ATOM      7  C   UNL     1      43.262   4.139  11.795  0.00  0.00    +0.000 C 
ATOM      8  N   UNL     1      42.255   5.076  11.800  0.00  0.00    +0.000 N 
ATOM      9  O   UNL     1      43.040   2.991  11.428  0.00  0.00    +0.000 OA
ATOM     10  H   UNL     1      42.444   6.018  12.123  0.00  0.00    +0.000 HD
ATOM     11  H   UNL     1      41.324   4.803  11.517  0.00  0.00    +0.000 HD
ENDBRANCH   4   7
BRANCH   1  12
ATOM     12  O   UNL     1      48.307   5.886  13.441  0.00  0.00    +0.000 OA
BRANCH  12  14
ATOM     13  C   UNL     1      49.094   6.665  15.607  0.00  0.00    +0.000 C 
ATOM     14  C   UNL     1      48.402   7.040  14.294  0.00  0.00    +0.000 C 
BRANCH  14  15
ATOM     15  C   UNL     1      49.152   8.182  13.547  0.00  0.00    +0.000 C 
ATOM     16  C   UNL     1      48.218   9.397  13.383  0.00  0.00    +0.000 C 
ATOM     17  C   UNL     1      48.887  10.555  12.645  0.00  0.00    +0.000 C 
ATOM     18  C   UNL     1      49.433  10.110  11.295  0.00  0.00    +0.000 C 
ATOM     19  C   UNL     1      50.397   8.943  11.459  0.00  0.00    +0.000 C 
ATOM     20  C   UNL     1      49.738   7.767  12.182  0.00  0.00    +0.000 C 
ENDBRANCH  14  15
ENDBRANCH  12  14
ENDBRANCH   1  12
TORSDOF 4
ENDMDL
