MODEL 1
REMARK VINA RESULT:    -8.691      0.000      0.000
REMARK INTER + INTRA:         -11.909
REMARK INTER:                 -11.231
REMARK INTRA:                  -0.678
REMARK UNBOUND:                -0.678
REMARK  Name = 
REMARK  5 active torsions:
REMARK  status: ('A' for Active; 'I' for Inactive)
REMARK    1  A    between atoms: C_2  and  C_4
REMARK    2  A    between atoms: C_7  and  O_8
REMARK    3  A    between atoms: O_8  and  C_9
REMARK    4  A    between atoms: C_9  and  C_10
REMARK    5  A    between atoms: C_14  and  C_15
REMARK                            x       y       z     vdW  Elec       q    Type
REMARK                         _______ _______ _______ _____ _____    ______ ____
ROOT
ATOM      1  C   UNL     1      43.527   4.274  11.126  0.00  0.00    +0.000 C 
ENDROOT
BRANCH   1   2
ATOM      2  C   UNL     1      44.774   4.693  11.862  0.00  0.00    +0.000 A 
ATOM      3  C   UNL     1      45.311   3.848  12.826  0.00  0.00    +0.000 A 
ATOM      4  N   UNL     1      46.406   4.135  13.558  0.00  0.00    +0.000 NA
ATOM      5  C   UNL     1      46.998   5.332  13.321  0.00  0.00    +0.000 A 
ATOM      6  C   UNL     1      46.573   6.267  12.375  0.00  0.00    +0.000 A 
ATOM      7  C   UNL     1      45.431   5.909  11.641  0.00  0.00    +0.000 A 
BRANCH   6   8
ATOM      8  C   UNL     1      47.268   7.553  12.156  0.00  0.00    +0.000 A 
ATOM      9  C   UNL     1      48.625   7.608  11.806  0.00  0.00    +0.000 A 
ATOM     10  C   UNL     1      49.224   8.844  11.599  0.00  0.00    +0.000 A 
ATOM     11  N   UNL     1      48.579  10.020  11.704  0.00  0.00    +0.000 NA
ATOM     12  C   UNL     1      47.278   9.959  12.042  0.00  0.00    +0.000 A 
ATOM     13  F   UNL     1      46.605  11.113  12.145  0.00  0.00    +0.000 F 
ATOM     14  C   UNL     1      46.594   8.776  12.275  0.00  0.00    +0.000 A 
ENDBRANCH   6   8
ENDBRANCH   1   2
BRANCH   1  15
ATOM     15  O   UNL     1      43.568   4.658   9.747  0.00  0.00    +0.000 OA
BRANCH  15  19
ATOM     16  C   UNL     1      46.386   2.465   7.694  0.00  0.00    +0.000 A 
ATOM     17  C   UNL     1      45.481   1.813   8.534  0.00  0.00    +0.000 A 
ATOM     18  C   UNL     1      44.526   2.566   9.220  0.00  0.00    +0.000 A 
ATOM     19  C   UNL     1      44.509   3.940   9.038  0.00  0.00    +0.000 A 
ATOM     20  N   UNL     1      45.367   4.595   8.226  0.00  0.00    +0.000 NA
ATOM     21  C   UNL     1      46.292   3.846   7.582  0.00  0.00    +0.000 A 
BRANCH  16  23
ATOM     22  N   UNL     1      48.532   2.526   6.548  0.00  0.00    +0.000 N 
ATOM     23  C   UNL     1      47.461   1.780   6.949  0.00  0.00    +0.000 C 
ATOM     24  O   UNL     1      47.412   0.578   6.726  0.00  0.00    +0.000 OA
ATOM     25  H   UNL     1      49.299   2.013   6.131  0.00  0.00    +0.000 HD
ATOM     26  H   UNL     1      48.732   3.447   6.915  0.00  0.00    +0.000 HD
ENDBRANCH  16  23
ENDBRANCH  15  19
ENDBRANCH   1  15
TORSDOF 5
ENDMDL
MODEL 2
REMARK VINA RESULT:    -8.587      1.554      1.753
REMARK INTER + INTRA:         -11.775
REMARK INTER:                 -10.972
REMARK INTRA:                  -0.803
REMARK UNBOUND:                -0.678
REMARK  Name = 
REMARK  5 active torsions:
REMARK  status: ('A' for Active; 'I' for Inactive)
REMARK    1  A    between atoms: C_2  and  C_4
REMARK    2  A    between atoms: C_7  and  O_8
REMARK    3  A    between atoms: O_8  and  C_9
REMARK    4  A    between atoms: C_9  and  C_10
REMARK    5  A    between atoms: C_14  and  C_15
REMARK                            x       y       z     vdW  Elec       q    Type
REMARK                         _______ _______ _______ _____ _____    ______ ____
ROOT
ATOM      1  C   UNL     1      43.894   5.196  10.721  0.00  0.00    +0.000 C 
ENDROOT
BRANCH   1   2
ATOM      2  C   UNL     1      44.925   5.105  11.816  0.00  0.00    +0.000 A 
ATOM      3  C   UNL     1      44.763   4.162  12.825  0.00  0.00    +0.000 A 
ATOM      4  N   UNL     1      45.610   4.012  13.863  0.00  0.00    +0.000 NA
ATOM      5  C   UNL     1      46.676   4.849  13.903  0.00  0.00    +0.000 A 
ATOM      6  C   UNL     1      46.965   5.829  12.952  0.00  0.00    +0.000 A 
ATOM      7  C   UNL     1      46.050   5.934  11.893  0.00  0.00    +0.000 A 
BRANCH   6   8
ATOM      8  C   UNL     1      48.151   6.706  13.046  0.00  0.00    +0.000 A 
ATOM      9  C   UNL     1      48.806   6.935  14.265  0.00  0.00    +0.000 A 
ATOM     10  C   UNL     1      49.925   7.758  14.293  0.00  0.00    +0.000 A 
ATOM     11  N   UNL     1      50.443   8.361  13.207  0.00  0.00    +0.000 NA
ATOM     12  C   UNL     1      49.808   8.138  12.041  0.00  0.00    +0.000 A 
ATOM     13  F   UNL     1      50.306   8.716  10.940  0.00  0.00    +0.000 F 
ATOM     14  C   UNL     1      48.682   7.339  11.913  0.00  0.00    +0.000 A 
ENDBRANCH   6   8
ENDBRANCH   1   2
BRANCH   1  15
ATOM     15  O   UNL     1      43.577   3.908  10.180  0.00  0.00    +0.000 OA
BRANCH  15  19
ATOM     16  C   UNL     1      46.427   2.590   7.515  0.00  0.00    +0.000 A 
ATOM     17  C   UNL     1      45.865   1.692   8.426  0.00  0.00    +0.000 A 
ATOM     18  C   UNL     1      44.895   2.148   9.320  0.00  0.00    +0.000 A 
ATOM     19  C   UNL     1      44.521   3.483   9.268  0.00  0.00    +0.000 A 
ATOM     20  N   UNL     1      45.042   4.370   8.393  0.00  0.00    +0.000 NA
ATOM     21  C   UNL     1      45.989   3.907   7.544  0.00  0.00    +0.000 A 
BRANCH  16  23
ATOM     22  N   UNL     1      47.556   2.948   5.389  0.00  0.00    +0.000 N 
ATOM     23  C   UNL     1      47.484   2.231   6.549  0.00  0.00    +0.000 C 
ATOM     24  O   UNL     1      48.291   1.344   6.793  0.00  0.00    +0.000 OA
ATOM     25  H   UNL     1      48.352   2.750   4.794  0.00  0.00    +0.000 HD
ATOM     26  H   UNL     1      47.082   3.831   5.256  0.00  0.00    +0.000 HD
ENDBRANCH  16  23
ENDBRANCH  15  19
ENDBRANCH   1  15
TORSDOF 5
ENDMDL
MODEL 3
REMARK VINA RESULT:    -8.583      2.734      3.785
REMARK INTER + INTRA:         -11.770
REMARK INTER:                 -11.112
REMARK INTRA:                  -0.658
REMARK UNBOUND:                -0.678
REMARK  Name = 
REMARK  5 active torsions:
REMARK  status: ('A' for Active; 'I' for Inactive)
REMARK    1  A    between atoms: C_2  and  C_4
REMARK    2  A    between atoms: C_7  and  O_8
REMARK    3  A    between atoms: O_8  and  C_9
REMARK    4  A    between atoms: C_9  and  C_10
REMARK    5  A    between atoms: C_14  and  C_15
REMARK                            x       y       z     vdW  Elec       q    Type
REMARK                         _______ _______ _______ _____ _____    ______ ____
ROOT
ATOM      1  C   UNL     1      43.856   4.304  11.324  0.00  0.00    +0.000 C 
ENDROOT
BRANCH   1   2
ATOM      2  C   UNL     1      44.911   5.175  11.955  0.00  0.00    +0.000 A 
ATOM      3  C   UNL     1      45.215   6.402  11.375  0.00  0.00    +0.000 A 
ATOM      4  N   UNL     1      46.157   7.246  11.843  0.00  0.00    +0.000 NA
ATOM      5  C   UNL     1      46.836   6.848  12.946  0.00  0.00    +0.000 A 
ATOM      6  C   UNL     1      46.623   5.651  13.633  0.00  0.00    +0.000 A 
ATOM      7  C   UNL     1      45.628   4.816  13.102  0.00  0.00    +0.000 A 
BRANCH   6   8
ATOM      8  C   UNL     1      47.392   5.276  14.839  0.00  0.00    +0.000 A 
ATOM      9  C   UNL     1      48.368   6.123  15.386  0.00  0.00    +0.000 A 
ATOM     10  C   UNL     1      49.050   5.726  16.529  0.00  0.00    +0.000 A 
ATOM     11  N   UNL     1      48.832   4.562  17.169  0.00  0.00    +0.000 NA
ATOM     12  C   UNL     1      47.896   3.755  16.638  0.00  0.00    +0.000 A 
ATOM     13  F   UNL     1      47.649   2.594  17.259  0.00  0.00    +0.000 F 
ATOM     14  C   UNL     1      47.168   4.059  15.498  0.00  0.00    +0.000 A 
ENDBRANCH   6   8
ENDBRANCH   1   2
BRANCH   1  15
ATOM     15  O   UNL     1      43.697   4.586   9.928  0.00  0.00    +0.000 OA
BRANCH  15  19
ATOM     16  C   UNL     1      46.392   2.433   7.678  0.00  0.00    +0.000 A 
ATOM     17  C   UNL     1      45.591   1.774   8.613  0.00  0.00    +0.000 A 
ATOM     18  C   UNL     1      44.677   2.513   9.366  0.00  0.00    +0.000 A 
ATOM     19  C   UNL     1      44.595   3.881   9.153  0.00  0.00    +0.000 A 
ATOM     20  N   UNL     1      45.351   4.542   8.251  0.00  0.00    +0.000 NA
ATOM     21  C   UNL     1      46.239   3.806   7.542  0.00  0.00    +0.000 A 
BRANCH  16  23
ATOM     22  N   UNL     1      48.482   2.511   6.432  0.00  0.00    +0.000 N 
ATOM     23  C   UNL     1      47.419   1.764   6.853  0.00  0.00    +0.000 C 
ATOM     24  O   UNL     1      47.338   0.574   6.583  0.00  0.00    +0.000 OA
ATOM     25  H   UNL     1      49.219   2.004   5.958  0.00  0.00    +0.000 HD
ATOM     26  H   UNL     1      48.715   3.411   6.827  0.00  0.00    +0.000 HD
ENDBRANCH  16  23
ENDBRANCH  15  19
ENDBRANCH   1  15
TORSDOF 5
ENDMDL
MODEL 4
REMARK VINA RESULT:    -8.476      0.922      1.206
REMARK INTER + INTRA:         -11.631
REMARK INTER:                 -10.826
REMARK INTRA:                  -0.804
REMARK UNBOUND:                -0.678
REMARK  Name = 
REMARK  5 active torsions:
REMARK  status: ('A' for Active; 'I' for Inactive)
REMARK    1  A    between atoms: C_2  and  C_4
REMARK    2  A    between atoms: C_7  and  O_8
REMARK    3  A    between atoms: O_8  and  C_9
REMARK    4  A    between atoms: C_9  and  C_10
REMARK    5  A    between atoms: C_14  and  C_15
REMARK                            x       y       z     vdW  Elec       q    Type
REMARK                         _______ _______ _______ _____ _____    ______ ____
ROOT
ATOM      1  C   UNL     1      43.809   3.699  11.640  0.00  0.00    +0.000 C 
ENDROOT
BRANCH   1   2
ATOM      2  C   UNL     1      45.027   4.387  12.203  0.00  0.00    +0.000 A 
ATOM      3  C   UNL     1      45.908   3.664  13.000  0.00  0.00    +0.000 A 
ATOM      4  N   UNL     1      47.011   4.187  13.573  0.00  0.00    +0.000 NA
ATOM      5  C   UNL     1      47.250   5.501  13.344  0.00  0.00    +0.000 A 
ATOM      6  C   UNL     1      46.457   6.338  12.556  0.00  0.00    +0.000 A 
ATOM      7  C   UNL     1      45.326   5.736  11.983  0.00  0.00    +0.000 A 
BRANCH   6   8
ATOM      8  C   UNL     1      46.775   7.764  12.337  0.00  0.00    +0.000 A 
ATOM      9  C   UNL     1      48.089   8.201  12.109  0.00  0.00    +0.000 A 
ATOM     10  C   UNL     1      48.329   9.552  11.895  0.00  0.00    +0.000 A 
ATOM     11  N   UNL     1      47.369  10.495  11.881  0.00  0.00    +0.000 NA
ATOM     12  C   UNL     1      46.111  10.068  12.102  0.00  0.00    +0.000 A 
ATOM     13  F   UNL     1      45.132  10.982  12.086  0.00  0.00    +0.000 F 
ATOM     14  C   UNL     1      45.772   8.744  12.332  0.00  0.00    +0.000 A 
ENDBRANCH   6   8
ENDBRANCH   1   2
BRANCH   1  15
ATOM     15  O   UNL     1      43.590   4.047  10.267  0.00  0.00    +0.000 OA
BRANCH  15  19
ATOM     16  C   UNL     1      46.402   2.439   7.724  0.00  0.00    +0.000 A 
ATOM     17  C   UNL     1      46.162   3.815   7.706  0.00  0.00    +0.000 A 
ATOM     18  C   UNL     1      45.211   4.350   8.577  0.00  0.00    +0.000 A 
ATOM     19  C   UNL     1      44.540   3.490   9.434  0.00  0.00    +0.000 A 
ATOM     20  N   UNL     1      44.758   2.159   9.478  0.00  0.00    +0.000 NA
ATOM     21  C   UNL     1      45.675   1.661   8.615  0.00  0.00    +0.000 A 
BRANCH  16  23
ATOM     22  N   UNL     1      48.421   2.475   6.365  0.00  0.00    +0.000 N 
ATOM     23  C   UNL     1      47.354   1.757   6.825  0.00  0.00    +0.000 C 
ATOM     24  O   UNL     1      47.212   0.579   6.527  0.00  0.00    +0.000 OA
ATOM     25  H   UNL     1      49.110   1.955   5.836  0.00  0.00    +0.000 HD
ATOM     26  H   UNL     1      48.710   3.354   6.771  0.00  0.00    +0.000 HD
ENDBRANCH  16  23
ENDBRANCH  15  19
ENDBRANCH   1  15
TORSDOF 5
ENDMDL
MODEL 5
REMARK VINA RESULT:    -7.952      2.099      2.580
REMARK INTER + INTRA:         -10.954
REMARK INTER:                 -10.235
REMARK INTRA:                  -0.720
REMARK UNBOUND:                -0.678
REMARK  Name = 
REMARK  5 active torsions:
REMARK  status: ('A' for Active; 'I' for Inactive)
REMARK    1  A    between atoms: C_2  and  C_4
REMARK    2  A    between atoms: C_7  and  O_8
REMARK    3  A    between atoms: O_8  and  C_9
REMARK    4  A    between atoms: C_9  and  C_10
REMARK    5  A    between atoms: C_14  and  C_15
REMARK                            x       y       z     vdW  Elec       q    Type
REMARK                         _______ _______ _______ _____ _____    ______ ____
ROOT
ATOM      1  C   UNL     1      44.159   4.318  11.569  0.00  0.00    +0.000 C 
ENDROOT
BRANCH   1   2
ATOM      2  C   UNL     1      44.763   5.691  11.718  0.00  0.00    +0.000 A 
ATOM      3  C   UNL     1      43.998   6.808  11.402  0.00  0.00    +0.000 A 
ATOM      4  N   UNL     1      44.446   8.078  11.476  0.00  0.00    +0.000 NA
ATOM      5  C   UNL     1      45.728   8.246  11.884  0.00  0.00    +0.000 A 
ATOM      6  C   UNL     1      46.600   7.216  12.244  0.00  0.00    +0.000 A 
ATOM      7  C   UNL     1      46.075   5.918  12.151  0.00  0.00    +0.000 A 
BRANCH   6   8
ATOM      8  C   UNL     1      47.987   7.465  12.690  0.00  0.00    +0.000 A 
ATOM      9  C   UNL     1      48.915   8.135  11.879  0.00  0.00    +0.000 A 
ATOM     10  C   UNL     1      50.201   8.354  12.356  0.00  0.00    +0.000 A 
ATOM     11  N   UNL     1      50.630   7.966  13.571  0.00  0.00    +0.000 NA
ATOM     12  C   UNL     1      49.734   7.323  14.342  0.00  0.00    +0.000 A 
ATOM     13  F   UNL     1      50.129   6.933  15.562  0.00  0.00    +0.000 F 
ATOM     14  C   UNL     1      48.432   7.052  13.954  0.00  0.00    +0.000 A 
ENDBRANCH   6   8
ENDBRANCH   1   2
BRANCH   1  15
ATOM     15  O   UNL     1      43.655   4.101  10.246  0.00  0.00    +0.000 OA
BRANCH  15  19
ATOM     16  C   UNL     1      46.466   2.474   7.713  0.00  0.00    +0.000 A 
ATOM     17  C   UNL     1      46.258   3.855   7.718  0.00  0.00    +0.000 A 
ATOM     18  C   UNL     1      45.307   4.396   8.586  0.00  0.00    +0.000 A 
ATOM     19  C   UNL     1      44.603   3.537   9.416  0.00  0.00    +0.000 A 
ATOM     20  N   UNL     1      44.789   2.200   9.437  0.00  0.00    +0.000 NA
ATOM     21  C   UNL     1      45.707   1.698   8.578  0.00  0.00    +0.000 A 
BRANCH  16  23
ATOM     22  N   UNL     1      48.499   2.491   6.375  0.00  0.00    +0.000 N 
ATOM     23  C   UNL     1      47.415   1.786   6.815  0.00  0.00    +0.000 C 
ATOM     24  O   UNL     1      47.255   0.615   6.501  0.00  0.00    +0.000 OA
ATOM     25  H   UNL     1      49.184   1.966   5.846  0.00  0.00    +0.000 HD
ATOM     26  H   UNL     1      48.799   3.360   6.795  0.00  0.00    +0.000 HD
ENDBRANCH  16  23
ENDBRANCH  15  19
ENDBRANCH   1  15
TORSDOF 5
ENDMDL
MODEL 6
REMARK VINA RESULT:    -7.922      3.630      6.894
REMARK INTER + INTRA:         -10.915
REMARK INTER:                 -10.070
REMARK INTRA:                  -0.845
REMARK UNBOUND:                -0.678
REMARK  Name = 
REMARK  5 active torsions:
REMARK  status: ('A' for Active; 'I' for Inactive)
REMARK    1  A    between atoms: C_2  and  C_4
REMARK    2  A    between atoms: C_7  and  O_8
REMARK    3  A    between atoms: O_8  and  C_9
REMARK    4  A    between atoms: C_9  and  C_10
REMARK    5  A    between atoms: C_14  and  C_15
REMARK                            x       y       z     vdW  Elec       q    Type
REMARK                         _______ _______ _______ _____ _____    ______ ____
ROOT
ATOM      1  C   UNL     1      43.982   6.489  11.560  0.00  0.00    +0.000 C 
ENDROOT
BRANCH   1   2
ATOM      2  C   UNL     1      43.998   5.056  11.092  0.00  0.00    +0.000 A 
ATOM      3  C   UNL     1      43.193   4.122  11.735  0.00  0.00    +0.000 A 
ATOM      4  N   UNL     1      43.149   2.814  11.413  0.00  0.00    +0.000 NA
ATOM      5  C   UNL     1      43.953   2.410  10.399  0.00  0.00    +0.000 A 
ATOM      6  C   UNL     1      44.798   3.242   9.662  0.00  0.00    +0.000 A 
ATOM      7  C   UNL     1      44.797   4.594  10.040  0.00  0.00    +0.000 A 
BRANCH   6   8
ATOM      8  C   UNL     1      45.645   2.743   8.558  0.00  0.00    +0.000 A 
ATOM      9  C   UNL     1      46.201   3.609   7.605  0.00  0.00    +0.000 A 
ATOM     10  C   UNL     1      47.001   3.086   6.597  0.00  0.00    +0.000 A 
ATOM     11  N   UNL     1      47.295   1.779   6.470  0.00  0.00    +0.000 NA
ATOM     12  C   UNL     1      46.756   0.955   7.387  0.00  0.00    +0.000 A 
ATOM     13  F   UNL     1      47.039  -0.351   7.293  0.00  0.00    +0.000 F 
ATOM     14  C   UNL     1      45.941   1.379   8.425  0.00  0.00    +0.000 A 
ENDBRANCH   6   8
ENDBRANCH   1   2
BRANCH   1  15
ATOM     15  O   UNL     1      44.650   6.645  12.818  0.00  0.00    +0.000 OA
BRANCH  15  19
ATOM     16  C   UNL     1      48.627   7.634  12.415  0.00  0.00    +0.000 A 
ATOM     17  C   UNL     1      48.275   6.357  12.860  0.00  0.00    +0.000 A 
ATOM     18  C   UNL     1      46.923   6.031  12.987  0.00  0.00    +0.000 A 
ATOM     19  C   UNL     1      45.976   6.991  12.661  0.00  0.00    +0.000 A 
ATOM     20  N   UNL     1      46.289   8.228  12.222  0.00  0.00    +0.000 NA
ATOM     21  C   UNL     1      47.606   8.526  12.119  0.00  0.00    +0.000 A 
BRANCH  16  23
ATOM     22  N   UNL     1      50.873   7.355  11.519  0.00  0.00    +0.000 N 
ATOM     23  C   UNL     1      50.020   8.104  12.279  0.00  0.00    +0.000 C 
ATOM     24  O   UNL     1      50.392   9.146  12.801  0.00  0.00    +0.000 OA
ATOM     25  H   UNL     1      51.790   7.753  11.359  0.00  0.00    +0.000 HD
ATOM     26  H   UNL     1      50.557   6.638  10.880  0.00  0.00    +0.000 HD
ENDBRANCH  16  23
ENDBRANCH  15  19
ENDBRANCH   1  15
TORSDOF 5
ENDMDL
MODEL 7
REMARK VINA RESULT:    -7.799      3.726      7.483
REMARK INTER + INTRA:         -10.757
REMARK INTER:                 -10.464
REMARK INTRA:                  -0.293
REMARK UNBOUND:                -0.678
REMARK  Name = 
REMARK  5 active torsions:
REMARK  status: ('A' for Active; 'I' for Inactive)
REMARK    1  A    between atoms: C_2  and  C_4
REMARK    2  A    between atoms: C_7  and  O_8
REMARK    3  A    between atoms: O_8  and  C_9
REMARK    4  A    between atoms: C_9  and  C_10
REMARK    5  A    between atoms: C_14  and  C_15
REMARK                            x       y       z     vdW  Elec       q    Type
REMARK                         _______ _______ _______ _____ _____    ______ ____
ROOT
ATOM      1  C   UNL     1      45.324   6.834  11.369  0.00  0.00    +0.000 C 
ENDROOT
BRANCH   1   2
ATOM      2  C   UNL     1      44.879   5.514  10.793  0.00  0.00    +0.000 A 
ATOM      3  C   UNL     1      43.701   4.935  11.252  0.00  0.00    +0.000 A 
ATOM      4  N   UNL     1      43.226   3.748  10.824  0.00  0.00    +0.000 NA
ATOM      5  C   UNL     1      43.964   3.099   9.889  0.00  0.00    +0.000 A 
ATOM      6  C   UNL     1      45.154   3.572   9.334  0.00  0.00    +0.000 A 
ATOM      7  C   UNL     1      45.596   4.814   9.816  0.00  0.00    +0.000 A 
BRANCH   6   8
ATOM      8  C   UNL     1      45.910   2.821   8.310  0.00  0.00    +0.000 A 
ATOM      9  C   UNL     1      46.565   3.470   7.252  0.00  0.00    +0.000 A 
ATOM     10  C   UNL     1      47.272   2.715   6.325  0.00  0.00    +0.000 A 
ATOM     11  N   UNL     1      47.384   1.375   6.373  0.00  0.00    +0.000 NA
ATOM     12  C   UNL     1      46.752   0.760   7.390  0.00  0.00    +0.000 A 
ATOM     13  F   UNL     1      46.853  -0.573   7.470  0.00  0.00    +0.000 F 
ATOM     14  C   UNL     1      46.017   1.424   8.359  0.00  0.00    +0.000 A 
ENDBRANCH   6   8
ENDBRANCH   1   2
BRANCH   1  15
ATOM     15  O   UNL     1      46.739   6.869  11.588  0.00  0.00    +0.000 OA
BRANCH  15  19
ATOM     16  C   UNL     1      47.833   5.511  15.319  0.00  0.00    +0.000 A 
ATOM     17  C   UNL     1      48.405   6.682  14.815  0.00  0.00    +0.000 A 
ATOM     18  C   UNL     1      48.022   7.136  13.552  0.00  0.00    +0.000 A 
ATOM     19  C   UNL     1      47.080   6.406  12.843  0.00  0.00    +0.000 A 
ATOM     20  N   UNL     1      46.506   5.276  13.309  0.00  0.00    +0.000 NA
ATOM     21  C   UNL     1      46.903   4.849  14.530  0.00  0.00    +0.000 A 
BRANCH  16  23
ATOM     22  N   UNL     1      47.193   4.771  17.547  0.00  0.00    +0.000 N 
ATOM     23  C   UNL     1      48.188   4.916  16.623  0.00  0.00    +0.000 C 
ATOM     24  O   UNL     1      49.326   4.534  16.857  0.00  0.00    +0.000 OA
ATOM     25  H   UNL     1      47.441   4.267  18.391  0.00  0.00    +0.000 HD
ATOM     26  H   UNL     1      46.211   4.839  17.317  0.00  0.00    +0.000 HD
ENDBRANCH  16  23
ENDBRANCH  15  19
ENDBRANCH   1  15
TORSDOF 5
ENDMDL
MODEL 8
REMARK VINA RESULT:    -7.527      4.412      8.088
REMARK INTER + INTRA:         -10.404
REMARK INTER:                  -9.893
REMARK INTRA:                  -0.512
REMARK UNBOUND:                -0.678
REMARK  Name = 
REMARK  5 active torsions:
REMARK  status: ('A' for Active; 'I' for Inactive)
REMARK    1  A    between atoms: C_2  and  C_4
REMARK    2  A    between atoms: C_7  and  O_8
REMARK    3  A    between atoms: O_8  and  C_9
REMARK    4  A    between atoms: C_9  and  C_10
REMARK    5  A    between atoms: C_14  and  C_15
REMARK                            x       y       z     vdW  Elec       q    Type
REMARK                         _______ _______ _______ _____ _____    ______ ____
ROOT
ATOM      1  C   UNL     1      45.372   4.681  13.615  0.00  0.00    +0.000 C 
ENDROOT
BRANCH   1   2
ATOM      2  C   UNL     1      44.854   4.605  12.202  0.00  0.00    +0.000 A 
ATOM      3  C   UNL     1      43.656   5.232  11.883  0.00  0.00    +0.000 A 
ATOM      4  N   UNL     1      43.091   5.206  10.658  0.00  0.00    +0.000 NA
ATOM      5  C   UNL     1      43.753   4.514   9.699  0.00  0.00    +0.000 A 
ATOM      6  C   UNL     1      44.968   3.851   9.879  0.00  0.00    +0.000 A 
ATOM      7  C   UNL     1      45.509   3.918  11.173  0.00  0.00    +0.000 A 
BRANCH   6   8
ATOM      8  C   UNL     1      45.647   3.120   8.789  0.00  0.00    +0.000 A 
ATOM      9  C   UNL     1      46.224   3.788   7.698  0.00  0.00    +0.000 A 
ATOM     10  C   UNL     1      46.862   3.052   6.709  0.00  0.00    +0.000 A 
ATOM     11  N   UNL     1      46.977   1.711   6.725  0.00  0.00    +0.000 NA
ATOM     12  C   UNL     1      46.421   1.077   7.773  0.00  0.00    +0.000 A 
ATOM     13  F   UNL     1      46.528  -0.258   7.822  0.00  0.00    +0.000 F 
ATOM     14  C   UNL     1      45.758   1.722   8.805  0.00  0.00    +0.000 A 
ENDBRANCH   6   8
ENDBRANCH   1   2
BRANCH   1  15
ATOM     15  O   UNL     1      46.778   4.957  13.653  0.00  0.00    +0.000 OA
BRANCH  15  19
ATOM     16  C   UNL     1      48.449   4.343  17.366  0.00  0.00    +0.000 A 
ATOM     17  C   UNL     1      48.694   5.540  16.688  0.00  0.00    +0.000 A 
ATOM     18  C   UNL     1      48.117   5.739  15.432  0.00  0.00    +0.000 A 
ATOM     19  C   UNL     1      47.315   4.739  14.905  0.00  0.00    +0.000 A 
ATOM     20  N   UNL     1      47.055   3.577  15.542  0.00  0.00    +0.000 NA
ATOM     21  C   UNL     1      47.636   3.401  16.752  0.00  0.00    +0.000 A 
BRANCH  16  23
ATOM     22  N   UNL     1      48.327   3.168  19.494  0.00  0.00    +0.000 N 
ATOM     23  C   UNL     1      49.034   4.005  18.679  0.00  0.00    +0.000 C 
ATOM     24  O   UNL     1      50.129   4.434  19.015  0.00  0.00    +0.000 OA
ATOM     25  H   UNL     1      48.796   2.872  20.341  0.00  0.00    +0.000 HD
ATOM     26  H   UNL     1      47.554   2.604  19.168  0.00  0.00    +0.000 HD
ENDBRANCH  16  23
ENDBRANCH  15  19
ENDBRANCH   1  15
TORSDOF 5
ENDMDL
MODEL 9
REMARK VINA RESULT:    -7.324      4.021      7.797
REMARK INTER + INTRA:         -10.143
REMARK INTER:                  -9.525
REMARK INTRA:                  -0.618
REMARK UNBOUND:                -0.678
REMARK  Name = 
REMARK  5 active torsions:
REMARK  status: ('A' for Active; 'I' for Inactive)
REMARK    1  A    between atoms: C_2  and  C_4
REMARK    2  A    between atoms: C_7  and  O_8
REMARK    3  A    between atoms: O_8  and  C_9
REMARK    4  A    between atoms: C_9  and  C_10
REMARK    5  A    between atoms: C_14  and  C_15
REMARK                            x       y       z     vdW  Elec       q    Type
REMARK                         _______ _______ _______ _____ _____    ______ ____
ROOT
ATOM      1  C   UNL     1      44.919   3.942  13.205  0.00  0.00    +0.000 C 
ENDROOT
BRANCH   1   2
ATOM      2  C   UNL     1      44.688   4.053  11.720  0.00  0.00    +0.000 A 
ATOM      3  C   UNL     1      43.684   4.890  11.248  0.00  0.00    +0.000 A 
ATOM      4  N   UNL     1      43.378   5.044   9.944  0.00  0.00    +0.000 NA
ATOM      5  C   UNL     1      44.110   4.323   9.059  0.00  0.00    +0.000 A 
ATOM      6  C   UNL     1      45.153   3.458   9.395  0.00  0.00    +0.000 A 
ATOM      7  C   UNL     1      45.427   3.343  10.767  0.00  0.00    +0.000 A 
BRANCH   6   8
ATOM      8  C   UNL     1      45.921   2.705   8.382  0.00  0.00    +0.000 A 
ATOM      9  C   UNL     1      46.633   3.354   7.361  0.00  0.00    +0.000 A 
ATOM     10  C   UNL     1      47.350   2.596   6.444  0.00  0.00    +0.000 A 
ATOM     11  N   UNL     1      47.419   1.253   6.468  0.00  0.00    +0.000 NA
ATOM     12  C   UNL     1      46.733   0.637   7.448  0.00  0.00    +0.000 A 
ATOM     13  F   UNL     1      46.791  -0.700   7.505  0.00  0.00    +0.000 F 
ATOM     14  C   UNL     1      45.984   1.304   8.405  0.00  0.00    +0.000 A 
ENDBRANCH   6   8
ENDBRANCH   1   2
BRANCH   1  15
ATOM     15  O   UNL     1      46.222   3.427  13.505  0.00  0.00    +0.000 OA
BRANCH  15  19
ATOM     16  C   UNL     1      48.393   6.043  15.830  0.00  0.00    +0.000 A 
ATOM     17  C   UNL     1      47.916   4.855  16.389  0.00  0.00    +0.000 A 
ATOM     18  C   UNL     1      47.187   3.972  15.589  0.00  0.00    +0.000 A 
ATOM     19  C   UNL     1      46.965   4.309  14.262  0.00  0.00    +0.000 A 
ATOM     20  N   UNL     1      47.421   5.446  13.695  0.00  0.00    +0.000 NA
ATOM     21  C   UNL     1      48.115   6.292  14.493  0.00  0.00    +0.000 A 
BRANCH  16  23
ATOM     22  N   UNL     1      48.581   8.307  16.703  0.00  0.00    +0.000 N 
ATOM     23  C   UNL     1      49.142   7.067  16.585  0.00  0.00    +0.000 C 
ATOM     24  O   UNL     1      50.213   6.806  17.117  0.00  0.00    +0.000 OA
ATOM     25  H   UNL     1      49.066   8.956  17.311  0.00  0.00    +0.000 HD
ATOM     26  H   UNL     1      47.609   8.494  16.500  0.00  0.00    +0.000 HD
ENDBRANCH  16  23
ENDBRANCH  15  19
ENDBRANCH   1  15
TORSDOF 5
ENDMDL
