MODEL 1
REMARK VINA RESULT:    -7.574      0.000      0.000
REMARK INTER + INTRA:         -11.894
REMARK INTER:                 -10.673
REMARK INTRA:                  -1.221
REMARK UNBOUND:                -1.221
REMARK  Name = 
REMARK  7 active torsions:
REMARK  status: ('A' for Active; 'I' for Inactive)
REMARK    1  A    between atoms: C_2  and  C_3
REMARK    2  A    between atoms: C_8  and  C_9
REMARK    3  A    between atoms: N_11  and  C_12
REMARK    4  A    between atoms: C_12  and  C_13
REMARK    5  A    between atoms: C_16  and  C_17
REMARK    6  A    between atoms: C_17  and  N_18
REMARK    7  A    between atoms: C_19  and  C_21
REMARK                            x       y       z     vdW  Elec       q    Type
REMARK                         _______ _______ _______ _____ _____    ______ ____
ROOT
ATOM      1  C   UNL     1      50.186   7.113  15.641  0.00  0.00    +0.000 A 
ATOM      2  C   UNL     1      48.891   6.579  15.606  0.00  0.00    +0.000 A 
ATOM      3  C   UNL     1      48.081   6.737  14.476  0.00  0.00    +0.000 A 
ATOM      4  C   UNL     1      48.557   7.409  13.343  0.00  0.00    +0.000 A 
ATOM      5  C   UNL     1      49.851   7.947  13.379  0.00  0.00    +0.000 A 
ATOM      6  C   UNL     1      50.660   7.794  14.512  0.00  0.00    +0.000 A 
ENDROOT
BRANCH   1   7
ATOM      7  C   UNL     1      51.046   6.956  16.872  0.00  0.00    +0.000 C 
BRANCH   7  10
ATOM      8  C   UNL     1      51.154   4.715  17.891  0.00  0.00    +0.000 C 
ATOM      9  O   UNL     1      50.209   4.945  18.642  0.00  0.00    +0.000 OA
ATOM     10  N   UNL     1      51.620   5.629  16.975  0.00  0.00    +0.000 N 
ATOM     11  H   UNL     1      52.310   5.380  16.281  0.00  0.00    +0.000 HD
BRANCH   8  17
ATOM     12  C   UNL     1      51.284   2.196  17.386  0.00  0.00    +0.000 A 
ATOM     13  C   UNL     1      52.040   1.009  17.435  0.00  0.00    +0.000 A 
ATOM     14  C   UNL     1      53.293   0.984  18.046  0.00  0.00    +0.000 A 
ATOM     15  C   UNL     1      53.806   2.143  18.618  0.00  0.00    +0.000 A 
ATOM     16  C   UNL     1      53.069   3.328  18.565  0.00  0.00    +0.000 A 
ATOM     17  C   UNL     1      51.803   3.372  17.958  0.00  0.00    +0.000 A 
BRANCH  12  19
ATOM     18  N   UNL     1      49.009   2.079  16.154  0.00  0.00    +0.000 NA
ATOM     19  C   UNL     1      50.012   2.143  16.732  0.00  0.00    +0.000 C 
ENDBRANCH  12  19
ENDBRANCH   8  17
ENDBRANCH   7  10
ENDBRANCH   1   7
BRANCH   4  20
ATOM     20  C   UNL     1      47.689   7.575  12.120  0.00  0.00    +0.000 C 
BRANCH  20  21
ATOM     21  N   UNL     1      46.965   6.367  11.811  0.00  0.00    +0.000 N 
ATOM     22  C   UNL     1      45.596   6.312  11.900  0.00  0.00    +0.000 C 
ATOM     23  O   UNL     1      44.925   7.295  12.202  0.00  0.00    +0.000 OA
ATOM     24  H   UNL     1      47.499   5.504  11.781  0.00  0.00    +0.000 HD
BRANCH  22  25
ATOM     25  C   UNL     1      44.963   5.032  11.554  0.00  0.00    +0.000 A 
ATOM     26  C   UNL     1      44.233   4.342  12.513  0.00  0.00    +0.000 A 
ATOM     27  S   UNL     1      43.527   2.902  11.934  0.00  0.00    +0.000 S 
ATOM     28  C   UNL     1      44.215   3.120  10.393  0.00  0.00    +0.000 A 
ATOM     29  N   UNL     1      44.020   2.208   9.404  0.00  0.00    +0.000 NA
ATOM     30  C   UNL     1      44.623   2.483   8.296  0.00  0.00    +0.000 A 
ATOM     31  N   UNL     1      45.399   3.595   8.087  0.00  0.00    +0.000 N 
ATOM     32  C   UNL     1      45.601   4.555   9.046  0.00  0.00    +0.000 A 
ATOM     33  O   UNL     1      46.273   5.557   8.813  0.00  0.00    +0.000 OA
ATOM     34  C   UNL     1      44.956   4.288  10.317  0.00  0.00    +0.000 A 
ATOM     35  H   UNL     1      45.838   3.756   7.193  0.00  0.00    +0.000 HD
ENDBRANCH  22  25
ENDBRANCH  20  21
ENDBRANCH   4  20
TORSDOF 7
ENDMDL
MODEL 2
REMARK VINA RESULT:    -7.402      1.313      2.119
REMARK INTER + INTRA:         -11.652
REMARK INTER:                 -10.542
REMARK INTRA:                  -1.110
REMARK UNBOUND:                -1.221
REMARK  Name = 
REMARK  7 active torsions:
REMARK  status: ('A' for Active; 'I' for Inactive)
REMARK    1  A    between atoms: C_2  and  C_3
REMARK    2  A    between atoms: C_8  and  C_9
REMARK    3  A    between atoms: N_11  and  C_12
REMARK    4  A    between atoms: C_12  and  C_13
REMARK    5  A    between atoms: C_16  and  C_17
REMARK    6  A    between atoms: C_17  and  N_18
REMARK    7  A    between atoms: C_19  and  C_21
REMARK                            x       y       z     vdW  Elec       q    Type
REMARK                         _______ _______ _______ _____ _____    ______ ____
ROOT
ATOM      1  C   UNL     1      49.952   7.192  15.920  0.00  0.00    +0.000 A 
ATOM      2  C   UNL     1      50.547   8.155  15.093  0.00  0.00    +0.000 A 
ATOM      3  C   UNL     1      50.024   8.431  13.824  0.00  0.00    +0.000 A 
ATOM      4  C   UNL     1      48.879   7.769  13.362  0.00  0.00    +0.000 A 
ATOM      5  C   UNL     1      48.287   6.803  14.187  0.00  0.00    +0.000 A 
ATOM      6  C   UNL     1      48.812   6.522  15.455  0.00  0.00    +0.000 A 
ENDROOT
BRANCH   1   7
ATOM      7  C   UNL     1      50.534   6.886  17.278  0.00  0.00    +0.000 C 
BRANCH   7  10
ATOM      8  C   UNL     1      50.812   4.576  18.091  0.00  0.00    +0.000 C 
ATOM      9  O   UNL     1      49.800   4.634  18.785  0.00  0.00    +0.000 OA
ATOM     10  N   UNL     1      51.238   5.619  17.301  0.00  0.00    +0.000 N 
ATOM     11  H   UNL     1      51.995   5.510  16.642  0.00  0.00    +0.000 HD
BRANCH   8  17
ATOM     12  C   UNL     1      51.218   2.129  17.405  0.00  0.00    +0.000 A 
ATOM     13  C   UNL     1      52.090   1.025  17.394  0.00  0.00    +0.000 A 
ATOM     14  C   UNL     1      53.321   1.079  18.049  0.00  0.00    +0.000 A 
ATOM     15  C   UNL     1      53.694   2.237  18.723  0.00  0.00    +0.000 A 
ATOM     16  C   UNL     1      52.840   3.342  18.731  0.00  0.00    +0.000 A 
ATOM     17  C   UNL     1      51.595   3.304  18.082  0.00  0.00    +0.000 A 
BRANCH  12  19
ATOM     18  N   UNL     1      48.999   1.921  16.086  0.00  0.00    +0.000 NA
ATOM     19  C   UNL     1      49.978   1.999  16.703  0.00  0.00    +0.000 C 
ENDBRANCH  12  19
ENDBRANCH   8  17
ENDBRANCH   7  10
ENDBRANCH   1   7
BRANCH   4  20
ATOM     20  C   UNL     1      48.310   8.070  11.998  0.00  0.00    +0.000 C 
BRANCH  20  21
ATOM     21  N   UNL     1      47.598   6.939  11.455  0.00  0.00    +0.000 N 
ATOM     22  C   UNL     1      46.230   6.942  11.347  0.00  0.00    +0.000 C 
ATOM     23  O   UNL     1      45.555   7.919  11.663  0.00  0.00    +0.000 OA
ATOM     24  H   UNL     1      48.102   6.060  11.402  0.00  0.00    +0.000 HD
BRANCH  22  25
ATOM     25  C   UNL     1      45.610   5.739  10.773  0.00  0.00    +0.000 A 
ATOM     26  C   UNL     1      45.742   5.477   9.415  0.00  0.00    +0.000 A 
ATOM     27  S   UNL     1      45.005   4.019   8.924  0.00  0.00    +0.000 S 
ATOM     28  C   UNL     1      44.439   3.712  10.498  0.00  0.00    +0.000 A 
ATOM     29  N   UNL     1      43.694   2.606  10.770  0.00  0.00    +0.000 NA
ATOM     30  C   UNL     1      43.306   2.513  11.998  0.00  0.00    +0.000 A 
ATOM     31  N   UNL     1      43.603   3.422  12.981  0.00  0.00    +0.000 N 
ATOM     32  C   UNL     1      44.373   4.536  12.759  0.00  0.00    +0.000 A 
ATOM     33  O   UNL     1      44.650   5.312  13.671  0.00  0.00    +0.000 OA
ATOM     34  C   UNL     1      44.825   4.698  11.391  0.00  0.00    +0.000 A 
ATOM     35  H   UNL     1      43.275   3.287  13.925  0.00  0.00    +0.000 HD
ENDBRANCH  22  25
ENDBRANCH  20  21
ENDBRANCH   4  20
TORSDOF 7
ENDMDL
MODEL 3
REMARK VINA RESULT:    -7.266      2.946      9.642
REMARK INTER + INTRA:         -11.461
REMARK INTER:                 -10.416
REMARK INTRA:                  -1.045
REMARK UNBOUND:                -1.221
REMARK  Name = 
REMARK  7 active torsions:
REMARK  status: ('A' for Active; 'I' for Inactive)
REMARK    1  A    between atoms: C_2  and  C_3
REMARK    2  A    between atoms: C_8  and  C_9
REMARK    3  A    between atoms: N_11  and  C_12
REMARK    4  A    between atoms: C_12  and  C_13
REMARK    5  A    between atoms: C_16  and  C_17
REMARK    6  A    between atoms: C_17  and  N_18
REMARK    7  A    between atoms: C_19  and  C_21
REMARK                            x       y       z     vdW  Elec       q    Type
REMARK                         _______ _______ _______ _____ _____    ______ ____
ROOT
ATOM      1  C   UNL     1      47.487   5.715  14.556  0.00  0.00    +0.000 A 
ATOM      2  C   UNL     1      48.403   6.232  15.483  0.00  0.00    +0.000 A 
ATOM      3  C   UNL     1      48.717   5.526  16.650  0.00  0.00    +0.000 A 
ATOM      4  C   UNL     1      48.143   4.274  16.905  0.00  0.00    +0.000 A 
ATOM      5  C   UNL     1      47.225   3.758  15.981  0.00  0.00    +0.000 A 
ATOM      6  C   UNL     1      46.905   4.466  14.815  0.00  0.00    +0.000 A 
ENDROOT
BRANCH   1   7
ATOM      7  C   UNL     1      47.138   6.491  13.310  0.00  0.00    +0.000 C 
BRANCH   7  10
ATOM      8  C   UNL     1      45.621   5.681  11.544  0.00  0.00    +0.000 C 
ATOM      9  O   UNL     1      44.744   6.487  11.845  0.00  0.00    +0.000 OA
ATOM     10  N   UNL     1      46.835   5.623  12.189  0.00  0.00    +0.000 N 
ATOM     11  H   UNL     1      47.590   5.045  11.847  0.00  0.00    +0.000 HD
BRANCH   8  17
ATOM     12  C   UNL     1      44.599   3.570  10.488  0.00  0.00    +0.000 A 
ATOM     13  C   UNL     1      44.353   2.821   9.322  0.00  0.00    +0.000 A 
ATOM     14  C   UNL     1      44.865   3.228   8.090  0.00  0.00    +0.000 A 
ATOM     15  C   UNL     1      45.629   4.387   8.008  0.00  0.00    +0.000 A 
ATOM     16  C   UNL     1      45.870   5.143   9.158  0.00  0.00    +0.000 A 
ATOM     17  C   UNL     1      45.367   4.746  10.409  0.00  0.00    +0.000 A 
BRANCH  12  19
ATOM     18  N   UNL     1      43.621   2.674  12.713  0.00  0.00    +0.000 NA
ATOM     19  C   UNL     1      44.031   3.092  11.712  0.00  0.00    +0.000 C 
ENDBRANCH  12  19
ENDBRANCH   8  17
ENDBRANCH   7  10
ENDBRANCH   1   7
BRANCH   4  20
ATOM     20  C   UNL     1      48.486   3.508  18.159  0.00  0.00    +0.000 C 
BRANCH  20  21
ATOM     21  N   UNL     1      49.900   3.243  18.255  0.00  0.00    +0.000 N 
ATOM     22  C   UNL     1      50.518   2.352  17.414  0.00  0.00    +0.000 C 
ATOM     23  O   UNL     1      49.908   1.776  16.516  0.00  0.00    +0.000 OA
ATOM     24  H   UNL     1      50.365   3.527  19.111  0.00  0.00    +0.000 HD
BRANCH  22  25
ATOM     25  C   UNL     1      51.964   2.165  17.597  0.00  0.00    +0.000 A 
ATOM     26  C   UNL     1      52.486   0.882  17.698  0.00  0.00    +0.000 A 
ATOM     27  S   UNL     1      54.184   0.844  17.859  0.00  0.00    +0.000 S 
ATOM     28  C   UNL     1      54.278   2.542  17.852  0.00  0.00    +0.000 A 
ATOM     29  N   UNL     1      55.473   3.178  17.984  0.00  0.00    +0.000 NA
ATOM     30  C   UNL     1      55.396   4.466  17.992  0.00  0.00    +0.000 A 
ATOM     31  N   UNL     1      54.228   5.177  17.872  0.00  0.00    +0.000 N 
ATOM     32  C   UNL     1      53.004   4.580  17.709  0.00  0.00    +0.000 A 
ATOM     33  O   UNL     1      51.982   5.248  17.569  0.00  0.00    +0.000 OA
ATOM     34  C   UNL     1      53.032   3.130  17.708  0.00  0.00    +0.000 A 
ATOM     35  H   UNL     1      54.236   6.186  17.877  0.00  0.00    +0.000 HD
ENDBRANCH  22  25
ENDBRANCH  20  21
ENDBRANCH   4  20
TORSDOF 7
ENDMDL
MODEL 4
REMARK VINA RESULT:    -7.197      3.140      9.751
REMARK INTER + INTRA:         -11.363
REMARK INTER:                 -10.309
REMARK INTRA:                  -1.054
REMARK UNBOUND:                -1.221
REMARK  Name = 
REMARK  7 active torsions:
REMARK  status: ('A' for Active; 'I' for Inactive)
REMARK    1  A    between atoms: C_2  and  C_3
REMARK    2  A    between atoms: C_8  and  C_9
REMARK    3  A    between atoms: N_11  and  C_12
REMARK    4  A    between atoms: C_12  and  C_13
REMARK    5  A    between atoms: C_16  and  C_17
REMARK    6  A    between atoms: C_17  and  N_18
REMARK    7  A    between atoms: C_19  and  C_21
REMARK                            x       y       z     vdW  Elec       q    Type
REMARK                         _______ _______ _______ _____ _____    ______ ____
ROOT
ATOM      1  C   UNL     1      47.345   5.961  14.318  0.00  0.00    +0.000 A 
ATOM      2  C   UNL     1      48.347   6.634  15.029  0.00  0.00    +0.000 A 
ATOM      3  C   UNL     1      48.909   6.071  16.181  0.00  0.00    +0.000 A 
ATOM      4  C   UNL     1      48.501   4.809  16.633  0.00  0.00    +0.000 A 
ATOM      5  C   UNL     1      47.495   4.137  15.924  0.00  0.00    +0.000 A 
ATOM      6  C   UNL     1      46.928   4.702  14.775  0.00  0.00    +0.000 A 
ENDROOT
BRANCH   1   7
ATOM      7  C   UNL     1      46.729   6.583  13.089  0.00  0.00    +0.000 C 
BRANCH   7  10
ATOM      8  C   UNL     1      45.381   5.609  11.270  0.00  0.00    +0.000 C 
ATOM      9  O   UNL     1      44.478   6.427  11.420  0.00  0.00    +0.000 OA
ATOM     10  N   UNL     1      46.532   5.619  12.024  0.00  0.00    +0.000 N 
ATOM     11  H   UNL     1      47.316   5.022  11.804  0.00  0.00    +0.000 HD
BRANCH   8  17
ATOM     12  C   UNL     1      44.521   3.371  10.336  0.00  0.00    +0.000 A 
ATOM     13  C   UNL     1      44.375   2.523   9.222  0.00  0.00    +0.000 A 
ATOM     14  C   UNL     1      44.932   2.860   7.989  0.00  0.00    +0.000 A 
ATOM     15  C   UNL     1      45.642   4.048   7.853  0.00  0.00    +0.000 A 
ATOM     16  C   UNL     1      45.783   4.902   8.949  0.00  0.00    +0.000 A 
ATOM     17  C   UNL     1      45.234   4.576  10.201  0.00  0.00    +0.000 A 
BRANCH  12  19
ATOM     18  N   UNL     1      43.407   2.574  12.534  0.00  0.00    +0.000 NA
ATOM     19  C   UNL     1      43.912   2.960  11.564  0.00  0.00    +0.000 C 
ENDBRANCH  12  19
ENDBRANCH   8  17
ENDBRANCH   7  10
ENDBRANCH   1   7
BRANCH   4  20
ATOM     20  C   UNL     1      49.110   4.197  17.870  0.00  0.00    +0.000 C 
BRANCH  20  21
ATOM     21  N   UNL     1      50.461   3.749  17.636  0.00  0.00    +0.000 N 
ATOM     22  C   UNL     1      51.468   4.022  18.526  0.00  0.00    +0.000 C 
ATOM     23  O   UNL     1      51.260   4.619  19.580  0.00  0.00    +0.000 OA
ATOM     24  H   UNL     1      50.693   3.461  16.690  0.00  0.00    +0.000 HD
BRANCH  22  25
ATOM     25  C   UNL     1      52.804   3.511  18.189  0.00  0.00    +0.000 A 
ATOM     26  C   UNL     1      53.905   4.355  18.264  0.00  0.00    +0.000 A 
ATOM     27  S   UNL     1      55.382   3.591  17.886  0.00  0.00    +0.000 S 
ATOM     28  C   UNL     1      54.598   2.117  17.559  0.00  0.00    +0.000 A 
ATOM     29  N   UNL     1      55.301   1.026  17.150  0.00  0.00    +0.000 NA
ATOM     30  C   UNL     1      54.578  -0.016  16.909  0.00  0.00    +0.000 A 
ATOM     31  N   UNL     1      53.214  -0.067  17.047  0.00  0.00    +0.000 N 
ATOM     32  C   UNL     1      52.468   0.999  17.483  0.00  0.00    +0.000 A 
ATOM     33  O   UNL     1      51.252   0.907  17.630  0.00  0.00    +0.000 OA
ATOM     34  C   UNL     1      53.230   2.202  17.755  0.00  0.00    +0.000 A 
ATOM     35  H   UNL     1      52.708  -0.917  16.849  0.00  0.00    +0.000 HD
ENDBRANCH  22  25
ENDBRANCH  20  21
ENDBRANCH   4  20
TORSDOF 7
ENDMDL
MODEL 5
REMARK VINA RESULT:    -6.950      2.743      9.011
REMARK INTER + INTRA:         -11.015
REMARK INTER:                  -9.919
REMARK INTRA:                  -1.095
REMARK UNBOUND:                -1.221
REMARK  Name = 
REMARK  7 active torsions:
REMARK  status: ('A' for Active; 'I' for Inactive)
REMARK    1  A    between atoms: C_2  and  C_3
REMARK    2  A    between atoms: C_8  and  C_9
REMARK    3  A    between atoms: N_11  and  C_12
REMARK    4  A    between atoms: C_12  and  C_13
REMARK    5  A    between atoms: C_16  and  C_17
REMARK    6  A    between atoms: C_17  and  N_18
REMARK    7  A    between atoms: C_19  and  C_21
REMARK                            x       y       z     vdW  Elec       q    Type
REMARK                         _______ _______ _______ _____ _____    ______ ____
ROOT
ATOM      1  C   UNL     1      46.817   7.596  13.306  0.00  0.00    +0.000 A 
ATOM      2  C   UNL     1      47.546   6.498  13.781  0.00  0.00    +0.000 A 
ATOM      3  C   UNL     1      48.643   6.680  14.630  0.00  0.00    +0.000 A 
ATOM      4  C   UNL     1      49.020   7.963  15.048  0.00  0.00    +0.000 A 
ATOM      5  C   UNL     1      48.293   9.062  14.570  0.00  0.00    +0.000 A 
ATOM      6  C   UNL     1      47.199   8.881  13.715  0.00  0.00    +0.000 A 
ENDROOT
BRANCH   1   7
ATOM      7  C   UNL     1      45.648   7.394  12.373  0.00  0.00    +0.000 C 
BRANCH   7  10
ATOM      8  C   UNL     1      44.771   5.630  10.891  0.00  0.00    +0.000 C 
ATOM      9  O   UNL     1      43.611   6.010  11.026  0.00  0.00    +0.000 OA
ATOM     10  N   UNL     1      45.838   6.257  11.493  0.00  0.00    +0.000 N 
ATOM     11  H   UNL     1      46.792   6.012  11.271  0.00  0.00    +0.000 HD
BRANCH   8  17
ATOM     12  C   UNL     1      44.606   3.139  10.271  0.00  0.00    +0.000 A 
ATOM     13  C   UNL     1      44.836   2.132   9.314  0.00  0.00    +0.000 A 
ATOM     14  C   UNL     1      45.487   2.420   8.115  0.00  0.00    +0.000 A 
ATOM     15  C   UNL     1      45.918   3.717   7.858  0.00  0.00    +0.000 A 
ATOM     16  C   UNL     1      45.685   4.726   8.796  0.00  0.00    +0.000 A 
ATOM     17  C   UNL     1      45.035   4.453  10.011  0.00  0.00    +0.000 A 
BRANCH  12  19
ATOM     18  N   UNL     1      43.415   2.482  12.475  0.00  0.00    +0.000 NA
ATOM     19  C   UNL     1      43.922   2.766  11.471  0.00  0.00    +0.000 C 
ENDBRANCH  12  19
ENDBRANCH   8  17
ENDBRANCH   7  10
ENDBRANCH   1   7
BRANCH   4  20
ATOM     20  C   UNL     1      50.197   8.161  15.970  0.00  0.00    +0.000 C 
BRANCH  20  21
ATOM     21  N   UNL     1      50.879   6.920  16.241  0.00  0.00    +0.000 N 
ATOM     22  C   UNL     1      51.422   6.659  17.475  0.00  0.00    +0.000 C 
ATOM     23  O   UNL     1      51.313   7.445  18.412  0.00  0.00    +0.000 OA
ATOM     24  H   UNL     1      51.171   6.370  15.440  0.00  0.00    +0.000 HD
BRANCH  22  25
ATOM     25  C   UNL     1      52.088   5.359  17.641  0.00  0.00    +0.000 A 
ATOM     26  C   UNL     1      53.445   5.312  17.930  0.00  0.00    +0.000 A 
ATOM     27  S   UNL     1      54.048   3.729  18.137  0.00  0.00    +0.000 S 
ATOM     28  C   UNL     1      52.527   3.047  17.797  0.00  0.00    +0.000 A 
ATOM     29  N   UNL     1      52.353   1.698  17.783  0.00  0.00    +0.000 NA
ATOM     30  C   UNL     1      51.156   1.317  17.481  0.00  0.00    +0.000 A 
ATOM     31  N   UNL     1      50.116   2.166  17.199  0.00  0.00    +0.000 N 
ATOM     32  C   UNL     1      50.239   3.533  17.229  0.00  0.00    +0.000 A 
ATOM     33  O   UNL     1      49.277   4.264  17.006  0.00  0.00    +0.000 OA
ATOM     34  C   UNL     1      51.568   4.016  17.549  0.00  0.00    +0.000 A 
ATOM     35  H   UNL     1      49.201   1.804  16.978  0.00  0.00    +0.000 HD
ENDBRANCH  22  25
ENDBRANCH  20  21
ENDBRANCH   4  20
TORSDOF 7
ENDMDL
MODEL 6
REMARK VINA RESULT:    -6.805      2.669      8.970
REMARK INTER + INTRA:         -10.810
REMARK INTER:                  -9.778
REMARK INTRA:                  -1.032
REMARK UNBOUND:                -1.221
REMARK  Name = 
REMARK  7 active torsions:
REMARK  status: ('A' for Active; 'I' for Inactive)
REMARK    1  A    between atoms: C_2  and  C_3
REMARK    2  A    between atoms: C_8  and  C_9
REMARK    3  A    between atoms: N_11  and  C_12
REMARK    4  A    between atoms: C_12  and  C_13
REMARK    5  A    between atoms: C_16  and  C_17
REMARK    6  A    between atoms: C_17  and  N_18
REMARK    7  A    between atoms: C_19  and  C_21
REMARK                            x       y       z     vdW  Elec       q    Type
REMARK                         _______ _______ _______ _____ _____    ______ ____
ROOT
ATOM      1  C   UNL     1      48.320   7.939  13.415  0.00  0.00    +0.000 A 
ATOM      2  C   UNL     1      47.804   8.788  14.403  0.00  0.00    +0.000 A 
ATOM      3  C   UNL     1      48.422   8.890  15.654  0.00  0.00    +0.000 A 
ATOM      4  C   UNL     1      49.588   8.166  15.937  0.00  0.00    +0.000 A 
ATOM      5  C   UNL     1      50.102   7.313  14.951  0.00  0.00    +0.000 A 
ATOM      6  C   UNL     1      49.480   7.206  13.700  0.00  0.00    +0.000 A 
ENDROOT
BRANCH   1   7
ATOM      7  C   UNL     1      47.635   7.819  12.075  0.00  0.00    +0.000 C 
BRANCH   7  10
ATOM      8  C   UNL     1      45.509   6.636  11.680  0.00  0.00    +0.000 C 
ATOM      9  O   UNL     1      44.899   7.680  11.467  0.00  0.00    +0.000 OA
ATOM     10  N   UNL     1      46.856   6.602  11.963  0.00  0.00    +0.000 N 
ATOM     11  H   UNL     1      47.366   5.732  12.009  0.00  0.00    +0.000 HD
BRANCH   8  17
ATOM     12  C   UNL     1      44.775   4.475  10.494  0.00  0.00    +0.000 A 
ATOM     13  C   UNL     1      44.103   3.240  10.576  0.00  0.00    +0.000 A 
ATOM     14  C   UNL     1      43.423   2.872  11.736  0.00  0.00    +0.000 A 
ATOM     15  C   UNL     1      43.403   3.733  12.828  0.00  0.00    +0.000 A 
ATOM     16  C   UNL     1      44.075   4.956  12.760  0.00  0.00    +0.000 A 
ATOM     17  C   UNL     1      44.762   5.346  11.598  0.00  0.00    +0.000 A 
BRANCH  12  19
ATOM     18  N   UNL     1      46.061   4.994   8.306  0.00  0.00    +0.000 NA
ATOM     19  C   UNL     1      45.458   4.775   9.273  0.00  0.00    +0.000 C 
ENDBRANCH  12  19
ENDBRANCH   8  17
ENDBRANCH   7  10
ENDBRANCH   1   7
BRANCH   4  20
ATOM     20  C   UNL     1      50.261   8.279  17.283  0.00  0.00    +0.000 C 
BRANCH  20  21
ATOM     21  N   UNL     1      51.109   7.145  17.554  0.00  0.00    +0.000 N 
ATOM     22  C   UNL     1      50.673   6.095  18.324  0.00  0.00    +0.000 C 
ATOM     23  O   UNL     1      49.532   6.052  18.778  0.00  0.00    +0.000 OA
ATOM     24  H   UNL     1      52.103   7.262  17.384  0.00  0.00    +0.000 HD
BRANCH  22  25
ATOM     25  C   UNL     1      51.619   4.990  18.529  0.00  0.00    +0.000 A 
ATOM     26  C   UNL     1      52.792   5.208  19.240  0.00  0.00    +0.000 A 
ATOM     27  S   UNL     1      53.752   3.811  19.426  0.00  0.00    +0.000 S 
ATOM     28  C   UNL     1      52.660   2.874  18.519  0.00  0.00    +0.000 A 
ATOM     29  N   UNL     1      52.903   1.558  18.273  0.00  0.00    +0.000 NA
ATOM     30  C   UNL     1      52.008   0.976  17.548  0.00  0.00    +0.000 A 
ATOM     31  N   UNL     1      50.885   1.590  17.053  0.00  0.00    +0.000 N 
ATOM     32  C   UNL     1      50.585   2.906  17.298  0.00  0.00    +0.000 A 
ATOM     33  O   UNL     1      49.553   3.415  16.869  0.00  0.00    +0.000 OA
ATOM     34  C   UNL     1      51.567   3.613  18.098  0.00  0.00    +0.000 A 
ATOM     35  H   UNL     1      50.219   1.075  16.498  0.00  0.00    +0.000 HD
ENDBRANCH  22  25
ENDBRANCH  20  21
ENDBRANCH   4  20
TORSDOF 7
ENDMDL
MODEL 7
REMARK VINA RESULT:    -6.515      5.617      8.953
REMARK INTER + INTRA:         -10.403
REMARK INTER:                  -9.379
REMARK INTRA:                  -1.024
REMARK UNBOUND:                -1.221
REMARK  Name = 
REMARK  7 active torsions:
REMARK  status: ('A' for Active; 'I' for Inactive)
REMARK    1  A    between atoms: C_2  and  C_3
REMARK    2  A    between atoms: C_8  and  C_9
REMARK    3  A    between atoms: N_11  and  C_12
REMARK    4  A    between atoms: C_12  and  C_13
REMARK    5  A    between atoms: C_16  and  C_17
REMARK    6  A    between atoms: C_17  and  N_18
REMARK    7  A    between atoms: C_19  and  C_21
REMARK                            x       y       z     vdW  Elec       q    Type
REMARK                         _______ _______ _______ _____ _____    ______ ____
ROOT
ATOM      1  C   UNL     1      48.205   8.212  12.208  0.00  0.00    +0.000 A 
ATOM      2  C   UNL     1      49.405   7.509  12.378  0.00  0.00    +0.000 A 
ATOM      3  C   UNL     1      50.634   8.106  12.074  0.00  0.00    +0.000 A 
ATOM      4  C   UNL     1      50.693   9.430  11.618  0.00  0.00    +0.000 A 
ATOM      5  C   UNL     1      49.492  10.132  11.445  0.00  0.00    +0.000 A 
ATOM      6  C   UNL     1      48.262   9.534  11.744  0.00  0.00    +0.000 A 
ENDROOT
BRANCH   1   7
ATOM      7  C   UNL     1      46.882   7.555  12.519  0.00  0.00    +0.000 C 
BRANCH   7  10
ATOM      8  C   UNL     1      45.419   6.125  11.144  0.00  0.00    +0.000 C 
ATOM      9  O   UNL     1      44.464   6.889  11.259  0.00  0.00    +0.000 OA
ATOM     10  N   UNL     1      46.650   6.378  11.706  0.00  0.00    +0.000 N 
ATOM     11  H   UNL     1      47.456   5.806  11.496  0.00  0.00    +0.000 HD
BRANCH   8  17
ATOM     12  C   UNL     1      44.612   3.709  10.783  0.00  0.00    +0.000 A 
ATOM     13  C   UNL     1      44.422   2.638   9.889  0.00  0.00    +0.000 A 
ATOM     14  C   UNL     1      44.854   2.726   8.566  0.00  0.00    +0.000 A 
ATOM     15  C   UNL     1      45.482   3.883   8.120  0.00  0.00    +0.000 A 
ATOM     16  C   UNL     1      45.666   4.956   8.995  0.00  0.00    +0.000 A 
ATOM     17  C   UNL     1      45.242   4.884  10.333  0.00  0.00    +0.000 A 
BRANCH  12  19
ATOM     18  N   UNL     1      43.704   3.459  13.196  0.00  0.00    +0.000 NA
ATOM     19  C   UNL     1      44.132   3.547  12.121  0.00  0.00    +0.000 C 
ENDBRANCH  12  19
ENDBRANCH   8  17
ENDBRANCH   7  10
ENDBRANCH   1   7
BRANCH   4  20
ATOM     20  C   UNL     1      52.017  10.078  11.296  0.00  0.00    +0.000 C 
BRANCH  20  21
ATOM     21  N   UNL     1      52.774   9.304  10.344  0.00  0.00    +0.000 N 
ATOM     22  C   UNL     1      52.758   9.605   9.005  0.00  0.00    +0.000 C 
ATOM     23  O   UNL     1      52.138  10.569   8.563  0.00  0.00    +0.000 OA
ATOM     24  H   UNL     1      53.101   8.392  10.648  0.00  0.00    +0.000 HD
BRANCH  22  25
ATOM     25  C   UNL     1      53.572   8.753   8.127  0.00  0.00    +0.000 A 
ATOM     26  C   UNL     1      54.236   9.314   7.044  0.00  0.00    +0.000 A 
ATOM     27  S   UNL     1      55.172   8.196   6.159  0.00  0.00    +0.000 S 
ATOM     28  C   UNL     1      54.683   6.911   7.161  0.00  0.00    +0.000 A 
ATOM     29  N   UNL     1      55.114   5.641   6.931  0.00  0.00    +0.000 NA
ATOM     30  C   UNL     1      54.642   4.761   7.748  0.00  0.00    +0.000 A 
ATOM     31  N   UNL     1      53.782   5.038   8.781  0.00  0.00    +0.000 N 
ATOM     32  C   UNL     1      53.343   6.306   9.067  0.00  0.00    +0.000 A 
ATOM     33  O   UNL     1      52.601   6.524  10.022  0.00  0.00    +0.000 OA
ATOM     34  C   UNL     1      53.833   7.334   8.169  0.00  0.00    +0.000 A 
ATOM     35  H   UNL     1      53.455   4.303   9.390  0.00  0.00    +0.000 HD
ENDBRANCH  22  25
ENDBRANCH  20  21
ENDBRANCH   4  20
TORSDOF 7
ENDMDL
MODEL 8
REMARK VINA RESULT:    -6.491      2.886      8.814
REMARK INTER + INTRA:         -10.368
REMARK INTER:                  -9.938
REMARK INTRA:                  -0.430
REMARK UNBOUND:                -1.221
REMARK  Name = 
REMARK  7 active torsions:
REMARK  status: ('A' for Active; 'I' for Inactive)
REMARK    1  A    between atoms: C_2  and  C_3
REMARK    2  A    between atoms: C_8  and  C_9
REMARK    3  A    between atoms: N_11  and  C_12
REMARK    4  A    between atoms: C_12  and  C_13
REMARK    5  A    between atoms: C_16  and  C_17
REMARK    6  A    between atoms: C_17  and  N_18
REMARK    7  A    between atoms: C_19  and  C_21
REMARK                            x       y       z     vdW  Elec       q    Type
REMARK                         _______ _______ _______ _____ _____    ______ ____
ROOT
ATOM      1  C   UNL     1      44.798   6.556  11.459  0.00  0.00    +0.000 A 
ATOM      2  C   UNL     1      44.796   7.949  11.614  0.00  0.00    +0.000 A 
ATOM      3  C   UNL     1      45.667   8.570  12.516  0.00  0.00    +0.000 A 
ATOM      4  C   UNL     1      46.579   7.815  13.266  0.00  0.00    +0.000 A 
ATOM      5  C   UNL     1      46.578   6.422  13.114  0.00  0.00    +0.000 A 
ATOM      6  C   UNL     1      45.703   5.799  12.216  0.00  0.00    +0.000 A 
ENDROOT
BRANCH   1   7
ATOM      7  C   UNL     1      43.841   5.891  10.499  0.00  0.00    +0.000 C 
BRANCH   7  10
ATOM      8  C   UNL     1      45.453   4.764   9.014  0.00  0.00    +0.000 C 
ATOM      9  O   UNL     1      45.999   5.820   8.706  0.00  0.00    +0.000 OA
ATOM     10  N   UNL     1      44.404   4.696   9.902  0.00  0.00    +0.000 N 
ATOM     11  H   UNL     1      44.053   3.812  10.242  0.00  0.00    +0.000 HD
BRANCH   8  17
ATOM     12  C   UNL     1      45.507   2.207   8.738  0.00  0.00    +0.000 A 
ATOM     13  C   UNL     1      46.014   1.095   8.038  0.00  0.00    +0.000 A 
ATOM     14  C   UNL     1      46.974   1.255   7.039  0.00  0.00    +0.000 A 
ATOM     15  C   UNL     1      47.441   2.527   6.728  0.00  0.00    +0.000 A 
ATOM     16  C   UNL     1      46.937   3.638   7.409  0.00  0.00    +0.000 A 
ATOM     17  C   UNL     1      45.973   3.496   8.421  0.00  0.00    +0.000 A 
BRANCH  12  19
ATOM     18  N   UNL     1      43.690   1.815  10.541  0.00  0.00    +0.000 NA
ATOM     19  C   UNL     1      44.517   1.961   9.741  0.00  0.00    +0.000 C 
ENDBRANCH  12  19
ENDBRANCH   8  17
ENDBRANCH   7  10
ENDBRANCH   1   7
BRANCH   4  20
ATOM     20  C   UNL     1      47.524   8.483  14.234  0.00  0.00    +0.000 C 
BRANCH  20  21
ATOM     21  N   UNL     1      48.397   7.529  14.873  0.00  0.00    +0.000 N 
ATOM     22  C   UNL     1      48.795   7.689  16.177  0.00  0.00    +0.000 C 
ATOM     23  O   UNL     1      48.393   8.620  16.870  0.00  0.00    +0.000 OA
ATOM     24  H   UNL     1      48.908   6.895  14.267  0.00  0.00    +0.000 HD
BRANCH  22  25
ATOM     25  C   UNL     1      49.680   6.652  16.728  0.00  0.00    +0.000 A 
ATOM     26  C   UNL     1      50.962   6.989  17.139  0.00  0.00    +0.000 A 
ATOM     27  S   UNL     1      51.837   5.680  17.797  0.00  0.00    +0.000 S 
ATOM     28  C   UNL     1      50.551   4.605  17.507  0.00  0.00    +0.000 A 
ATOM     29  N   UNL     1      50.657   3.286  17.823  0.00  0.00    +0.000 NA
ATOM     30  C   UNL     1      49.619   2.579  17.523  0.00  0.00    +0.000 A 
ATOM     31  N   UNL     1      48.480   3.076  16.942  0.00  0.00    +0.000 N 
ATOM     32  C   UNL     1      48.318   4.403  16.632  0.00  0.00    +0.000 A 
ATOM     33  O   UNL     1      47.269   4.820  16.145  0.00  0.00    +0.000 OA
ATOM     34  C   UNL     1      49.461   5.241  16.936  0.00  0.00    +0.000 A 
ATOM     35  H   UNL     1      47.698   2.471  16.739  0.00  0.00    +0.000 HD
ENDBRANCH  22  25
ENDBRANCH  20  21
ENDBRANCH   4  20
TORSDOF 7
ENDMDL
MODEL 9
REMARK VINA RESULT:    -6.442      3.493      9.280
REMARK INTER + INTRA:         -10.299
REMARK INTER:                  -9.172
REMARK INTRA:                  -1.127
REMARK UNBOUND:                -1.221
REMARK  Name = 
REMARK  7 active torsions:
REMARK  status: ('A' for Active; 'I' for Inactive)
REMARK    1  A    between atoms: C_2  and  C_3
REMARK    2  A    between atoms: C_8  and  C_9
REMARK    3  A    between atoms: N_11  and  C_12
REMARK    4  A    between atoms: C_12  and  C_13
REMARK    5  A    between atoms: C_16  and  C_17
REMARK    6  A    between atoms: C_17  and  N_18
REMARK    7  A    between atoms: C_19  and  C_21
REMARK                            x       y       z     vdW  Elec       q    Type
REMARK                         _______ _______ _______ _____ _____    ______ ____
ROOT
ATOM      1  C   UNL     1      47.086   7.757  13.037  0.00  0.00    +0.000 A 
ATOM      2  C   UNL     1      47.139   8.814  13.957  0.00  0.00    +0.000 A 
ATOM      3  C   UNL     1      48.306   9.072  14.684  0.00  0.00    +0.000 A 
ATOM      4  C   UNL     1      49.458   8.298  14.489  0.00  0.00    +0.000 A 
ATOM      5  C   UNL     1      49.404   7.239  13.572  0.00  0.00    +0.000 A 
ATOM      6  C   UNL     1      48.234   6.976  12.848  0.00  0.00    +0.000 A 
ENDROOT
BRANCH   1   7
ATOM      7  C   UNL     1      45.817   7.472  12.272  0.00  0.00    +0.000 C 
BRANCH   7  10
ATOM      8  C   UNL     1      44.839   5.708  10.855  0.00  0.00    +0.000 C 
ATOM      9  O   UNL     1      43.697   6.130  11.014  0.00  0.00    +0.000 OA
ATOM     10  N   UNL     1      45.943   6.312  11.412  0.00  0.00    +0.000 N 
ATOM     11  H   UNL     1      46.882   6.029  11.168  0.00  0.00    +0.000 HD
BRANCH   8  17
ATOM     12  C   UNL     1      44.594   3.206  10.307  0.00  0.00    +0.000 A 
ATOM     13  C   UNL     1      44.759   2.172   9.366  0.00  0.00    +0.000 A 
ATOM     14  C   UNL     1      45.360   2.417   8.132  0.00  0.00    +0.000 A 
ATOM     15  C   UNL     1      45.805   3.697   7.822  0.00  0.00    +0.000 A 
ATOM     16  C   UNL     1      45.637   4.733   8.744  0.00  0.00    +0.000 A 
ATOM     17  C   UNL     1      45.038   4.504   9.994  0.00  0.00    +0.000 A 
BRANCH  12  19
ATOM     18  N   UNL     1      43.392   2.606  12.521  0.00  0.00    +0.000 NA
ATOM     19  C   UNL     1      43.959   2.878  11.546  0.00  0.00    +0.000 C 
ENDBRANCH  12  19
ENDBRANCH   8  17
ENDBRANCH   7  10
ENDBRANCH   1   7
BRANCH   4  20
ATOM     20  C   UNL     1      50.720   8.579  15.266  0.00  0.00    +0.000 C 
BRANCH  20  21
ATOM     21  N   UNL     1      50.686   7.977  16.576  0.00  0.00    +0.000 N 
ATOM     22  C   UNL     1      51.523   6.941  16.907  0.00  0.00    +0.000 C 
ATOM     23  O   UNL     1      52.366   6.510  16.123  0.00  0.00    +0.000 OA
ATOM     24  H   UNL     1      49.866   8.159  17.146  0.00  0.00    +0.000 HD
BRANCH  22  25
ATOM     25  C   UNL     1      51.407   6.409  18.272  0.00  0.00    +0.000 A 
ATOM     26  C   UNL     1      52.489   6.493  19.139  0.00  0.00    +0.000 A 
ATOM     27  S   UNL     1      52.170   5.873  20.696  0.00  0.00    +0.000 S 
ATOM     28  C   UNL     1      50.591   5.422  20.252  0.00  0.00    +0.000 A 
ATOM     29  N   UNL     1      49.766   4.800  21.137  0.00  0.00    +0.000 NA
ATOM     30  C   UNL     1      48.607   4.488  20.659  0.00  0.00    +0.000 A 
ATOM     31  N   UNL     1      48.198   4.749  19.376  0.00  0.00    +0.000 N 
ATOM     32  C   UNL     1      48.985   5.398  18.459  0.00  0.00    +0.000 A 
ATOM     33  O   UNL     1      48.573   5.648  17.328  0.00  0.00    +0.000 OA
ATOM     34  C   UNL     1      50.305   5.759  18.939  0.00  0.00    +0.000 A 
ATOM     35  H   UNL     1      47.275   4.486  19.066  0.00  0.00    +0.000 HD
ENDBRANCH  22  25
ENDBRANCH  20  21
ENDBRANCH   4  20
TORSDOF 7
ENDMDL
