MODEL 1
REMARK VINA RESULT:    -7.732      0.000      0.000
REMARK INTER + INTRA:         -12.272
REMARK INTER:                 -11.573
REMARK INTRA:                  -0.698
REMARK UNBOUND:                -0.698
REMARK  Name = 
REMARK  13 active torsions:
REMARK  status: ('A' for Active; 'I' for Inactive)
REMARK    1  A    between atoms: C_1  and  C_2
REMARK    2  A    between atoms: C_2  and  C_3
REMARK    3  A    between atoms: C_2  and  C_4
REMARK    4  A    between atoms: C_2  and  C_6
REMARK    5  A    between atoms: C_4  and  O_5
REMARK    6  A    between atoms: C_10  and  N_11
REMARK    7  A    between atoms: N_11  and  C_12
REMARK    8  A    between atoms: C_12  and  C_13
REMARK    9  A    between atoms: C_13  and  C_14
REMARK   10  A    between atoms: C_13  and  C_15
REMARK   11  A    between atoms: C_13  and  C_16
REMARK   12  A    between atoms: C_20  and  N_21
REMARK   13  A    between atoms: N_21  and  C_22
REMARK                            x       y       z     vdW  Elec       q    Type
REMARK                         _______ _______ _______ _____ _____    ______ ____
ROOT
ATOM      1  C   UNL     1      44.944   5.465  12.969  0.00  0.00    +0.000 C 
ENDROOT
BRANCH   1   2
ATOM      2  C   UNL     1      44.758   5.717  11.439  0.00  0.00    +0.000 C 
ATOM      3  C   UNL     1      43.481   6.566  11.235  0.00  0.00    +0.000 C 
ATOM      4  C   UNL     1      45.961   6.543  10.941  0.00  0.00    +0.000 C 
BRANCH   2   5
ATOM      5  C   UNL     1      44.683   4.428  10.610  0.00  0.00    +0.000 A 
ATOM      6  C   UNL     1      43.959   3.314  11.028  0.00  0.00    +0.000 A 
ATOM      7  N   UNL     1      43.834   2.190  10.288  0.00  0.00    +0.000 NA
ATOM      8  C   UNL     1      44.442   2.236   9.082  0.00  0.00    +0.000 A 
ATOM      9  C   UNL     1      45.217   3.310   8.642  0.00  0.00    +0.000 A 
ATOM     10  N   UNL     1      45.355   4.403   9.423  0.00  0.00    +0.000 NA
BRANCH   9  11
ATOM     11  N   UNL     1      45.762   3.304   7.335  0.00  0.00    +0.000 N 
ATOM     12  H   UNL     1      45.151   2.791   6.706  0.00  0.00    +0.000 HD
BRANCH  11  13
ATOM     13  C   UNL     1      47.143   2.977   7.081  0.00  0.00    +0.000 C 
ATOM     14  C   UNL     1      47.543   2.668   5.633  0.00  0.00    +0.000 C 
ATOM     15  O   UNL     1      48.154   1.411   6.042  0.00  0.00    +0.000 OA
ATOM     16  C   UNL     1      47.458   1.492   7.314  0.00  0.00    +0.000 C 
ENDBRANCH  11  13
ENDBRANCH   9  11
ENDBRANCH   2   5
ENDBRANCH   1   2
BRANCH   1  17
ATOM     17  N   UNL     1      46.121   4.646  13.251  0.00  0.00    +0.000 N 
ATOM     18  H   UNL     1      45.963   3.641  13.219  0.00  0.00    +0.000 HD
BRANCH  17  23
ATOM     19  C   UNL     1      48.080   4.835  16.444  0.00  0.00    +0.000 A 
ATOM     20  C   UNL     1      48.813   5.973  16.116  0.00  0.00    +0.000 A 
ATOM     21  N   UNL     1      48.719   6.635  14.943  0.00  0.00    +0.000 NA
ATOM     22  C   UNL     1      47.840   6.143  14.041  0.00  0.00    +0.000 A 
ATOM     23  C   UNL     1      47.059   5.000  14.216  0.00  0.00    +0.000 A 
ATOM     24  C   UNL     1      47.190   4.367  15.453  0.00  0.00    +0.000 A 
BRANCH  19  26
ATOM     25  C   UNL     1      49.659   3.696  18.131  0.00  0.00    +0.000 C 
ATOM     26  C   UNL     1      48.207   4.111  17.793  0.00  0.00    +0.000 C 
ATOM     27  C   UNL     1      47.370   2.811  17.739  0.00  0.00    +0.000 C 
BRANCH  26  28
ATOM     28  C   UNL     1      47.695   5.037  18.931  0.00  0.00    +0.000 C 
BRANCH  28  29
ATOM     29  O   UNL     1      46.336   5.428  18.747  0.00  0.00    +0.000 OA
ATOM     30  H   UNL     1      46.325   6.210  18.172  0.00  0.00    +0.000 HD
ENDBRANCH  28  29
ENDBRANCH  26  28
ENDBRANCH  19  26
ENDBRANCH  17  23
ENDBRANCH   1  17
TORSDOF 9
ENDMDL
MODEL 2
REMARK VINA RESULT:    -7.511      0.994      1.320
REMARK INTER + INTRA:         -11.942
REMARK INTER:                 -11.202
REMARK INTRA:                  -0.740
REMARK UNBOUND:                -0.698
REMARK  Name = 
REMARK  13 active torsions:
REMARK  status: ('A' for Active; 'I' for Inactive)
REMARK    1  A    between atoms: C_1  and  C_2
REMARK    2  A    between atoms: C_2  and  C_3
REMARK    3  A    between atoms: C_2  and  C_4
REMARK    4  A    between atoms: C_2  and  C_6
REMARK    5  A    between atoms: C_4  and  O_5
REMARK    6  A    between atoms: C_10  and  N_11
REMARK    7  A    between atoms: N_11  and  C_12
REMARK    8  A    between atoms: C_12  and  C_13
REMARK    9  A    between atoms: C_13  and  C_14
REMARK   10  A    between atoms: C_13  and  C_15
REMARK   11  A    between atoms: C_13  and  C_16
REMARK   12  A    between atoms: C_20  and  N_21
REMARK   13  A    between atoms: N_21  and  C_22
REMARK                            x       y       z     vdW  Elec       q    Type
REMARK                         _______ _______ _______ _____ _____    ______ ____
ROOT
ATOM      1  C   UNL     1      44.934   5.311  12.927  0.00  0.00    +0.000 C 
ENDROOT
BRANCH   1   2
ATOM      2  C   UNL     1      44.593   5.580  11.428  0.00  0.00    +0.000 C 
ATOM      3  C   UNL     1      43.218   6.287  11.359  0.00  0.00    +0.000 C 
ATOM      4  C   UNL     1      45.651   6.549  10.863  0.00  0.00    +0.000 C 
BRANCH   2   5
ATOM      5  C   UNL     1      44.588   4.314  10.562  0.00  0.00    +0.000 A 
ATOM      6  C   UNL     1      43.904   3.159  10.934  0.00  0.00    +0.000 A 
ATOM      7  N   UNL     1      43.841   2.053  10.160  0.00  0.00    +0.000 NA
ATOM      8  C   UNL     1      44.470   2.159   8.968  0.00  0.00    +0.000 A 
ATOM      9  C   UNL     1      45.207   3.277   8.575  0.00  0.00    +0.000 A 
ATOM     10  N   UNL     1      45.283   4.352   9.389  0.00  0.00    +0.000 NA
BRANCH   9  11
ATOM     11  N   UNL     1      45.777   3.330   7.280  0.00  0.00    +0.000 N 
ATOM     12  H   UNL     1      45.173   2.859   6.614  0.00  0.00    +0.000 HD
BRANCH  11  13
ATOM     13  C   UNL     1      47.159   2.999   7.035  0.00  0.00    +0.000 C 
ATOM     14  C   UNL     1      47.578   2.737   5.584  0.00  0.00    +0.000 C 
ATOM     15  O   UNL     1      48.171   1.460   5.957  0.00  0.00    +0.000 OA
ATOM     16  C   UNL     1      47.457   1.504   7.221  0.00  0.00    +0.000 C 
ENDBRANCH  11  13
ENDBRANCH   9  11
ENDBRANCH   2   5
ENDBRANCH   1   2
BRANCH   1  17
ATOM     17  N   UNL     1      46.229   4.652  13.084  0.00  0.00    +0.000 N 
ATOM     18  H   UNL     1      46.225   3.648  12.913  0.00  0.00    +0.000 HD
BRANCH  17  23
ATOM     19  C   UNL     1      48.107   4.803  16.328  0.00  0.00    +0.000 A 
ATOM     20  C   UNL     1      48.794   5.985  16.061  0.00  0.00    +0.000 A 
ATOM     21  N   UNL     1      48.695   6.687  14.912  0.00  0.00    +0.000 NA
ATOM     22  C   UNL     1      47.860   6.192  13.972  0.00  0.00    +0.000 A 
ATOM     23  C   UNL     1      47.128   5.009  14.084  0.00  0.00    +0.000 A 
ATOM     24  C   UNL     1      47.261   4.334  15.300  0.00  0.00    +0.000 A 
BRANCH  19  26
ATOM     25  C   UNL     1      47.251   2.846  17.769  0.00  0.00    +0.000 C 
ATOM     26  C   UNL     1      48.238   4.032  17.651  0.00  0.00    +0.000 C 
ATOM     27  C   UNL     1      47.924   4.996  18.820  0.00  0.00    +0.000 C 
BRANCH  26  28
ATOM     28  C   UNL     1      49.682   3.472  17.786  0.00  0.00    +0.000 C 
BRANCH  28  29
ATOM     29  O   UNL     1      50.040   2.618  16.702  0.00  0.00    +0.000 OA
ATOM     30  H   UNL     1      49.983   1.700  17.012  0.00  0.00    +0.000 HD
ENDBRANCH  28  29
ENDBRANCH  26  28
ENDBRANCH  19  26
ENDBRANCH  17  23
ENDBRANCH   1  17
TORSDOF 9
ENDMDL
MODEL 3
REMARK VINA RESULT:    -7.030      1.887      2.999
REMARK INTER + INTRA:         -11.222
REMARK INTER:                 -10.332
REMARK INTRA:                  -0.890
REMARK UNBOUND:                -0.698
REMARK  Name = 
REMARK  13 active torsions:
REMARK  status: ('A' for Active; 'I' for Inactive)
REMARK    1  A    between atoms: C_1  and  C_2
REMARK    2  A    between atoms: C_2  and  C_3
REMARK    3  A    between atoms: C_2  and  C_4
REMARK    4  A    between atoms: C_2  and  C_6
REMARK    5  A    between atoms: C_4  and  O_5
REMARK    6  A    between atoms: C_10  and  N_11
REMARK    7  A    between atoms: N_11  and  C_12
REMARK    8  A    between atoms: C_12  and  C_13
REMARK    9  A    between atoms: C_13  and  C_14
REMARK   10  A    between atoms: C_13  and  C_15
REMARK   11  A    between atoms: C_13  and  C_16
REMARK   12  A    between atoms: C_20  and  N_21
REMARK   13  A    between atoms: N_21  and  C_22
REMARK                            x       y       z     vdW  Elec       q    Type
REMARK                         _______ _______ _______ _____ _____    ______ ____
ROOT
ATOM      1  C   UNL     1      47.284   6.125  13.795  0.00  0.00    +0.000 C 
ENDROOT
BRANCH   1   2
ATOM      2  C   UNL     1      46.308   6.597  12.670  0.00  0.00    +0.000 C 
ATOM      3  C   UNL     1      45.743   7.983  13.065  0.00  0.00    +0.000 C 
ATOM      4  C   UNL     1      47.123   6.770  11.373  0.00  0.00    +0.000 C 
BRANCH   2   5
ATOM      5  C   UNL     1      45.166   5.610  12.394  0.00  0.00    +0.000 A 
ATOM      6  C   UNL     1      43.844   5.889  12.732  0.00  0.00    +0.000 A 
ATOM      7  N   UNL     1      42.816   5.059  12.447  0.00  0.00    +0.000 NA
ATOM      8  C   UNL     1      43.162   3.939  11.773  0.00  0.00    +0.000 A 
ATOM      9  C   UNL     1      44.478   3.597  11.457  0.00  0.00    +0.000 A 
ATOM     10  N   UNL     1      45.487   4.430  11.791  0.00  0.00    +0.000 NA
BRANCH   9  11
ATOM     11  N   UNL     1      44.745   2.438  10.689  0.00  0.00    +0.000 N 
ATOM     12  H   UNL     1      45.640   2.042  10.958  0.00  0.00    +0.000 HD
BRANCH  11  13
ATOM     13  C   UNL     1      44.586   2.412   9.256  0.00  0.00    +0.000 C 
ATOM     14  C   UNL     1      45.780   1.936   8.420  0.00  0.00    +0.000 C 
ATOM     15  O   UNL     1      45.720   3.140   7.602  0.00  0.00    +0.000 OA
ATOM     16  C   UNL     1      44.873   3.769   8.599  0.00  0.00    +0.000 C 
ENDBRANCH  11  13
ENDBRANCH   9  11
ENDBRANCH   2   5
ENDBRANCH   1   2
BRANCH   1  17
ATOM     17  N   UNL     1      46.745   4.995  14.549  0.00  0.00    +0.000 N 
ATOM     18  H   UNL     1      45.732   4.989  14.650  0.00  0.00    +0.000 HD
BRANCH  17  23
ATOM     19  C   UNL     1      48.422   4.666  17.888  0.00  0.00    +0.000 A 
ATOM     20  C   UNL     1      48.878   3.361  17.711  0.00  0.00    +0.000 A 
ATOM     21  N   UNL     1      48.650   2.611  16.612  0.00  0.00    +0.000 NA
ATOM     22  C   UNL     1      47.931   3.190  15.624  0.00  0.00    +0.000 A 
ATOM     23  C   UNL     1      47.387   4.475  15.668  0.00  0.00    +0.000 A 
ATOM     24  C   UNL     1      47.668   5.206  16.824  0.00  0.00    +0.000 A 
BRANCH  19  26
ATOM     25  C   UNL     1      47.438   6.132  19.763  0.00  0.00    +0.000 C 
ATOM     26  C   UNL     1      48.707   5.494  19.150  0.00  0.00    +0.000 C 
ATOM     27  C   UNL     1      49.659   6.655  18.778  0.00  0.00    +0.000 C 
BRANCH  26  28
ATOM     28  C   UNL     1      49.359   4.587  20.231  0.00  0.00    +0.000 C 
BRANCH  28  29
ATOM     29  O   UNL     1      48.393   3.896  21.020  0.00  0.00    +0.000 OA
ATOM     30  H   UNL     1      48.826   3.121  21.413  0.00  0.00    +0.000 HD
ENDBRANCH  28  29
ENDBRANCH  26  28
ENDBRANCH  19  26
ENDBRANCH  17  23
ENDBRANCH   1  17
TORSDOF 9
ENDMDL
MODEL 4
REMARK VINA RESULT:    -6.974      2.031      3.002
REMARK INTER + INTRA:         -11.137
REMARK INTER:                 -10.510
REMARK INTRA:                  -0.628
REMARK UNBOUND:                -0.698
REMARK  Name = 
REMARK  13 active torsions:
REMARK  status: ('A' for Active; 'I' for Inactive)
REMARK    1  A    between atoms: C_1  and  C_2
REMARK    2  A    between atoms: C_2  and  C_3
REMARK    3  A    between atoms: C_2  and  C_4
REMARK    4  A    between atoms: C_2  and  C_6
REMARK    5  A    between atoms: C_4  and  O_5
REMARK    6  A    between atoms: C_10  and  N_11
REMARK    7  A    between atoms: N_11  and  C_12
REMARK    8  A    between atoms: C_12  and  C_13
REMARK    9  A    between atoms: C_13  and  C_14
REMARK   10  A    between atoms: C_13  and  C_15
REMARK   11  A    between atoms: C_13  and  C_16
REMARK   12  A    between atoms: C_20  and  N_21
REMARK   13  A    between atoms: N_21  and  C_22
REMARK                            x       y       z     vdW  Elec       q    Type
REMARK                         _______ _______ _______ _____ _____    ______ ____
ROOT
ATOM      1  C   UNL     1      44.614   4.955  12.959  0.00  0.00    +0.000 C 
ENDROOT
BRANCH   1   2
ATOM      2  C   UNL     1      44.321   5.315  11.468  0.00  0.00    +0.000 C 
ATOM      3  C   UNL     1      42.891   5.900  11.378  0.00  0.00    +0.000 C 
ATOM      4  C   UNL     1      45.311   6.417  11.039  0.00  0.00    +0.000 C 
BRANCH   2   5
ATOM      5  C   UNL     1      44.477   4.128  10.508  0.00  0.00    +0.000 A 
ATOM      6  C   UNL     1      43.885   2.891  10.752  0.00  0.00    +0.000 A 
ATOM      7  N   UNL     1      43.963   1.850   9.893  0.00  0.00    +0.000 NA
ATOM      8  C   UNL     1      44.637   2.108   8.750  0.00  0.00    +0.000 A 
ATOM      9  C   UNL     1      45.284   3.316   8.485  0.00  0.00    +0.000 A 
ATOM     10  N   UNL     1      45.221   4.323   9.382  0.00  0.00    +0.000 NA
BRANCH   9  11
ATOM     11  N   UNL     1      45.910   3.525   7.232  0.00  0.00    +0.000 N 
ATOM     12  H   UNL     1      45.288   3.241   6.481  0.00  0.00    +0.000 HD
BRANCH  11  13
ATOM     13  C   UNL     1      47.259   3.094   6.965  0.00  0.00    +0.000 C 
ATOM     14  C   UNL     1      47.595   2.664   5.532  0.00  0.00    +0.000 C 
ATOM     15  O   UNL     1      48.138   1.400   6.010  0.00  0.00    +0.000 OA
ATOM     16  C   UNL     1      47.488   1.611   7.291  0.00  0.00    +0.000 C 
ENDBRANCH  11  13
ENDBRANCH   9  11
ENDBRANCH   2   5
ENDBRANCH   1   2
BRANCH   1  17
ATOM     17  N   UNL     1      45.975   4.459  13.146  0.00  0.00    +0.000 N 
ATOM     18  H   UNL     1      46.075   3.446  13.098  0.00  0.00    +0.000 HD
BRANCH  17  23
ATOM     19  C   UNL     1      48.579   6.648  14.727  0.00  0.00    +0.000 A 
ATOM     20  C   UNL     1      48.733   5.899  15.892  0.00  0.00    +0.000 A 
ATOM     21  N   UNL     1      48.037   4.779  16.181  0.00  0.00    +0.000 NA
ATOM     22  C   UNL     1      47.138   4.371  15.258  0.00  0.00    +0.000 A 
ATOM     23  C   UNL     1      46.856   5.029  14.060  0.00  0.00    +0.000 A 
ATOM     24  C   UNL     1      47.616   6.174  13.810  0.00  0.00    +0.000 A 
BRANCH  19  26
ATOM     25  C   UNL     1      50.828   7.873  15.003  0.00  0.00    +0.000 C 
ATOM     26  C   UNL     1      49.393   7.915  14.426  0.00  0.00    +0.000 C 
ATOM     27  C   UNL     1      48.684   9.127  15.076  0.00  0.00    +0.000 C 
BRANCH  26  28
ATOM     28  C   UNL     1      49.500   8.113  12.888  0.00  0.00    +0.000 C 
BRANCH  28  29
ATOM     29  O   UNL     1      50.578   7.376  12.316  0.00  0.00    +0.000 OA
ATOM     30  H   UNL     1      51.058   7.967  11.714  0.00  0.00    +0.000 HD
ENDBRANCH  28  29
ENDBRANCH  26  28
ENDBRANCH  19  26
ENDBRANCH  17  23
ENDBRANCH   1  17
TORSDOF 9
ENDMDL
MODEL 5
REMARK VINA RESULT:    -6.553      3.056      8.264
REMARK INTER + INTRA:         -10.508
REMARK INTER:                  -9.622
REMARK INTRA:                  -0.886
REMARK UNBOUND:                -0.698
REMARK  Name = 
REMARK  13 active torsions:
REMARK  status: ('A' for Active; 'I' for Inactive)
REMARK    1  A    between atoms: C_1  and  C_2
REMARK    2  A    between atoms: C_2  and  C_3
REMARK    3  A    between atoms: C_2  and  C_4
REMARK    4  A    between atoms: C_2  and  C_6
REMARK    5  A    between atoms: C_4  and  O_5
REMARK    6  A    between atoms: C_10  and  N_11
REMARK    7  A    between atoms: N_11  and  C_12
REMARK    8  A    between atoms: C_12  and  C_13
REMARK    9  A    between atoms: C_13  and  C_14
REMARK   10  A    between atoms: C_13  and  C_15
REMARK   11  A    between atoms: C_13  and  C_16
REMARK   12  A    between atoms: C_20  and  N_21
REMARK   13  A    between atoms: N_21  and  C_22
REMARK                            x       y       z     vdW  Elec       q    Type
REMARK                         _______ _______ _______ _____ _____    ______ ____
ROOT
ATOM      1  C   UNL     1      48.981   7.112  13.605  0.00  0.00    +0.000 C 
ENDROOT
BRANCH   1   2
ATOM      2  C   UNL     1      49.631   7.833  14.828  0.00  0.00    +0.000 C 
ATOM      3  C   UNL     1      50.628   8.891  14.298  0.00  0.00    +0.000 C 
ATOM      4  C   UNL     1      48.517   8.574  15.593  0.00  0.00    +0.000 C 
BRANCH   2   5
ATOM      5  C   UNL     1      50.331   6.877  15.803  0.00  0.00    +0.000 A 
ATOM      6  C   UNL     1      51.694   6.958  16.077  0.00  0.00    +0.000 A 
ATOM      7  N   UNL     1      52.318   6.163  16.974  0.00  0.00    +0.000 NA
ATOM      8  C   UNL     1      51.510   5.293  17.620  0.00  0.00    +0.000 A 
ATOM      9  C   UNL     1      50.150   5.145  17.344  0.00  0.00    +0.000 A 
ATOM     10  N   UNL     1      49.564   5.928  16.413  0.00  0.00    +0.000 NA
BRANCH   9  11
ATOM     11  N   UNL     1      49.362   4.257  18.116  0.00  0.00    +0.000 N 
ATOM     12  H   UNL     1      49.530   4.414  19.105  0.00  0.00    +0.000 HD
BRANCH  11  13
ATOM     13  C   UNL     1      49.292   2.845  17.831  0.00  0.00    +0.000 C 
ATOM     14  C   UNL     1      50.434   2.229  17.016  0.00  0.00    +0.000 C 
ATOM     15  O   UNL     1      49.487   1.652  16.072  0.00  0.00    +0.000 OA
ATOM     16  C   UNL     1      48.450   2.529  16.586  0.00  0.00    +0.000 C 
ENDBRANCH  11  13
ENDBRANCH   9  11
ENDBRANCH   2   5
ENDBRANCH   1   2
BRANCH   1  17
ATOM     17  N   UNL     1      47.570   6.811  13.832  0.00  0.00    +0.000 N 
ATOM     18  H   UNL     1      47.219   7.063  14.755  0.00  0.00    +0.000 HD
BRANCH  17  23
ATOM     19  C   UNL     1      45.272   4.463  12.023  0.00  0.00    +0.000 A 
ATOM     20  C   UNL     1      45.716   3.295  12.640  0.00  0.00    +0.000 A 
ATOM     21  N   UNL     1      46.705   3.241  13.558  0.00  0.00    +0.000 NA
ATOM     22  C   UNL     1      47.285   4.416  13.890  0.00  0.00    +0.000 A 
ATOM     23  C   UNL     1      46.966   5.658  13.340  0.00  0.00    +0.000 A 
ATOM     24  C   UNL     1      45.928   5.653  12.406  0.00  0.00    +0.000 A 
BRANCH  19  26
ATOM     25  C   UNL     1      43.330   5.808  10.995  0.00  0.00    +0.000 C 
ATOM     26  C   UNL     1      44.138   4.488  10.986  0.00  0.00    +0.000 C 
ATOM     27  C   UNL     1      43.142   3.350  11.311  0.00  0.00    +0.000 C 
BRANCH  26  28
ATOM     28  C   UNL     1      44.731   4.298   9.561  0.00  0.00    +0.000 C 
BRANCH  28  29
ATOM     29  O   UNL     1      45.391   5.467   9.084  0.00  0.00    +0.000 OA
ATOM     30  H   UNL     1      44.743   6.190   9.063  0.00  0.00    +0.000 HD
ENDBRANCH  28  29
ENDBRANCH  26  28
ENDBRANCH  19  26
ENDBRANCH  17  23
ENDBRANCH   1  17
TORSDOF 9
ENDMDL
MODEL 6
REMARK VINA RESULT:    -6.545      2.127      3.306
REMARK INTER + INTRA:         -10.496
REMARK INTER:                  -9.643
REMARK INTRA:                  -0.853
REMARK UNBOUND:                -0.698
REMARK  Name = 
REMARK  13 active torsions:
REMARK  status: ('A' for Active; 'I' for Inactive)
REMARK    1  A    between atoms: C_1  and  C_2
REMARK    2  A    between atoms: C_2  and  C_3
REMARK    3  A    between atoms: C_2  and  C_4
REMARK    4  A    between atoms: C_2  and  C_6
REMARK    5  A    between atoms: C_4  and  O_5
REMARK    6  A    between atoms: C_10  and  N_11
REMARK    7  A    between atoms: N_11  and  C_12
REMARK    8  A    between atoms: C_12  and  C_13
REMARK    9  A    between atoms: C_13  and  C_14
REMARK   10  A    between atoms: C_13  and  C_15
REMARK   11  A    between atoms: C_13  and  C_16
REMARK   12  A    between atoms: C_20  and  N_21
REMARK   13  A    between atoms: N_21  and  C_22
REMARK                            x       y       z     vdW  Elec       q    Type
REMARK                         _______ _______ _______ _____ _____    ______ ____
ROOT
ATOM      1  C   UNL     1      47.481   7.750  14.113  0.00  0.00    +0.000 C 
ENDROOT
BRANCH   1   2
ATOM      2  C   UNL     1      47.094   7.494  12.622  0.00  0.00    +0.000 C 
ATOM      3  C   UNL     1      46.225   8.678  12.133  0.00  0.00    +0.000 C 
ATOM      4  C   UNL     1      48.391   7.483  11.788  0.00  0.00    +0.000 C 
BRANCH   2   5
ATOM      5  C   UNL     1      46.364   6.164  12.397  0.00  0.00    +0.000 A 
ATOM      6  C   UNL     1      46.428   5.115  13.311  0.00  0.00    +0.000 A 
ATOM      7  N   UNL     1      45.748   3.957  13.159  0.00  0.00    +0.000 NA
ATOM      8  C   UNL     1      44.965   3.900  12.059  0.00  0.00    +0.000 A 
ATOM      9  C   UNL     1      44.907   4.906  11.093  0.00  0.00    +0.000 A 
ATOM     10  N   UNL     1      45.630   6.035  11.255  0.00  0.00    +0.000 NA
BRANCH   9  11
ATOM     11  N   UNL     1      44.008   4.793  10.005  0.00  0.00    +0.000 N 
ATOM     12  H   UNL     1      43.081   4.553  10.344  0.00  0.00    +0.000 HD
BRANCH  11  13
ATOM     13  C   UNL     1      44.327   4.039   8.819  0.00  0.00    +0.000 C 
ATOM     14  C   UNL     1      44.710   2.565   8.997  0.00  0.00    +0.000 C 
ATOM     15  O   UNL     1      45.933   2.762   8.231  0.00  0.00    +0.000 OA
ATOM     16  C   UNL     1      45.791   4.199   8.385  0.00  0.00    +0.000 C 
ENDBRANCH  11  13
ENDBRANCH   9  11
ENDBRANCH   2   5
ENDBRANCH   1   2
BRANCH   1  17
ATOM     17  N   UNL     1      48.925   7.687  14.323  0.00  0.00    +0.000 N 
ATOM     18  H   UNL     1      49.485   7.679  13.472  0.00  0.00    +0.000 HD
BRANCH  17  23
ATOM     19  C   UNL     1      49.489   5.073  16.954  0.00  0.00    +0.000 A 
ATOM     20  C   UNL     1      50.641   5.637  17.498  0.00  0.00    +0.000 A 
ATOM     21  N   UNL     1      51.228   6.766  17.046  0.00  0.00    +0.000 NA
ATOM     22  C   UNL     1      50.636   7.377  15.997  0.00  0.00    +0.000 A 
ATOM     23  C   UNL     1      49.497   6.918  15.333  0.00  0.00    +0.000 A 
ATOM     24  C   UNL     1      48.927   5.755  15.853  0.00  0.00    +0.000 A 
BRANCH  19  26
ATOM     25  C   UNL     1      47.471   3.475  16.854  0.00  0.00    +0.000 C 
ATOM     26  C   UNL     1      48.842   3.790  17.498  0.00  0.00    +0.000 C 
ATOM     27  C   UNL     1      48.597   3.962  19.016  0.00  0.00    +0.000 C 
BRANCH  26  28
ATOM     28  C   UNL     1      49.784   2.581  17.236  0.00  0.00    +0.000 C 
BRANCH  28  29
ATOM     29  O   UNL     1      49.386   1.814  16.103  0.00  0.00    +0.000 OA
ATOM     30  H   UNL     1      48.433   1.941  15.975  0.00  0.00    +0.000 HD
ENDBRANCH  28  29
ENDBRANCH  26  28
ENDBRANCH  19  26
ENDBRANCH  17  23
ENDBRANCH   1  17
TORSDOF 9
ENDMDL
MODEL 7
REMARK VINA RESULT:    -6.517      3.474      9.059
REMARK INTER + INTRA:         -10.454
REMARK INTER:                  -9.418
REMARK INTRA:                  -1.036
REMARK UNBOUND:                -0.698
REMARK  Name = 
REMARK  13 active torsions:
REMARK  status: ('A' for Active; 'I' for Inactive)
REMARK    1  A    between atoms: C_1  and  C_2
REMARK    2  A    between atoms: C_2  and  C_3
REMARK    3  A    between atoms: C_2  and  C_4
REMARK    4  A    between atoms: C_2  and  C_6
REMARK    5  A    between atoms: C_4  and  O_5
REMARK    6  A    between atoms: C_10  and  N_11
REMARK    7  A    between atoms: N_11  and  C_12
REMARK    8  A    between atoms: C_12  and  C_13
REMARK    9  A    between atoms: C_13  and  C_14
REMARK   10  A    between atoms: C_13  and  C_15
REMARK   11  A    between atoms: C_13  and  C_16
REMARK   12  A    between atoms: C_20  and  N_21
REMARK   13  A    between atoms: N_21  and  C_22
REMARK                            x       y       z     vdW  Elec       q    Type
REMARK                         _______ _______ _______ _____ _____    ______ ____
ROOT
ATOM      1  C   UNL     1      47.511   3.503  15.398  0.00  0.00    +0.000 C 
ENDROOT
BRANCH   1   2
ATOM      2  C   UNL     1      48.171   3.348  16.804  0.00  0.00    +0.000 C 
ATOM      3  C   UNL     1      47.114   2.778  17.780  0.00  0.00    +0.000 C 
ATOM      4  C   UNL     1      49.310   2.315  16.685  0.00  0.00    +0.000 C 
BRANCH   2   5
ATOM      5  C   UNL     1      48.761   4.653  17.353  0.00  0.00    +0.000 A 
ATOM      6  C   UNL     1      50.133   4.883  17.414  0.00  0.00    +0.000 A 
ATOM      7  N   UNL     1      50.671   6.047  17.841  0.00  0.00    +0.000 NA
ATOM      8  C   UNL     1      49.771   6.997  18.179  0.00  0.00    +0.000 A 
ATOM      9  C   UNL     1      48.390   6.795  18.178  0.00  0.00    +0.000 A 
ATOM     10  N   UNL     1      47.886   5.606  17.783  0.00  0.00    +0.000 NA
BRANCH   9  11
ATOM     11  N   UNL     1      47.517   7.867  18.481  0.00  0.00    +0.000 N 
ATOM     12  H   UNL     1      46.796   7.940  17.769  0.00  0.00    +0.000 HD
BRANCH  11  13
ATOM     13  C   UNL     1      48.002   9.174  18.849  0.00  0.00    +0.000 C 
ATOM     14  C   UNL     1      47.031  10.112  19.575  0.00  0.00    +0.000 C 
ATOM     15  O   UNL     1      47.286  11.170  18.607  0.00  0.00    +0.000 OA
ATOM     16  C   UNL     1      47.884  10.197  17.710  0.00  0.00    +0.000 C 
ENDBRANCH  11  13
ENDBRANCH   9  11
ENDBRANCH   2   5
ENDBRANCH   1   2
BRANCH   1  17
ATOM     17  N   UNL     1      47.366   4.906  15.012  0.00  0.00    +0.000 N 
ATOM     18  H   UNL     1      47.118   5.538  15.771  0.00  0.00    +0.000 HD
BRANCH  17  23
ATOM     19  C   UNL     1      45.167   5.061  11.977  0.00  0.00    +0.000 A 
ATOM     20  C   UNL     1      45.922   6.000  11.279  0.00  0.00    +0.000 A 
ATOM     21  N   UNL     1      47.050   6.578  11.746  0.00  0.00    +0.000 NA
ATOM     22  C   UNL     1      47.459   6.197  12.976  0.00  0.00    +0.000 A 
ATOM     23  C   UNL     1      46.795   5.289  13.803  0.00  0.00    +0.000 A 
ATOM     24  C   UNL     1      45.643   4.716  13.261  0.00  0.00    +0.000 A 
BRANCH  19  26
ATOM     25  C   UNL     1      43.596   3.019  12.004  0.00  0.00    +0.000 C 
ATOM     26  C   UNL     1      43.891   4.418  11.413  0.00  0.00    +0.000 C 
ATOM     27  C   UNL     1      44.062   4.233   9.886  0.00  0.00    +0.000 C 
BRANCH  26  28
ATOM     28  C   UNL     1      42.671   5.333  11.713  0.00  0.00    +0.000 C 
BRANCH  28  29
ATOM     29  O   UNL     1      42.425   5.476  13.110  0.00  0.00    +0.000 OA
ATOM     30  H   UNL     1      41.568   5.917  13.220  0.00  0.00    +0.000 HD
ENDBRANCH  28  29
ENDBRANCH  26  28
ENDBRANCH  19  26
ENDBRANCH  17  23
ENDBRANCH   1  17
TORSDOF 9
ENDMDL
MODEL 8
REMARK VINA RESULT:    -6.503      2.879      4.595
REMARK INTER + INTRA:         -10.432
REMARK INTER:                  -9.149
REMARK INTRA:                  -1.283
REMARK UNBOUND:                -0.698
REMARK  Name = 
REMARK  13 active torsions:
REMARK  status: ('A' for Active; 'I' for Inactive)
REMARK    1  A    between atoms: C_1  and  C_2
REMARK    2  A    between atoms: C_2  and  C_3
REMARK    3  A    between atoms: C_2  and  C_4
REMARK    4  A    between atoms: C_2  and  C_6
REMARK    5  A    between atoms: C_4  and  O_5
REMARK    6  A    between atoms: C_10  and  N_11
REMARK    7  A    between atoms: N_11  and  C_12
REMARK    8  A    between atoms: C_12  and  C_13
REMARK    9  A    between atoms: C_13  and  C_14
REMARK   10  A    between atoms: C_13  and  C_15
REMARK   11  A    between atoms: C_13  and  C_16
REMARK   12  A    between atoms: C_20  and  N_21
REMARK   13  A    between atoms: N_21  and  C_22
REMARK                            x       y       z     vdW  Elec       q    Type
REMARK                         _______ _______ _______ _____ _____    ______ ____
ROOT
ATOM      1  C   UNL     1      49.103   8.855  13.898  0.00  0.00    +0.000 C 
ENDROOT
BRANCH   1   2
ATOM      2  C   UNL     1      48.740   8.546  12.411  0.00  0.00    +0.000 C 
ATOM      3  C   UNL     1      48.991   9.822  11.572  0.00  0.00    +0.000 C 
ATOM      4  C   UNL     1      49.698   7.450  11.904  0.00  0.00    +0.000 C 
BRANCH   2   5
ATOM      5  C   UNL     1      47.300   8.053  12.220  0.00  0.00    +0.000 A 
ATOM      6  C   UNL     1      46.221   8.927  12.117  0.00  0.00    +0.000 A 
ATOM      7  N   UNL     1      44.953   8.517  11.893  0.00  0.00    +0.000 NA
ATOM      8  C   UNL     1      44.808   7.181  11.741  0.00  0.00    +0.000 A 
ATOM      9  C   UNL     1      45.852   6.265  11.883  0.00  0.00    +0.000 A 
ATOM     10  N   UNL     1      47.101   6.706  12.147  0.00  0.00    +0.000 NA
BRANCH   9  11
ATOM     11  N   UNL     1      45.626   4.889  11.640  0.00  0.00    +0.000 N 
ATOM     12  H   UNL     1      46.447   4.472  11.213  0.00  0.00    +0.000 HD
BRANCH  11  13
ATOM     13  C   UNL     1      44.424   4.408  11.005  0.00  0.00    +0.000 C 
ATOM     14  C   UNL     1      43.409   3.664  11.881  0.00  0.00    +0.000 C 
ATOM     15  O   UNL     1      43.391   2.541  10.954  0.00  0.00    +0.000 OA
ATOM     16  C   UNL     1      44.609   3.037  10.338  0.00  0.00    +0.000 C 
ENDBRANCH  11  13
ENDBRANCH   9  11
ENDBRANCH   2   5
ENDBRANCH   1   2
BRANCH   1  17
ATOM     17  N   UNL     1      48.477   7.912  14.822  0.00  0.00    +0.000 N 
ATOM     18  H   UNL     1      47.702   8.290  15.364  0.00  0.00    +0.000 HD
BRANCH  17  23
ATOM     19  C   UNL     1      49.438   4.986  16.963  0.00  0.00    +0.000 A 
ATOM     20  C   UNL     1      50.772   5.347  17.140  0.00  0.00    +0.000 A 
ATOM     21  N   UNL     1      51.350   6.438  16.595  0.00  0.00    +0.000 NA
ATOM     22  C   UNL     1      50.557   7.224  15.832  0.00  0.00    +0.000 A 
ATOM     23  C   UNL     1      49.214   6.978  15.544  0.00  0.00    +0.000 A 
ATOM     24  C   UNL     1      48.669   5.843  16.146  0.00  0.00    +0.000 A 
BRANCH  19  26
ATOM     25  C   UNL     1      47.383   3.437  17.090  0.00  0.00    +0.000 C 
ATOM     26  C   UNL     1      48.811   3.739  17.605  0.00  0.00    +0.000 C 
ATOM     27  C   UNL     1      48.698   3.969  19.131  0.00  0.00    +0.000 C 
BRANCH  26  28
ATOM     28  C   UNL     1      49.700   2.498  17.310  0.00  0.00    +0.000 C 
BRANCH  28  29
ATOM     29  O   UNL     1      49.379   1.880  16.066  0.00  0.00    +0.000 OA
ATOM     30  H   UNL     1      49.518   0.924  16.162  0.00  0.00    +0.000 HD
ENDBRANCH  28  29
ENDBRANCH  26  28
ENDBRANCH  19  26
ENDBRANCH  17  23
ENDBRANCH   1  17
TORSDOF 9
ENDMDL
MODEL 9
REMARK VINA RESULT:    -6.480      3.462      8.141
REMARK INTER + INTRA:         -10.398
REMARK INTER:                  -9.126
REMARK INTRA:                  -1.272
REMARK UNBOUND:                -0.698
REMARK  Name = 
REMARK  13 active torsions:
REMARK  status: ('A' for Active; 'I' for Inactive)
REMARK    1  A    between atoms: C_1  and  C_2
REMARK    2  A    between atoms: C_2  and  C_3
REMARK    3  A    between atoms: C_2  and  C_4
REMARK    4  A    between atoms: C_2  and  C_6
REMARK    5  A    between atoms: C_4  and  O_5
REMARK    6  A    between atoms: C_10  and  N_11
REMARK    7  A    between atoms: N_11  and  C_12
REMARK    8  A    between atoms: C_12  and  C_13
REMARK    9  A    between atoms: C_13  and  C_14
REMARK   10  A    between atoms: C_13  and  C_15
REMARK   11  A    between atoms: C_13  and  C_16
REMARK   12  A    between atoms: C_20  and  N_21
REMARK   13  A    between atoms: N_21  and  C_22
REMARK                            x       y       z     vdW  Elec       q    Type
REMARK                         _______ _______ _______ _____ _____    ______ ____
ROOT
ATOM      1  C   UNL     1      47.740   3.293  15.559  0.00  0.00    +0.000 C 
ENDROOT
BRANCH   1   2
ATOM      2  C   UNL     1      48.428   3.372  16.959  0.00  0.00    +0.000 C 
ATOM      3  C   UNL     1      47.398   2.949  18.034  0.00  0.00    +0.000 C 
ATOM      4  C   UNL     1      49.583   2.351  16.982  0.00  0.00    +0.000 C 
BRANCH   2   5
ATOM      5  C   UNL     1      49.003   4.757  17.283  0.00  0.00    +0.000 A 
ATOM      6  C   UNL     1      48.961   5.300  18.564  0.00  0.00    +0.000 A 
ATOM      7  N   UNL     1      49.511   6.493  18.882  0.00  0.00    +0.000 NA
ATOM      8  C   UNL     1      50.144   7.115  17.863  0.00  0.00    +0.000 A 
ATOM      9  C   UNL     1      50.171   6.631  16.554  0.00  0.00    +0.000 A 
ATOM     10  N   UNL     1      49.576   5.454  16.261  0.00  0.00    +0.000 NA
BRANCH   9  11
ATOM     11  N   UNL     1      50.915   7.313  15.561  0.00  0.00    +0.000 N 
ATOM     12  H   UNL     1      51.476   8.043  15.988  0.00  0.00    +0.000 HD
BRANCH  11  13
ATOM     13  C   UNL     1      50.314   7.783  14.337  0.00  0.00    +0.000 C 
ATOM     14  C   UNL     1      50.962   8.989  13.647  0.00  0.00    +0.000 C 
ATOM     15  O   UNL     1      49.684   9.685  13.602  0.00  0.00    +0.000 OA
ATOM     16  C   UNL     1      49.148   8.754  14.579  0.00  0.00    +0.000 C 
ENDBRANCH  11  13
ENDBRANCH   9  11
ENDBRANCH   2   5
ENDBRANCH   1   2
BRANCH   1  17
ATOM     17  N   UNL     1      46.746   4.348  15.377  0.00  0.00    +0.000 N 
ATOM     18  H   UNL     1      45.941   4.293  15.998  0.00  0.00    +0.000 HD
BRANCH  17  23
ATOM     19  C   UNL     1      45.057   4.862  12.067  0.00  0.00    +0.000 A 
ATOM     20  C   UNL     1      46.000   5.742  11.541  0.00  0.00    +0.000 A 
ATOM     21  N   UNL     1      47.096   6.175  12.198  0.00  0.00    +0.000 NA
ATOM     22  C   UNL     1      47.275   5.703  13.452  0.00  0.00    +0.000 A 
ATOM     23  C   UNL     1      46.405   4.839  14.121  0.00  0.00    +0.000 A 
ATOM     24  C   UNL     1      45.296   4.416  13.385  0.00  0.00    +0.000 A 
BRANCH  19  26
ATOM     25  C   UNL     1      43.380   2.949  11.659  0.00  0.00    +0.000 C 
ATOM     26  C   UNL     1      43.823   4.384  11.287  0.00  0.00    +0.000 C 
ATOM     27  C   UNL     1      44.163   4.372   9.778  0.00  0.00    +0.000 C 
BRANCH  26  28
ATOM     28  C   UNL     1      42.629   5.342  11.564  0.00  0.00    +0.000 C 
BRANCH  28  29
ATOM     29  O   UNL     1      42.680   6.523  10.767  0.00  0.00    +0.000 OA
ATOM     30  H   UNL     1      42.012   7.141  11.104  0.00  0.00    +0.000 HD
ENDBRANCH  28  29
ENDBRANCH  26  28
ENDBRANCH  19  26
ENDBRANCH  17  23
ENDBRANCH   1  17
TORSDOF 9
ENDMDL
