MODEL 1
REMARK VINA RESULT:    -7.743      0.000      0.000
REMARK INTER + INTRA:         -12.463
REMARK INTER:                 -11.365
REMARK INTRA:                  -1.098
REMARK UNBOUND:                -1.098
REMARK  Name = 
REMARK  9 active torsions:
REMARK  status: ('A' for Active; 'I' for Inactive)
REMARK    1  A    between atoms: C_1  and  O_2
REMARK    2  A    between atoms: O_2  and  C_3
REMARK    3  A    between atoms: C_10  and  C_11
REMARK    4  A    between atoms: N_13  and  C_14
REMARK    5  A    between atoms: C_14  and  C_15
REMARK    6  A    between atoms: C_18  and  C_19
REMARK    7  A    between atoms: C_19  and  C_20
REMARK    8  A    between atoms: C_20  and  C_21
REMARK    9  A    between atoms: C_21  and  C_22
REMARK                            x       y       z     vdW  Elec       q    Type
REMARK                         _______ _______ _______ _____ _____    ______ ____
ROOT
ATOM      1  C   UNL     1      48.389   6.714  13.613  0.00  0.00    +0.000 C 
ENDROOT
BRANCH   1   2
ATOM      2  C   UNL     1      47.176   6.168  12.904  0.00  0.00    +0.000 A 
ATOM      3  C   UNL     1      46.821   6.633  11.631  0.00  0.00    +0.000 A 
ATOM      4  C   UNL     1      45.710   6.108  10.963  0.00  0.00    +0.000 A 
ATOM      5  C   UNL     1      44.929   5.108  11.555  0.00  0.00    +0.000 A 
ATOM      6  C   UNL     1      45.260   4.672  12.845  0.00  0.00    +0.000 A 
ATOM      7  C   UNL     1      46.369   5.199  13.515  0.00  0.00    +0.000 A 
BRANCH   5   8
ATOM      8  C   UNL     1      43.749   4.502  10.831  0.00  0.00    +0.000 C 
BRANCH   8   9
ATOM      9  C   UNL     1      44.080   3.897   9.461  0.00  0.00    +0.000 C 
BRANCH   9  10
ATOM     10  C   UNL     1      44.788   2.543   9.550  0.00  0.00    +0.000 C 
BRANCH  10  11
ATOM     11  C   UNL     1      45.746   2.357   8.404  0.00  0.00    +0.000 A 
ATOM     12  N   UNL     1      45.949   3.406   7.581  0.00  0.00    +0.000 NA
ATOM     13  C   UNL     1      46.808   3.212   6.564  0.00  0.00    +0.000 A 
ATOM     14  C   UNL     1      47.457   2.024   6.331  0.00  0.00    +0.000 A 
ATOM     15  C   UNL     1      47.170   1.013   7.218  0.00  0.00    +0.000 A 
ATOM     16  N   UNL     1      46.322   1.149   8.256  0.00  0.00    +0.000 NA
ENDBRANCH  10  11
ENDBRANCH   9  10
ENDBRANCH   8   9
ENDBRANCH   5   8
ENDBRANCH   1   2
BRANCH   1  19
ATOM     17  C   UNL     1      49.072   6.734  15.976  0.00  0.00    +0.000 C 
ATOM     18  O   UNL     1      50.202   6.342  15.689  0.00  0.00    +0.000 OA
ATOM     19  N   UNL     1      48.123   6.933  15.012  0.00  0.00    +0.000 N 
ATOM     20  H   UNL     1      47.175   7.165  15.275  0.00  0.00    +0.000 HD
BRANCH  17  28
ATOM     21  C   UNL     1      48.973   4.824  18.844  0.00  0.00    +0.000 A 
ATOM     22  N   UNL     1      48.750   4.304  20.067  0.00  0.00    +0.000 NA
ATOM     23  C   UNL     1      48.240   5.099  21.010  0.00  0.00    +0.000 A 
ATOM     24  N   UNL     1      47.922   6.379  20.884  0.00  0.00    +0.000 NA
ATOM     25  C   UNL     1      48.140   6.859  19.650  0.00  0.00    +0.000 A 
ATOM     26  S   UNL     1      47.802   8.489  19.314  0.00  0.00    +0.000 S 
ATOM     27  C   UNL     1      48.280   8.305  17.694  0.00  0.00    +0.000 A 
ATOM     28  C   UNL     1      48.694   7.021  17.369  0.00  0.00    +0.000 A 
ATOM     29  C   UNL     1      48.644   6.163  18.555  0.00  0.00    +0.000 A 
BRANCH  21  31
ATOM     30  C   UNL     1      48.726   2.954  17.451  0.00  0.00    +0.000 C 
ATOM     31  O   UNL     1      49.566   4.019  17.892  0.00  0.00    +0.000 OA
ENDBRANCH  21  31
ENDBRANCH  17  28
ENDBRANCH   1  19
TORSDOF 8
ENDMDL
MODEL 2
REMARK VINA RESULT:    -7.719      1.407      2.745
REMARK INTER + INTRA:         -12.427
REMARK INTER:                 -11.138
REMARK INTRA:                  -1.289
REMARK UNBOUND:                -1.098
REMARK  Name = 
REMARK  9 active torsions:
REMARK  status: ('A' for Active; 'I' for Inactive)
REMARK    1  A    between atoms: C_1  and  O_2
REMARK    2  A    between atoms: O_2  and  C_3
REMARK    3  A    between atoms: C_10  and  C_11
REMARK    4  A    between atoms: N_13  and  C_14
REMARK    5  A    between atoms: C_14  and  C_15
REMARK    6  A    between atoms: C_18  and  C_19
REMARK    7  A    between atoms: C_19  and  C_20
REMARK    8  A    between atoms: C_20  and  C_21
REMARK    9  A    between atoms: C_21  and  C_22
REMARK                            x       y       z     vdW  Elec       q    Type
REMARK                         _______ _______ _______ _____ _____    ______ ____
ROOT
ATOM      1  C   UNL     1      48.296   6.789  13.877  0.00  0.00    +0.000 C 
ENDROOT
BRANCH   1   2
ATOM      2  C   UNL     1      47.160   6.176  13.099  0.00  0.00    +0.000 A 
ATOM      3  C   UNL     1      46.376   5.158  13.656  0.00  0.00    +0.000 A 
ATOM      4  C   UNL     1      45.307   4.607  12.943  0.00  0.00    +0.000 A 
ATOM      5  C   UNL     1      45.000   5.062  11.654  0.00  0.00    +0.000 A 
ATOM      6  C   UNL     1      45.809   6.052  11.081  0.00  0.00    +0.000 A 
ATOM      7  C   UNL     1      46.881   6.600  11.793  0.00  0.00    +0.000 A 
BRANCH   5   8
ATOM      8  C   UNL     1      43.824   4.505  10.885  0.00  0.00    +0.000 C 
BRANCH   8   9
ATOM      9  C   UNL     1      44.160   4.007   9.474  0.00  0.00    +0.000 C 
BRANCH   9  10
ATOM     10  C   UNL     1      44.653   2.558   9.442  0.00  0.00    +0.000 C 
BRANCH  10  11
ATOM     11  C   UNL     1      45.670   2.356   8.350  0.00  0.00    +0.000 A 
ATOM     12  N   UNL     1      46.251   1.144   8.252  0.00  0.00    +0.000 NA
ATOM     13  C   UNL     1      47.158   0.992   7.270  0.00  0.00    +0.000 A 
ATOM     14  C   UNL     1      47.511   1.993   6.398  0.00  0.00    +0.000 A 
ATOM     15  C   UNL     1      46.872   3.195   6.592  0.00  0.00    +0.000 A 
ATOM     16  N   UNL     1      45.955   3.406   7.555  0.00  0.00    +0.000 NA
ENDBRANCH  10  11
ENDBRANCH   9  10
ENDBRANCH   8   9
ENDBRANCH   5   8
ENDBRANCH   1   2
BRANCH   1  19
ATOM     17  C   UNL     1      49.006   6.481  16.212  0.00  0.00    +0.000 C 
ATOM     18  O   UNL     1      50.156   6.219  15.864  0.00  0.00    +0.000 OA
ATOM     19  N   UNL     1      48.033   6.765  15.294  0.00  0.00    +0.000 N 
ATOM     20  H   UNL     1      47.075   6.886  15.592  0.00  0.00    +0.000 HD
BRANCH  17  28
ATOM     21  C   UNL     1      47.758   8.950  18.269  0.00  0.00    +0.000 A 
ATOM     22  N   UNL     1      47.368   9.727  19.298  0.00  0.00    +0.000 NA
ATOM     23  C   UNL     1      47.302   9.182  20.513  0.00  0.00    +0.000 A 
ATOM     24  N   UNL     1      47.579   7.928  20.838  0.00  0.00    +0.000 NA
ATOM     25  C   UNL     1      47.981   7.188  19.795  0.00  0.00    +0.000 A 
ATOM     26  S   UNL     1      48.362   5.549  20.027  0.00  0.00    +0.000 S 
ATOM     27  C   UNL     1      48.762   5.358  18.387  0.00  0.00    +0.000 A 
ATOM     28  C   UNL     1      48.627   6.517  17.633  0.00  0.00    +0.000 A 
ATOM     29  C   UNL     1      48.122   7.605  18.474  0.00  0.00    +0.000 A 
BRANCH  21  31
ATOM     30  C   UNL     1      48.957  10.203  16.689  0.00  0.00    +0.000 C 
ATOM     31  O   UNL     1      47.757   9.497  17.001  0.00  0.00    +0.000 OA
ENDBRANCH  21  31
ENDBRANCH  17  28
ENDBRANCH   1  19
TORSDOF 8
ENDMDL
MODEL 3
REMARK VINA RESULT:    -7.440      1.342      1.446
REMARK INTER + INTRA:         -12.018
REMARK INTER:                 -10.784
REMARK INTRA:                  -1.234
REMARK UNBOUND:                -1.098
REMARK  Name = 
REMARK  9 active torsions:
REMARK  status: ('A' for Active; 'I' for Inactive)
REMARK    1  A    between atoms: C_1  and  O_2
REMARK    2  A    between atoms: O_2  and  C_3
REMARK    3  A    between atoms: C_10  and  C_11
REMARK    4  A    between atoms: N_13  and  C_14
REMARK    5  A    between atoms: C_14  and  C_15
REMARK    6  A    between atoms: C_18  and  C_19
REMARK    7  A    between atoms: C_19  and  C_20
REMARK    8  A    between atoms: C_20  and  C_21
REMARK    9  A    between atoms: C_21  and  C_22
REMARK                            x       y       z     vdW  Elec       q    Type
REMARK                         _______ _______ _______ _____ _____    ______ ____
ROOT
ATOM      1  C   UNL     1      47.119   8.309  13.053  0.00  0.00    +0.000 C 
ENDROOT
BRANCH   1   2
ATOM      2  C   UNL     1      46.194   7.210  12.597  0.00  0.00    +0.000 A 
ATOM      3  C   UNL     1      45.010   7.509  11.909  0.00  0.00    +0.000 A 
ATOM      4  C   UNL     1      44.165   6.488  11.465  0.00  0.00    +0.000 A 
ATOM      5  C   UNL     1      44.483   5.144  11.701  0.00  0.00    +0.000 A 
ATOM      6  C   UNL     1      45.646   4.847  12.424  0.00  0.00    +0.000 A 
ATOM      7  C   UNL     1      46.489   5.869  12.873  0.00  0.00    +0.000 A 
BRANCH   5   8
ATOM      8  C   UNL     1      43.601   4.028  11.194  0.00  0.00    +0.000 C 
BRANCH   8   9
ATOM      9  C   UNL     1      44.257   3.117  10.149  0.00  0.00    +0.000 C 
BRANCH   9  10
ATOM     10  C   UNL     1      44.577   3.833   8.834  0.00  0.00    +0.000 C 
BRANCH  10  11
ATOM     11  C   UNL     1      45.584   3.059   8.027  0.00  0.00    +0.000 A 
ATOM     12  N   UNL     1      46.099   3.652   6.931  0.00  0.00    +0.000 NA
ATOM     13  C   UNL     1      46.995   2.937   6.227  0.00  0.00    +0.000 A 
ATOM     14  C   UNL     1      47.385   1.663   6.563  0.00  0.00    +0.000 A 
ATOM     15  C   UNL     1      46.792   1.143   7.688  0.00  0.00    +0.000 A 
ATOM     16  N   UNL     1      45.891   1.812   8.434  0.00  0.00    +0.000 NA
ENDBRANCH  10  11
ENDBRANCH   9  10
ENDBRANCH   8   9
ENDBRANCH   5   8
ENDBRANCH   1   2
BRANCH   1  19
ATOM     17  C   UNL     1      48.675   7.967  14.926  0.00  0.00    +0.000 C 
ATOM     18  O   UNL     1      49.625   7.828  14.158  0.00  0.00    +0.000 OA
ATOM     19  N   UNL     1      47.411   8.198  14.459  0.00  0.00    +0.000 N 
ATOM     20  H   UNL     1      46.630   8.216  15.100  0.00  0.00    +0.000 HD
BRANCH  17  28
ATOM     21  C   UNL     1      48.544   5.398  17.222  0.00  0.00    +0.000 A 
ATOM     22  N   UNL     1      48.461   4.625  18.322  0.00  0.00    +0.000 NA
ATOM     23  C   UNL     1      48.628   5.201  19.514  0.00  0.00    +0.000 A 
ATOM     24  N   UNL     1      48.879   6.480  19.751  0.00  0.00    +0.000 NA
ATOM     25  C   UNL     1      48.936   7.223  18.636  0.00  0.00    +0.000 A 
ATOM     26  S   UNL     1      49.265   8.885  18.753  0.00  0.00    +0.000 S 
ATOM     27  C   UNL     1      49.152   9.077  17.069  0.00  0.00    +0.000 A 
ATOM     28  C   UNL     1      48.858   7.904  16.385  0.00  0.00    +0.000 A 
ATOM     29  C   UNL     1      48.766   6.786  17.326  0.00  0.00    +0.000 A 
BRANCH  21  31
ATOM     30  C   UNL     1      47.374   3.844  15.911  0.00  0.00    +0.000 C 
ATOM     31  O   UNL     1      48.440   4.789  15.987  0.00  0.00    +0.000 OA
ENDBRANCH  21  31
ENDBRANCH  17  28
ENDBRANCH   1  19
TORSDOF 8
ENDMDL
MODEL 4
REMARK VINA RESULT:    -7.403      2.552      3.293
REMARK INTER + INTRA:         -11.963
REMARK INTER:                 -10.835
REMARK INTRA:                  -1.129
REMARK UNBOUND:                -1.098
REMARK  Name = 
REMARK  9 active torsions:
REMARK  status: ('A' for Active; 'I' for Inactive)
REMARK    1  A    between atoms: C_1  and  O_2
REMARK    2  A    between atoms: O_2  and  C_3
REMARK    3  A    between atoms: C_10  and  C_11
REMARK    4  A    between atoms: N_13  and  C_14
REMARK    5  A    between atoms: C_14  and  C_15
REMARK    6  A    between atoms: C_18  and  C_19
REMARK    7  A    between atoms: C_19  and  C_20
REMARK    8  A    between atoms: C_20  and  C_21
REMARK    9  A    between atoms: C_21  and  C_22
REMARK                            x       y       z     vdW  Elec       q    Type
REMARK                         _______ _______ _______ _____ _____    ______ ____
ROOT
ATOM      1  C   UNL     1      48.923   7.180  15.462  0.00  0.00    +0.000 C 
ENDROOT
BRANCH   1   2
ATOM      2  C   UNL     1      47.956   6.504  14.525  0.00  0.00    +0.000 A 
ATOM      3  C   UNL     1      47.526   7.144  13.355  0.00  0.00    +0.000 A 
ATOM      4  C   UNL     1      46.648   6.505  12.473  0.00  0.00    +0.000 A 
ATOM      5  C   UNL     1      46.180   5.213  12.743  0.00  0.00    +0.000 A 
ATOM      6  C   UNL     1      46.579   4.589  13.932  0.00  0.00    +0.000 A 
ATOM      7  C   UNL     1      47.453   5.229  14.817  0.00  0.00    +0.000 A 
BRANCH   5   8
ATOM      8  C   UNL     1      45.263   4.494  11.781  0.00  0.00    +0.000 C 
BRANCH   8   9
ATOM      9  C   UNL     1      45.229   5.084  10.366  0.00  0.00    +0.000 C 
BRANCH   9  10
ATOM     10  C   UNL     1      44.478   4.208   9.360  0.00  0.00    +0.000 C 
BRANCH  10  11
ATOM     11  C   UNL     1      45.436   3.402   8.524  0.00  0.00    +0.000 A 
ATOM     12  N   UNL     1      46.104   4.042   7.544  0.00  0.00    +0.000 NA
ATOM     13  C   UNL     1      46.951   3.297   6.810  0.00  0.00    +0.000 A 
ATOM     14  C   UNL     1      47.149   1.952   7.008  0.00  0.00    +0.000 A 
ATOM     15  C   UNL     1      46.410   1.391   8.023  0.00  0.00    +0.000 A 
ATOM     16  N   UNL     1      45.549   2.086   8.791  0.00  0.00    +0.000 NA
ENDBRANCH  10  11
ENDBRANCH   9  10
ENDBRANCH   8   9
ENDBRANCH   5   8
ENDBRANCH   1   2
BRANCH   1  19
ATOM     17  C   UNL     1      50.197   5.963  17.178  0.00  0.00    +0.000 C 
ATOM     18  O   UNL     1      49.511   6.443  18.078  0.00  0.00    +0.000 OA
ATOM     19  N   UNL     1      49.975   6.283  15.868  0.00  0.00    +0.000 N 
ATOM     20  H   UNL     1      50.607   5.953  15.151  0.00  0.00    +0.000 HD
BRANCH  17  28
ATOM     21  C   UNL     1      50.406   2.523  17.119  0.00  0.00    +0.000 A 
ATOM     22  N   UNL     1      50.738   1.226  17.271  0.00  0.00    +0.000 NA
ATOM     23  C   UNL     1      51.961   0.933  17.716  0.00  0.00    +0.000 A 
ATOM     24  N   UNL     1      52.919   1.792  18.031  0.00  0.00    +0.000 NA
ATOM     25  C   UNL     1      52.550   3.073  17.885  0.00  0.00    +0.000 A 
ATOM     26  S   UNL     1      53.662   4.310  18.229  0.00  0.00    +0.000 S 
ATOM     27  C   UNL     1      52.519   5.509  17.852  0.00  0.00    +0.000 A 
ATOM     28  C   UNL     1      51.281   5.011  17.468  0.00  0.00    +0.000 A 
ATOM     29  C   UNL     1      51.314   3.547  17.454  0.00  0.00    +0.000 A 
BRANCH  21  31
ATOM     30  C   UNL     1      48.133   2.878  17.574  0.00  0.00    +0.000 C 
ATOM     31  O   UNL     1      49.165   2.821  16.592  0.00  0.00    +0.000 OA
ENDBRANCH  21  31
ENDBRANCH  17  28
ENDBRANCH   1  19
TORSDOF 8
ENDMDL
MODEL 5
REMARK VINA RESULT:    -7.269      2.197      2.716
REMARK INTER + INTRA:         -11.767
REMARK INTER:                 -10.431
REMARK INTRA:                  -1.336
REMARK UNBOUND:                -1.098
REMARK  Name = 
REMARK  9 active torsions:
REMARK  status: ('A' for Active; 'I' for Inactive)
REMARK    1  A    between atoms: C_1  and  O_2
REMARK    2  A    between atoms: O_2  and  C_3
REMARK    3  A    between atoms: C_10  and  C_11
REMARK    4  A    between atoms: N_13  and  C_14
REMARK    5  A    between atoms: C_14  and  C_15
REMARK    6  A    between atoms: C_18  and  C_19
REMARK    7  A    between atoms: C_19  and  C_20
REMARK    8  A    between atoms: C_20  and  C_21
REMARK    9  A    between atoms: C_21  and  C_22
REMARK                            x       y       z     vdW  Elec       q    Type
REMARK                         _______ _______ _______ _____ _____    ______ ____
ROOT
ATOM      1  C   UNL     1      46.756   7.745  13.448  0.00  0.00    +0.000 C 
ENDROOT
BRANCH   1   2
ATOM      2  C   UNL     1      45.955   6.603  12.878  0.00  0.00    +0.000 A 
ATOM      3  C   UNL     1      46.395   5.280  13.016  0.00  0.00    +0.000 A 
ATOM      4  C   UNL     1      45.638   4.219  12.509  0.00  0.00    +0.000 A 
ATOM      5  C   UNL     1      44.425   4.459  11.850  0.00  0.00    +0.000 A 
ATOM      6  C   UNL     1      44.006   5.785  11.677  0.00  0.00    +0.000 A 
ATOM      7  C   UNL     1      44.765   6.846  12.180  0.00  0.00    +0.000 A 
BRANCH   5   8
ATOM      8  C   UNL     1      43.576   3.323  11.330  0.00  0.00    +0.000 C 
BRANCH   8   9
ATOM      9  C   UNL     1      44.148   2.607  10.100  0.00  0.00    +0.000 C 
BRANCH   9  10
ATOM     10  C   UNL     1      44.532   3.560   8.966  0.00  0.00    +0.000 C 
BRANCH  10  11
ATOM     11  C   UNL     1      45.551   2.932   8.053  0.00  0.00    +0.000 A 
ATOM     12  N   UNL     1      46.003   1.702   8.370  0.00  0.00    +0.000 NA
ATOM     13  C   UNL     1      46.916   1.166   7.540  0.00  0.00    +0.000 A 
ATOM     14  C   UNL     1      47.397   1.805   6.422  0.00  0.00    +0.000 A 
ATOM     15  C   UNL     1      46.883   3.060   6.195  0.00  0.00    +0.000 A 
ATOM     16  N   UNL     1      45.968   3.647   6.989  0.00  0.00    +0.000 NA
ENDBRANCH  10  11
ENDBRANCH   9  10
ENDBRANCH   8   9
ENDBRANCH   5   8
ENDBRANCH   1   2
BRANCH   1  19
ATOM     17  C   UNL     1      48.810   8.115  14.750  0.00  0.00    +0.000 C 
ATOM     18  O   UNL     1      48.599   9.324  14.807  0.00  0.00    +0.000 OA
ATOM     19  N   UNL     1      47.955   7.274  14.094  0.00  0.00    +0.000 N 
ATOM     20  H   UNL     1      48.193   6.298  13.978  0.00  0.00    +0.000 HD
BRANCH  17  28
ATOM     21  C   UNL     1      49.255   5.340  16.748  0.00  0.00    +0.000 A 
ATOM     22  N   UNL     1      49.694   4.396  17.602  0.00  0.00    +0.000 NA
ATOM     23  C   UNL     1      50.980   4.410  17.955  0.00  0.00    +0.000 A 
ATOM     24  N   UNL     1      51.907   5.265  17.548  0.00  0.00    +0.000 NA
ATOM     25  C   UNL     1      51.432   6.202  16.714  0.00  0.00    +0.000 A 
ATOM     26  S   UNL     1      52.487   7.373  16.081  0.00  0.00    +0.000 S 
ATOM     27  C   UNL     1      51.224   8.119  15.223  0.00  0.00    +0.000 A 
ATOM     28  C   UNL     1      49.987   7.513  15.398  0.00  0.00    +0.000 A 
ATOM     29  C   UNL     1      50.122   6.340  16.265  0.00  0.00    +0.000 A 
BRANCH  21  31
ATOM     30  C   UNL     1      47.379   3.972  16.413  0.00  0.00    +0.000 C 
ATOM     31  O   UNL     1      47.940   5.281  16.329  0.00  0.00    +0.000 OA
ENDBRANCH  21  31
ENDBRANCH  17  28
ENDBRANCH   1  19
TORSDOF 8
ENDMDL
MODEL 6
REMARK VINA RESULT:    -7.043      1.523      2.157
REMARK INTER + INTRA:         -11.435
REMARK INTER:                 -10.275
REMARK INTRA:                  -1.160
REMARK UNBOUND:                -1.098
REMARK  Name = 
REMARK  9 active torsions:
REMARK  status: ('A' for Active; 'I' for Inactive)
REMARK    1  A    between atoms: C_1  and  O_2
REMARK    2  A    between atoms: O_2  and  C_3
REMARK    3  A    between atoms: C_10  and  C_11
REMARK    4  A    between atoms: N_13  and  C_14
REMARK    5  A    between atoms: C_14  and  C_15
REMARK    6  A    between atoms: C_18  and  C_19
REMARK    7  A    between atoms: C_19  and  C_20
REMARK    8  A    between atoms: C_20  and  C_21
REMARK    9  A    between atoms: C_21  and  C_22
REMARK                            x       y       z     vdW  Elec       q    Type
REMARK                         _______ _______ _______ _____ _____    ______ ____
ROOT
ATOM      1  C   UNL     1      47.697   8.896  13.806  0.00  0.00    +0.000 C 
ENDROOT
BRANCH   1   2
ATOM      2  C   UNL     1      46.853   7.907  13.044  0.00  0.00    +0.000 A 
ATOM      3  C   UNL     1      47.244   6.566  12.932  0.00  0.00    +0.000 A 
ATOM      4  C   UNL     1      46.448   5.644  12.247  0.00  0.00    +0.000 A 
ATOM      5  C   UNL     1      45.243   6.043  11.654  0.00  0.00    +0.000 A 
ATOM      6  C   UNL     1      44.872   7.392  11.731  0.00  0.00    +0.000 A 
ATOM      7  C   UNL     1      45.670   8.316  12.413  0.00  0.00    +0.000 A 
BRANCH   5   8
ATOM      8  C   UNL     1      44.352   5.052  10.943  0.00  0.00    +0.000 C 
BRANCH   8   9
ATOM      9  C   UNL     1      44.926   3.633  10.841  0.00  0.00    +0.000 C 
BRANCH   9  10
ATOM     10  C   UNL     1      44.385   2.843   9.647  0.00  0.00    +0.000 C 
BRANCH  10  11
ATOM     11  C   UNL     1      45.451   2.640   8.604  0.00  0.00    +0.000 A 
ATOM     12  N   UNL     1      45.980   1.406   8.481  0.00  0.00    +0.000 NA
ATOM     13  C   UNL     1      46.933   1.253   7.544  0.00  0.00    +0.000 A 
ATOM     14  C   UNL     1      47.381   2.273   6.740  0.00  0.00    +0.000 A 
ATOM     15  C   UNL     1      46.788   3.495   6.954  0.00  0.00    +0.000 A 
ATOM     16  N   UNL     1      45.828   3.708   7.875  0.00  0.00    +0.000 NA
ENDBRANCH  10  11
ENDBRANCH   9  10
ENDBRANCH   8   9
ENDBRANCH   5   8
ENDBRANCH   1   2
BRANCH   1  19
ATOM     17  C   UNL     1      48.248   9.478  16.131  0.00  0.00    +0.000 C 
ATOM     18  O   UNL     1      49.024  10.358  15.764  0.00  0.00    +0.000 OA
ATOM     19  N   UNL     1      47.565   8.711  15.228  0.00  0.00    +0.000 N 
ATOM     20  H   UNL     1      47.004   7.933  15.547  0.00  0.00    +0.000 HD
BRANCH  17  28
ATOM     21  C   UNL     1      48.337   6.627  18.067  0.00  0.00    +0.000 A 
ATOM     22  N   UNL     1      48.206   5.684  19.021  0.00  0.00    +0.000 NA
ATOM     23  C   UNL     1      47.814   6.065  20.238  0.00  0.00    +0.000 A 
ATOM     24  N   UNL     1      47.533   7.298  20.633  0.00  0.00    +0.000 NA
ATOM     25  C   UNL     1      47.656   8.207  19.655  0.00  0.00    +0.000 A 
ATOM     26  S   UNL     1      47.351   9.844  19.991  0.00  0.00    +0.000 S 
ATOM     27  C   UNL     1      47.673  10.285  18.382  0.00  0.00    +0.000 A 
ATOM     28  C   UNL     1      48.009   9.218  17.559  0.00  0.00    +0.000 A 
ATOM     29  C   UNL     1      48.033   7.976  18.336  0.00  0.00    +0.000 A 
BRANCH  21  31
ATOM     30  C   UNL     1      50.232   6.311  16.721  0.00  0.00    +0.000 C 
ATOM     31  O   UNL     1      48.811   6.241  16.829  0.00  0.00    +0.000 OA
ENDBRANCH  21  31
ENDBRANCH  17  28
ENDBRANCH   1  19
TORSDOF 8
ENDMDL
MODEL 7
REMARK VINA RESULT:    -6.874      4.791      9.484
REMARK INTER + INTRA:         -11.187
REMARK INTER:                 -10.160
REMARK INTRA:                  -1.027
REMARK UNBOUND:                -1.098
REMARK  Name = 
REMARK  9 active torsions:
REMARK  status: ('A' for Active; 'I' for Inactive)
REMARK    1  A    between atoms: C_1  and  O_2
REMARK    2  A    between atoms: O_2  and  C_3
REMARK    3  A    between atoms: C_10  and  C_11
REMARK    4  A    between atoms: N_13  and  C_14
REMARK    5  A    between atoms: C_14  and  C_15
REMARK    6  A    between atoms: C_18  and  C_19
REMARK    7  A    between atoms: C_19  and  C_20
REMARK    8  A    between atoms: C_20  and  C_21
REMARK    9  A    between atoms: C_21  and  C_22
REMARK                            x       y       z     vdW  Elec       q    Type
REMARK                         _______ _______ _______ _____ _____    ______ ____
ROOT
ATOM      1  C   UNL     1      47.334   3.420  16.762  0.00  0.00    +0.000 C 
ENDROOT
BRANCH   1   2
ATOM      2  C   UNL     1      48.812   3.361  17.050  0.00  0.00    +0.000 A 
ATOM      3  C   UNL     1      49.522   4.519  17.392  0.00  0.00    +0.000 A 
ATOM      4  C   UNL     1      50.889   4.459  17.684  0.00  0.00    +0.000 A 
ATOM      5  C   UNL     1      51.575   3.239  17.636  0.00  0.00    +0.000 A 
ATOM      6  C   UNL     1      50.873   2.088  17.255  0.00  0.00    +0.000 A 
ATOM      7  C   UNL     1      49.508   2.148  16.959  0.00  0.00    +0.000 A 
BRANCH   5   8
ATOM      8  C   UNL     1      53.042   3.150  17.986  0.00  0.00    +0.000 C 
BRANCH   8   9
ATOM      9  C   UNL     1      53.506   1.766  18.456  0.00  0.00    +0.000 C 
BRANCH   9  10
ATOM     10  C   UNL     1      54.421   1.059  17.453  0.00  0.00    +0.000 C 
BRANCH  10  11
ATOM     11  C   UNL     1      54.474  -0.422  17.720  0.00  0.00    +0.000 A 
ATOM     12  N   UNL     1      54.950  -1.218  16.742  0.00  0.00    +0.000 NA
ATOM     13  C   UNL     1      54.983  -2.537  17.005  0.00  0.00    +0.000 A 
ATOM     14  C   UNL     1      54.556  -3.088  18.189  0.00  0.00    +0.000 A 
ATOM     15  C   UNL     1      54.076  -2.193  19.116  0.00  0.00    +0.000 A 
ATOM     16  N   UNL     1      54.020  -0.863  18.910  0.00  0.00    +0.000 NA
ENDBRANCH  10  11
ENDBRANCH   9  10
ENDBRANCH   8   9
ENDBRANCH   5   8
ENDBRANCH   1   2
BRANCH   1  19
ATOM     17  C   UNL     1      46.967   4.298  14.494  0.00  0.00    +0.000 C 
ATOM     18  O   UNL     1      47.199   3.200  13.993  0.00  0.00    +0.000 OA
ATOM     19  N   UNL     1      47.020   4.488  15.847  0.00  0.00    +0.000 N 
ATOM     20  H   UNL     1      46.918   5.416  16.233  0.00  0.00    +0.000 HD
BRANCH  17  28
ATOM     21  C   UNL     1      44.146   5.136  12.697  0.00  0.00    +0.000 A 
ATOM     22  N   UNL     1      43.236   5.660  11.854  0.00  0.00    +0.000 NA
ATOM     23  C   UNL     1      43.533   6.802  11.232  0.00  0.00    +0.000 A 
ATOM     24  N   UNL     1      44.649   7.506  11.352  0.00  0.00    +0.000 NA
ATOM     25  C   UNL     1      45.539   6.947  12.184  0.00  0.00    +0.000 A 
ATOM     26  S   UNL     1      47.023   7.724  12.470  0.00  0.00    +0.000 S 
ATOM     27  C   UNL     1      47.530   6.481  13.511  0.00  0.00    +0.000 A 
ATOM     28  C   UNL     1      46.605   5.456  13.662  0.00  0.00    +0.000 A 
ATOM     29  C   UNL     1      45.396   5.757  12.892  0.00  0.00    +0.000 A 
BRANCH  21  31
ATOM     30  C   UNL     1      43.630   2.852  12.555  0.00  0.00    +0.000 C 
ATOM     31  O   UNL     1      43.808   3.992  13.394  0.00  0.00    +0.000 OA
ENDBRANCH  21  31
ENDBRANCH  17  28
ENDBRANCH   1  19
TORSDOF 8
ENDMDL
MODEL 8
REMARK VINA RESULT:    -6.739      1.405      1.715
REMARK INTER + INTRA:         -10.989
REMARK INTER:                  -9.799
REMARK INTRA:                  -1.189
REMARK UNBOUND:                -1.098
REMARK  Name = 
REMARK  9 active torsions:
REMARK  status: ('A' for Active; 'I' for Inactive)
REMARK    1  A    between atoms: C_1  and  O_2
REMARK    2  A    between atoms: O_2  and  C_3
REMARK    3  A    between atoms: C_10  and  C_11
REMARK    4  A    between atoms: N_13  and  C_14
REMARK    5  A    between atoms: C_14  and  C_15
REMARK    6  A    between atoms: C_18  and  C_19
REMARK    7  A    between atoms: C_19  and  C_20
REMARK    8  A    between atoms: C_20  and  C_21
REMARK    9  A    between atoms: C_21  and  C_22
REMARK                            x       y       z     vdW  Elec       q    Type
REMARK                         _______ _______ _______ _____ _____    ______ ____
ROOT
ATOM      1  C   UNL     1      48.990   7.885  13.798  0.00  0.00    +0.000 C 
ENDROOT
BRANCH   1   2
ATOM      2  C   UNL     1      47.864   7.124  13.148  0.00  0.00    +0.000 A 
ATOM      3  C   UNL     1      47.719   5.745  13.352  0.00  0.00    +0.000 A 
ATOM      4  C   UNL     1      46.659   5.044  12.769  0.00  0.00    +0.000 A 
ATOM      5  C   UNL     1      45.723   5.706  11.965  0.00  0.00    +0.000 A 
ATOM      6  C   UNL     1      45.891   7.076  11.728  0.00  0.00    +0.000 A 
ATOM      7  C   UNL     1      46.953   7.777  12.308  0.00  0.00    +0.000 A 
BRANCH   5   8
ATOM      8  C   UNL     1      44.550   4.971  11.359  0.00  0.00    +0.000 C 
BRANCH   8   9
ATOM      9  C   UNL     1      44.785   3.473  11.124  0.00  0.00    +0.000 C 
BRANCH   9  10
ATOM     10  C   UNL     1      44.213   2.969   9.797  0.00  0.00    +0.000 C 
BRANCH  10  11
ATOM     11  C   UNL     1      45.299   2.801   8.768  0.00  0.00    +0.000 A 
ATOM     12  N   UNL     1      45.640   3.879   8.035  0.00  0.00    +0.000 NA
ATOM     13  C   UNL     1      46.611   3.701   7.121  0.00  0.00    +0.000 A 
ATOM     14  C   UNL     1      47.242   2.500   6.906  0.00  0.00    +0.000 A 
ATOM     15  C   UNL     1      46.812   1.459   7.695  0.00  0.00    +0.000 A 
ATOM     16  N   UNL     1      45.847   1.578   8.626  0.00  0.00    +0.000 NA
ENDBRANCH  10  11
ENDBRANCH   9  10
ENDBRANCH   8   9
ENDBRANCH   5   8
ENDBRANCH   1   2
BRANCH   1  19
ATOM     17  C   UNL     1      50.338   7.443  15.807  0.00  0.00    +0.000 C 
ATOM     18  O   UNL     1      51.384   7.637  15.191  0.00  0.00    +0.000 OA
ATOM     19  N   UNL     1      49.122   7.539  15.190  0.00  0.00    +0.000 N 
ATOM     20  H   UNL     1      48.280   7.286  15.689  0.00  0.00    +0.000 HD
BRANCH  17  28
ATOM     21  C   UNL     1      48.914   4.911  17.663  0.00  0.00    +0.000 A 
ATOM     22  N   UNL     1      48.410   4.113  18.625  0.00  0.00    +0.000 NA
ATOM     23  C   UNL     1      48.702   4.392  19.896  0.00  0.00    +0.000 A 
ATOM     24  N   UNL     1      49.455   5.388  20.339  0.00  0.00    +0.000 NA
ATOM     25  C   UNL     1      49.925   6.172  19.357  0.00  0.00    +0.000 A 
ATOM     26  S   UNL     1      50.924   7.491  19.743  0.00  0.00    +0.000 S 
ATOM     27  C   UNL     1      51.053   7.936  18.109  0.00  0.00    +0.000 A 
ATOM     28  C   UNL     1      50.346   7.113  17.241  0.00  0.00    +0.000 A 
ATOM     29  C   UNL     1      49.700   6.033  17.990  0.00  0.00    +0.000 A 
BRANCH  21  31
ATOM     30  C   UNL     1      47.633   3.609  16.190  0.00  0.00    +0.000 C 
ATOM     31  O   UNL     1      48.669   4.579  16.345  0.00  0.00    +0.000 OA
ENDBRANCH  21  31
ENDBRANCH  17  28
ENDBRANCH   1  19
TORSDOF 8
ENDMDL
MODEL 9
REMARK VINA RESULT:    -6.682      3.911      8.889
REMARK INTER + INTRA:         -10.905
REMARK INTER:                  -9.621
REMARK INTRA:                  -1.284
REMARK UNBOUND:                -1.098
REMARK  Name = 
REMARK  9 active torsions:
REMARK  status: ('A' for Active; 'I' for Inactive)
REMARK    1  A    between atoms: C_1  and  O_2
REMARK    2  A    between atoms: O_2  and  C_3
REMARK    3  A    between atoms: C_10  and  C_11
REMARK    4  A    between atoms: N_13  and  C_14
REMARK    5  A    between atoms: C_14  and  C_15
REMARK    6  A    between atoms: C_18  and  C_19
REMARK    7  A    between atoms: C_19  and  C_20
REMARK    8  A    between atoms: C_20  and  C_21
REMARK    9  A    between atoms: C_21  and  C_22
REMARK                            x       y       z     vdW  Elec       q    Type
REMARK                         _______ _______ _______ _____ _____    ______ ____
ROOT
ATOM      1  C   UNL     1      47.372   3.251  16.918  0.00  0.00    +0.000 C 
ENDROOT
BRANCH   1   2
ATOM      2  C   UNL     1      48.842   3.247  17.251  0.00  0.00    +0.000 A 
ATOM      3  C   UNL     1      49.645   2.143  16.938  0.00  0.00    +0.000 A 
ATOM      4  C   UNL     1      51.014   2.149  17.225  0.00  0.00    +0.000 A 
ATOM      5  C   UNL     1      51.609   3.262  17.834  0.00  0.00    +0.000 A 
ATOM      6  C   UNL     1      50.799   4.350  18.183  0.00  0.00    +0.000 A 
ATOM      7  C   UNL     1      49.429   4.341  17.901  0.00  0.00    +0.000 A 
BRANCH   5   8
ATOM      8  C   UNL     1      53.093   3.301  18.114  0.00  0.00    +0.000 C 
BRANCH   8   9
ATOM      9  C   UNL     1      53.709   4.706  18.110  0.00  0.00    +0.000 C 
BRANCH   9  10
ATOM     10  C   UNL     1      54.559   4.994  16.870  0.00  0.00    +0.000 C 
BRANCH  10  11
ATOM     11  C   UNL     1      53.969   6.116  16.058  0.00  0.00    +0.000 A 
ATOM     12  N   UNL     1      54.684   6.575  15.011  0.00  0.00    +0.000 NA
ATOM     13  C   UNL     1      54.136   7.580  14.305  0.00  0.00    +0.000 A 
ATOM     14  C   UNL     1      52.921   8.147  14.605  0.00  0.00    +0.000 A 
ATOM     15  C   UNL     1      52.278   7.618  15.699  0.00  0.00    +0.000 A 
ATOM     16  N   UNL     1      52.776   6.611  16.442  0.00  0.00    +0.000 NA
ENDBRANCH  10  11
ENDBRANCH   9  10
ENDBRANCH   8   9
ENDBRANCH   5   8
ENDBRANCH   1   2
BRANCH   1  19
ATOM     17  C   UNL     1      47.061   4.187  14.665  0.00  0.00    +0.000 C 
ATOM     18  O   UNL     1      47.380   3.122  14.141  0.00  0.00    +0.000 OA
ATOM     19  N   UNL     1      47.041   4.332  16.025  0.00  0.00    +0.000 N 
ATOM     20  H   UNL     1      46.867   5.239  16.435  0.00  0.00    +0.000 HD
BRANCH  17  28
ATOM     21  C   UNL     1      44.346   4.874  12.656  0.00  0.00    +0.000 A 
ATOM     22  N   UNL     1      43.469   5.361  11.756  0.00  0.00    +0.000 NA
ATOM     23  C   UNL     1      43.717   6.554  11.213  0.00  0.00    +0.000 A 
ATOM     24  N   UNL     1      44.751   7.343  11.466  0.00  0.00    +0.000 NA
ATOM     25  C   UNL     1      45.612   6.820  12.351  0.00  0.00    +0.000 A 
ATOM     26  S   UNL     1      46.989   7.704  12.804  0.00  0.00    +0.000 S 
ATOM     27  C   UNL     1      47.512   6.458  13.833  0.00  0.00    +0.000 A 
ATOM     28  C   UNL     1      46.673   5.352  13.854  0.00  0.00    +0.000 A 
ATOM     29  C   UNL     1      45.513   5.587  12.991  0.00  0.00    +0.000 A 
BRANCH  21  31
ATOM     30  C   UNL     1      43.502   2.703  12.376  0.00  0.00    +0.000 C 
ATOM     31  O   UNL     1      44.051   3.671  13.268  0.00  0.00    +0.000 OA
ENDBRANCH  21  31
ENDBRANCH  17  28
ENDBRANCH   1  19
TORSDOF 8
ENDMDL
