MODEL 1
REMARK VINA RESULT:    -8.077      0.000      0.000
REMARK INTER + INTRA:         -12.887
REMARK INTER:                 -11.382
REMARK INTRA:                  -1.505
REMARK UNBOUND:                -1.505
REMARK  Name = 
REMARK  7 active torsions:
REMARK  status: ('A' for Active; 'I' for Inactive)
REMARK    1  A    between atoms: C_2  and  C_20
REMARK    2  A    between atoms: N_3  and  C_4
REMARK    3  A    between atoms: C_4  and  C_5
REMARK    4  A    between atoms: C_8  and  C_9
REMARK    5  A    between atoms: C_9  and  N_10
REMARK    6  A    between atoms: N_10  and  C_11
REMARK    7  A    between atoms: C_11  and  C_12
REMARK                            x       y       z     vdW  Elec       q    Type
REMARK                         _______ _______ _______ _____ _____    ______ ____
ROOT
ATOM      1  C   UNL     1      47.334   8.437  12.803  0.00  0.00    +0.000 C 
ENDROOT
BRANCH   1   2
ATOM      2  C   UNL     1      46.259   7.697  12.008  0.00  0.00    +0.000 C 
ATOM      3  C   UNL     1      45.207   7.069  12.939  0.00  0.00    +0.000 C 
ATOM      4  C   UNL     1      44.149   6.301  12.152  0.00  0.00    +0.000 C 
ATOM      5  C   UNL     1      44.779   5.228  11.250  0.00  0.00    +0.000 C 
ATOM      6  C   UNL     1      45.857   5.847  10.343  0.00  0.00    +0.000 C 
ATOM      7  C   UNL     1      46.903   6.622  11.133  0.00  0.00    +0.000 C 
BRANCH   5   8
ATOM      8  C   UNL     1      43.697   4.508  10.416  0.00  0.00    +0.000 C 
BRANCH   8   9
ATOM      9  N   UNL     1      44.270   4.035   9.157  0.00  0.00    +0.000 NA
ATOM     10  H   UNL     1      45.136   4.533   8.958  0.00  0.00    +0.000 HD
BRANCH   9  11
ATOM     11  C   UNL     1      44.527   2.599   9.157  0.00  0.00    +0.000 C 
BRANCH  11  12
ATOM     12  C   UNL     1      45.719   2.275   8.288  0.00  0.00    +0.000 A 
ATOM     13  C   UNL     1      46.437   3.282   7.637  0.00  0.00    +0.000 A 
ATOM     14  C   UNL     1      47.531   2.926   6.861  0.00  0.00    +0.000 A 
ATOM     15  N   UNL     1      47.953   1.655   6.689  0.00  0.00    +0.000 NA
ATOM     16  C   UNL     1      47.245   0.696   7.321  0.00  0.00    +0.000 A 
ATOM     17  C   UNL     1      46.142   0.951   8.122  0.00  0.00    +0.000 A 
ENDBRANCH  11  12
ENDBRANCH   9  11
ENDBRANCH   8   9
ENDBRANCH   5   8
ENDBRANCH   1   2
BRANCH   1  20
ATOM     18  O   UNL     1      49.823   7.710  13.971  0.00  0.00    +0.000 OA
ATOM     19  C   UNL     1      48.778   7.452  14.552  0.00  0.00    +0.000 C 
ATOM     20  N   UNL     1      47.543   7.814  14.084  0.00  0.00    +0.000 N 
ATOM     21  H   UNL     1      46.715   7.586  14.611  0.00  0.00    +0.000 HD
BRANCH  19  22
ATOM     22  C   UNL     1      48.759   6.772  15.845  0.00  0.00    +0.000 A 
ATOM     23  C   UNL     1      49.337   7.342  16.966  0.00  0.00    +0.000 A 
ATOM     24  S   UNL     1      49.129   6.404  18.379  0.00  0.00    +0.000 S 
ATOM     25  C   UNL     1      48.296   5.190  17.522  0.00  0.00    +0.000 A 
ATOM     26  N   UNL     1      47.806   4.083  18.146  0.00  0.00    +0.000 NA
ATOM     27  C   UNL     1      47.202   3.252  17.367  0.00  0.00    +0.000 A 
ATOM     28  N   UNL     1      47.050   3.413  16.011  0.00  0.00    +0.000 N 
ATOM     29  C   UNL     1      47.554   4.493  15.335  0.00  0.00    +0.000 A 
ATOM     30  O   UNL     1      47.418   4.584  14.119  0.00  0.00    +0.000 OA
ATOM     31  C   UNL     1      48.199   5.486  16.175  0.00  0.00    +0.000 A 
ATOM     32  H   UNL     1      46.573   2.726  15.451  0.00  0.00    +0.000 HD
ENDBRANCH  19  22
ENDBRANCH   1  20
TORSDOF 7
ENDMDL
MODEL 2
REMARK VINA RESULT:    -7.787      2.689      3.107
REMARK INTER + INTRA:         -12.478
REMARK INTER:                 -11.611
REMARK INTRA:                  -0.868
REMARK UNBOUND:                -1.505
REMARK  Name = 
REMARK  7 active torsions:
REMARK  status: ('A' for Active; 'I' for Inactive)
REMARK    1  A    between atoms: C_2  and  C_20
REMARK    2  A    between atoms: N_3  and  C_4
REMARK    3  A    between atoms: C_4  and  C_5
REMARK    4  A    between atoms: C_8  and  C_9
REMARK    5  A    between atoms: C_9  and  N_10
REMARK    6  A    between atoms: N_10  and  C_11
REMARK    7  A    between atoms: C_11  and  C_12
REMARK                            x       y       z     vdW  Elec       q    Type
REMARK                         _______ _______ _______ _____ _____    ______ ____
ROOT
ATOM      1  C   UNL     1      47.956   6.488  15.132  0.00  0.00    +0.000 C 
ENDROOT
BRANCH   1   2
ATOM      2  C   UNL     1      47.501   5.703  13.903  0.00  0.00    +0.000 C 
ATOM      3  C   UNL     1      46.635   6.571  12.973  0.00  0.00    +0.000 C 
ATOM      4  C   UNL     1      46.151   5.782  11.759  0.00  0.00    +0.000 C 
ATOM      5  C   UNL     1      45.390   4.512  12.174  0.00  0.00    +0.000 C 
ATOM      6  C   UNL     1      46.240   3.660  13.133  0.00  0.00    +0.000 C 
ATOM      7  C   UNL     1      46.729   4.455  14.335  0.00  0.00    +0.000 C 
BRANCH   5   8
ATOM      8  C   UNL     1      44.965   3.698  10.933  0.00  0.00    +0.000 C 
BRANCH   8   9
ATOM      9  N   UNL     1      45.230   4.468   9.718  0.00  0.00    +0.000 NA
ATOM     10  H   UNL     1      46.226   4.663   9.637  0.00  0.00    +0.000 HD
BRANCH   9  11
ATOM     11  C   UNL     1      44.770   3.793   8.510  0.00  0.00    +0.000 C 
BRANCH  11  12
ATOM     12  C   UNL     1      45.871   2.937   7.930  0.00  0.00    +0.000 A 
ATOM     13  C   UNL     1      46.872   3.490   7.127  0.00  0.00    +0.000 A 
ATOM     14  C   UNL     1      47.866   2.657   6.632  0.00  0.00    +0.000 A 
ATOM     15  N   UNL     1      47.929   1.331   6.875  0.00  0.00    +0.000 NA
ATOM     16  C   UNL     1      46.952   0.813   7.649  0.00  0.00    +0.000 A 
ATOM     17  C   UNL     1      45.921   1.563   8.194  0.00  0.00    +0.000 A 
ENDBRANCH  11  12
ENDBRANCH   9  11
ENDBRANCH   8   9
ENDBRANCH   5   8
ENDBRANCH   1   2
BRANCH   1  20
ATOM     18  O   UNL     1      48.009   5.019  17.566  0.00  0.00    +0.000 OA
ATOM     19  C   UNL     1      49.047   5.213  16.948  0.00  0.00    +0.000 C 
ATOM     20  N   UNL     1      49.099   5.864  15.744  0.00  0.00    +0.000 N 
ATOM     21  H   UNL     1      49.982   5.985  15.272  0.00  0.00    +0.000 HD
BRANCH  19  22
ATOM     22  C   UNL     1      50.334   4.712  17.420  0.00  0.00    +0.000 A 
ATOM     23  C   UNL     1      51.272   5.558  17.988  0.00  0.00    +0.000 A 
ATOM     24  S   UNL     1      52.670   4.740  18.535  0.00  0.00    +0.000 S 
ATOM     25  C   UNL     1      52.077   3.239  17.990  0.00  0.00    +0.000 A 
ATOM     26  N   UNL     1      52.782   2.087  18.164  0.00  0.00    +0.000 NA
ATOM     27  C   UNL     1      52.208   1.032  17.697  0.00  0.00    +0.000 A 
ATOM     28  N   UNL     1      50.995   1.016  17.054  0.00  0.00    +0.000 N 
ATOM     29  C   UNL     1      50.265   2.152  16.826  0.00  0.00    +0.000 A 
ATOM     30  O   UNL     1      49.197   2.096  16.225  0.00  0.00    +0.000 OA
ATOM     31  C   UNL     1      50.843   3.364  17.380  0.00  0.00    +0.000 A 
ATOM     32  H   UNL     1      50.597   0.159  16.703  0.00  0.00    +0.000 HD
ENDBRANCH  19  22
ENDBRANCH   1  20
TORSDOF 7
ENDMDL
MODEL 3
REMARK VINA RESULT:    -7.772      1.646      2.186
REMARK INTER + INTRA:         -12.457
REMARK INTER:                 -11.437
REMARK INTRA:                  -1.020
REMARK UNBOUND:                -1.505
REMARK  Name = 
REMARK  7 active torsions:
REMARK  status: ('A' for Active; 'I' for Inactive)
REMARK    1  A    between atoms: C_2  and  C_20
REMARK    2  A    between atoms: N_3  and  C_4
REMARK    3  A    between atoms: C_4  and  C_5
REMARK    4  A    between atoms: C_8  and  C_9
REMARK    5  A    between atoms: C_9  and  N_10
REMARK    6  A    between atoms: N_10  and  C_11
REMARK    7  A    between atoms: C_11  and  C_12
REMARK                            x       y       z     vdW  Elec       q    Type
REMARK                         _______ _______ _______ _____ _____    ______ ____
ROOT
ATOM      1  C   UNL     1      48.091   6.823  13.634  0.00  0.00    +0.000 C 
ENDROOT
BRANCH   1   2
ATOM      2  C   UNL     1      46.726   6.367  13.119  0.00  0.00    +0.000 C 
ATOM      3  C   UNL     1      46.472   4.885  13.443  0.00  0.00    +0.000 C 
ATOM      4  C   UNL     1      45.123   4.416  12.903  0.00  0.00    +0.000 C 
ATOM      5  C   UNL     1      44.998   4.666  11.391  0.00  0.00    +0.000 C 
ATOM      6  C   UNL     1      45.287   6.141  11.061  0.00  0.00    +0.000 C 
ATOM      7  C   UNL     1      46.628   6.606  11.612  0.00  0.00    +0.000 C 
BRANCH   5   8
ATOM      8  C   UNL     1      43.605   4.244  10.879  0.00  0.00    +0.000 C 
BRANCH   8   9
ATOM      9  N   UNL     1      43.728   3.595   9.575  0.00  0.00    +0.000 NA
ATOM     10  H   UNL     1      44.114   4.248   8.895  0.00  0.00    +0.000 HD
BRANCH   9  11
ATOM     11  C   UNL     1      44.556   2.396   9.616  0.00  0.00    +0.000 C 
BRANCH  11  12
ATOM     12  C   UNL     1      45.554   2.402   8.482  0.00  0.00    +0.000 A 
ATOM     13  C   UNL     1      46.268   1.251   8.138  0.00  0.00    +0.000 A 
ATOM     14  C   UNL     1      47.163   1.313   7.079  0.00  0.00    +0.000 A 
ATOM     15  N   UNL     1      47.395   2.425   6.351  0.00  0.00    +0.000 NA
ATOM     16  C   UNL     1      46.700   3.528   6.700  0.00  0.00    +0.000 A 
ATOM     17  C   UNL     1      45.781   3.566   7.738  0.00  0.00    +0.000 A 
ENDBRANCH  11  12
ENDBRANCH   9  11
ENDBRANCH   8   9
ENDBRANCH   5   8
ENDBRANCH   1   2
BRANCH   1  20
ATOM     18  O   UNL     1      50.313   6.657  15.401  0.00  0.00    +0.000 OA
ATOM     19  C   UNL     1      49.188   6.830  15.849  0.00  0.00    +0.000 C 
ATOM     20  N   UNL     1      48.074   6.972  15.065  0.00  0.00    +0.000 N 
ATOM     21  H   UNL     1      47.173   7.124  15.489  0.00  0.00    +0.000 HD
BRANCH  19  22
ATOM     22  C   UNL     1      48.938   6.955  17.283  0.00  0.00    +0.000 A 
ATOM     23  C   UNL     1      48.622   8.175  17.854  0.00  0.00    +0.000 A 
ATOM     24  S   UNL     1      48.298   8.069  19.529  0.00  0.00    +0.000 S 
ATOM     25  C   UNL     1      48.612   6.394  19.543  0.00  0.00    +0.000 A 
ATOM     26  N   UNL     1      48.496   5.655  20.682  0.00  0.00    +0.000 NA
ATOM     27  C   UNL     1      48.769   4.404  20.538  0.00  0.00    +0.000 A 
ATOM     28  N   UNL     1      49.163   3.815  19.362  0.00  0.00    +0.000 N 
ATOM     29  C   UNL     1      49.326   4.522  18.200  0.00  0.00    +0.000 A 
ATOM     30  O   UNL     1      49.705   3.961  17.177  0.00  0.00    +0.000 OA
ATOM     31  C   UNL     1      48.981   5.930  18.295  0.00  0.00    +0.000 A 
ATOM     32  H   UNL     1      49.370   2.830  19.310  0.00  0.00    +0.000 HD
ENDBRANCH  19  22
ENDBRANCH   1  20
TORSDOF 7
ENDMDL
MODEL 4
REMARK VINA RESULT:    -7.579      2.145      2.876
REMARK INTER + INTRA:         -12.186
REMARK INTER:                 -10.956
REMARK INTRA:                  -1.230
REMARK UNBOUND:                -1.505
REMARK  Name = 
REMARK  7 active torsions:
REMARK  status: ('A' for Active; 'I' for Inactive)
REMARK    1  A    between atoms: C_2  and  C_20
REMARK    2  A    between atoms: N_3  and  C_4
REMARK    3  A    between atoms: C_4  and  C_5
REMARK    4  A    between atoms: C_8  and  C_9
REMARK    5  A    between atoms: C_9  and  N_10
REMARK    6  A    between atoms: N_10  and  C_11
REMARK    7  A    between atoms: C_11  and  C_12
REMARK                            x       y       z     vdW  Elec       q    Type
REMARK                         _______ _______ _______ _____ _____    ______ ____
ROOT
ATOM      1  C   UNL     1      48.009   6.647  13.834  0.00  0.00    +0.000 C 
ENDROOT
BRANCH   1   2
ATOM      2  C   UNL     1      46.660   6.297  13.207  0.00  0.00    +0.000 C 
ATOM      3  C   UNL     1      46.206   4.883  13.610  0.00  0.00    +0.000 C 
ATOM      4  C   UNL     1      44.875   4.515  12.961  0.00  0.00    +0.000 C 
ATOM      5  C   UNL     1      44.933   4.647  11.430  0.00  0.00    +0.000 C 
ATOM      6  C   UNL     1      45.422   6.049  11.025  0.00  0.00    +0.000 C 
ATOM      7  C   UNL     1      46.744   6.414  11.685  0.00  0.00    +0.000 C 
BRANCH   5   8
ATOM      8  C   UNL     1      43.559   4.332  10.800  0.00  0.00    +0.000 C 
BRANCH   8   9
ATOM      9  N   UNL     1      43.743   3.715   9.487  0.00  0.00    +0.000 NA
ATOM     10  H   UNL     1      44.201   4.369   8.855  0.00  0.00    +0.000 HD
BRANCH   9  11
ATOM     11  C   UNL     1      44.512   2.479   9.546  0.00  0.00    +0.000 C 
BRANCH  11  12
ATOM     12  C   UNL     1      45.587   2.473   8.484  0.00  0.00    +0.000 A 
ATOM     13  C   UNL     1      45.933   3.641   7.798  0.00  0.00    +0.000 A 
ATOM     14  C   UNL     1      46.937   3.578   6.841  0.00  0.00    +0.000 A 
ATOM     15  N   UNL     1      47.608   2.451   6.523  0.00  0.00    +0.000 NA
ATOM     16  C   UNL     1      47.258   1.333   7.193  0.00  0.00    +0.000 A 
ATOM     17  C   UNL     1      46.273   1.295   8.169  0.00  0.00    +0.000 A 
ENDBRANCH  11  12
ENDBRANCH   9  11
ENDBRANCH   8   9
ENDBRANCH   5   8
ENDBRANCH   1   2
BRANCH   1  20
ATOM     18  O   UNL     1      50.138   6.359  15.697  0.00  0.00    +0.000 OA
ATOM     19  C   UNL     1      48.988   6.477  16.098  0.00  0.00    +0.000 C 
ATOM     20  N   UNL     1      47.915   6.673  15.270  0.00  0.00    +0.000 N 
ATOM     21  H   UNL     1      46.990   6.776  15.657  0.00  0.00    +0.000 HD
BRANCH  19  22
ATOM     22  C   UNL     1      48.661   6.475  17.522  0.00  0.00    +0.000 A 
ATOM     23  C   UNL     1      48.765   5.323  18.282  0.00  0.00    +0.000 A 
ATOM     24  S   UNL     1      48.404   5.574  19.934  0.00  0.00    +0.000 S 
ATOM     25  C   UNL     1      48.059   7.221  19.669  0.00  0.00    +0.000 A 
ATOM     26  N   UNL     1      47.697   8.049  20.689  0.00  0.00    +0.000 NA
ATOM     27  C   UNL     1      47.465   9.266  20.334  0.00  0.00    +0.000 A 
ATOM     28  N   UNL     1      47.545   9.740  19.048  0.00  0.00    +0.000 N 
ATOM     29  C   UNL     1      47.872   8.939  17.985  0.00  0.00    +0.000 A 
ATOM     30  O   UNL     1      47.906   9.397  16.848  0.00  0.00    +0.000 OA
ATOM     31  C   UNL     1      48.194   7.567  18.338  0.00  0.00    +0.000 A 
ATOM     32  H   UNL     1      47.345  10.702  18.829  0.00  0.00    +0.000 HD
ENDBRANCH  19  22
ENDBRANCH   1  20
TORSDOF 7
ENDMDL
MODEL 5
REMARK VINA RESULT:    -7.176      1.877      3.511
REMARK INTER + INTRA:         -11.618
REMARK INTER:                 -10.461
REMARK INTRA:                  -1.157
REMARK UNBOUND:                -1.505
REMARK  Name = 
REMARK  7 active torsions:
REMARK  status: ('A' for Active; 'I' for Inactive)
REMARK    1  A    between atoms: C_2  and  C_20
REMARK    2  A    between atoms: N_3  and  C_4
REMARK    3  A    between atoms: C_4  and  C_5
REMARK    4  A    between atoms: C_8  and  C_9
REMARK    5  A    between atoms: C_9  and  N_10
REMARK    6  A    between atoms: N_10  and  C_11
REMARK    7  A    between atoms: C_11  and  C_12
REMARK                            x       y       z     vdW  Elec       q    Type
REMARK                         _______ _______ _______ _____ _____    ______ ____
ROOT
ATOM      1  C   UNL     1      47.247   4.276  14.790  0.00  0.00    +0.000 C 
ENDROOT
BRANCH   1   2
ATOM      2  C   UNL     1      46.611   4.421  13.408  0.00  0.00    +0.000 C 
ATOM      3  C   UNL     1      45.678   5.642  13.347  0.00  0.00    +0.000 C 
ATOM      4  C   UNL     1      45.015   5.774  11.979  0.00  0.00    +0.000 C 
ATOM      5  C   UNL     1      44.255   4.495  11.591  0.00  0.00    +0.000 C 
ATOM      6  C   UNL     1      45.177   3.266  11.686  0.00  0.00    +0.000 C 
ATOM      7  C   UNL     1      45.844   3.148  13.049  0.00  0.00    +0.000 C 
BRANCH   5   8
ATOM      8  C   UNL     1      43.647   4.626  10.178  0.00  0.00    +0.000 C 
BRANCH   8   9
ATOM      9  N   UNL     1      44.245   3.636   9.284  0.00  0.00    +0.000 NA
ATOM     10  H   UNL     1      43.517   3.155   8.758  0.00  0.00    +0.000 HD
BRANCH   9  11
ATOM     11  C   UNL     1      45.207   4.219   8.357  0.00  0.00    +0.000 C 
BRANCH  11  12
ATOM     12  C   UNL     1      46.052   3.140   7.722  0.00  0.00    +0.000 A 
ATOM     13  C   UNL     1      46.121   1.857   8.271  0.00  0.00    +0.000 A 
ATOM     14  C   UNL     1      46.904   0.902   7.638  0.00  0.00    +0.000 A 
ATOM     15  N   UNL     1      47.615   1.133   6.515  0.00  0.00    +0.000 NA
ATOM     16  C   UNL     1      47.540   2.378   6.001  0.00  0.00    +0.000 A 
ATOM     17  C   UNL     1      46.782   3.398   6.556  0.00  0.00    +0.000 A 
ENDBRANCH  11  12
ENDBRANCH   9  11
ENDBRANCH   8   9
ENDBRANCH   5   8
ENDBRANCH   1   2
BRANCH   1  20
ATOM     18  O   UNL     1      49.481   5.054  16.370  0.00  0.00    +0.000 OA
ATOM     19  C   UNL     1      48.568   5.844  16.173  0.00  0.00    +0.000 C 
ATOM     20  N   UNL     1      47.484   5.567  15.383  0.00  0.00    +0.000 N 
ATOM     21  H   UNL     1      46.766   6.260  15.246  0.00  0.00    +0.000 HD
BRANCH  19  22
ATOM     22  C   UNL     1      48.580   7.195  16.728  0.00  0.00    +0.000 A 
ATOM     23  C   UNL     1      48.419   7.416  18.086  0.00  0.00    +0.000 A 
ATOM     24  S   UNL     1      48.543   9.066  18.516  0.00  0.00    +0.000 S 
ATOM     25  C   UNL     1      48.774   9.533  16.894  0.00  0.00    +0.000 A 
ATOM     26  N   UNL     1      48.970  10.835  16.546  0.00  0.00    +0.000 NA
ATOM     27  C   UNL     1      49.126  11.034  15.282  0.00  0.00    +0.000 A 
ATOM     28  N   UNL     1      49.091  10.054  14.321  0.00  0.00    +0.000 N 
ATOM     29  C   UNL     1      48.864   8.736  14.619  0.00  0.00    +0.000 A 
ATOM     30  O   UNL     1      48.815   7.896  13.726  0.00  0.00    +0.000 OA
ATOM     31  C   UNL     1      48.733   8.450  16.036  0.00  0.00    +0.000 A 
ATOM     32  H   UNL     1      49.214  10.270  13.345  0.00  0.00    +0.000 HD
ENDBRANCH  19  22
ENDBRANCH   1  20
TORSDOF 7
ENDMDL
MODEL 6
REMARK VINA RESULT:    -7.064      2.363      3.356
REMARK INTER + INTRA:         -11.460
REMARK INTER:                 -10.636
REMARK INTRA:                  -0.824
REMARK UNBOUND:                -1.505
REMARK  Name = 
REMARK  7 active torsions:
REMARK  status: ('A' for Active; 'I' for Inactive)
REMARK    1  A    between atoms: C_2  and  C_20
REMARK    2  A    between atoms: N_3  and  C_4
REMARK    3  A    between atoms: C_4  and  C_5
REMARK    4  A    between atoms: C_8  and  C_9
REMARK    5  A    between atoms: C_9  and  N_10
REMARK    6  A    between atoms: N_10  and  C_11
REMARK    7  A    between atoms: C_11  and  C_12
REMARK                            x       y       z     vdW  Elec       q    Type
REMARK                         _______ _______ _______ _____ _____    ______ ____
ROOT
ATOM      1  C   UNL     1      47.139   4.371  14.703  0.00  0.00    +0.000 C 
ENDROOT
BRANCH   1   2
ATOM      2  C   UNL     1      46.529   4.493  13.307  0.00  0.00    +0.000 C 
ATOM      3  C   UNL     1      45.610   5.723  13.204  0.00  0.00    +0.000 C 
ATOM      4  C   UNL     1      44.973   5.832  11.821  0.00  0.00    +0.000 C 
ATOM      5  C   UNL     1      44.205   4.553  11.446  0.00  0.00    +0.000 C 
ATOM      6  C   UNL     1      45.112   3.318  11.584  0.00  0.00    +0.000 C 
ATOM      7  C   UNL     1      45.754   3.221  12.961  0.00  0.00    +0.000 C 
BRANCH   5   8
ATOM      8  C   UNL     1      43.623   4.661  10.021  0.00  0.00    +0.000 C 
BRANCH   8   9
ATOM      9  N   UNL     1      44.270   3.686   9.143  0.00  0.00    +0.000 NA
ATOM     10  H   UNL     1      43.585   3.276   8.511  0.00  0.00    +0.000 HD
BRANCH   9  11
ATOM     11  C   UNL     1      45.363   4.261   8.367  0.00  0.00    +0.000 C 
BRANCH  11  12
ATOM     12  C   UNL     1      46.173   3.171   7.707  0.00  0.00    +0.000 A 
ATOM     13  C   UNL     1      46.219   1.879   8.237  0.00  0.00    +0.000 A 
ATOM     14  C   UNL     1      46.971   0.915   7.580  0.00  0.00    +0.000 A 
ATOM     15  N   UNL     1      47.672   1.145   6.450  0.00  0.00    +0.000 NA
ATOM     16  C   UNL     1      47.619   2.399   5.955  0.00  0.00    +0.000 A 
ATOM     17  C   UNL     1      46.893   3.429   6.534  0.00  0.00    +0.000 A 
ENDBRANCH  11  12
ENDBRANCH   9  11
ENDBRANCH   8   9
ENDBRANCH   5   8
ENDBRANCH   1   2
BRANCH   1  20
ATOM     18  O   UNL     1      49.270   4.871  16.518  0.00  0.00    +0.000 OA
ATOM     19  C   UNL     1      48.599   5.802  16.093  0.00  0.00    +0.000 C 
ATOM     20  N   UNL     1      47.592   5.652  15.177  0.00  0.00    +0.000 N 
ATOM     21  H   UNL     1      47.079   6.456  14.852  0.00  0.00    +0.000 HD
BRANCH  19  22
ATOM     22  C   UNL     1      48.855   7.184  16.489  0.00  0.00    +0.000 A 
ATOM     23  C   UNL     1      49.545   8.054  15.662  0.00  0.00    +0.000 A 
ATOM     24  S   UNL     1      49.659   9.636  16.299  0.00  0.00    +0.000 S 
ATOM     25  C   UNL     1      48.825   9.190  17.715  0.00  0.00    +0.000 A 
ATOM     26  N   UNL     1      48.555  10.093  18.699  0.00  0.00    +0.000 NA
ATOM     27  C   UNL     1      47.920   9.608  19.711  0.00  0.00    +0.000 A 
ATOM     28  N   UNL     1      47.539   8.295  19.845  0.00  0.00    +0.000 N 
ATOM     29  C   UNL     1      47.818   7.345  18.899  0.00  0.00    +0.000 A 
ATOM     30  O   UNL     1      47.481   6.178  19.071  0.00  0.00    +0.000 OA
ATOM     31  C   UNL     1      48.486   7.850  17.712  0.00  0.00    +0.000 A 
ATOM     32  H   UNL     1      47.050   7.971  20.664  0.00  0.00    +0.000 HD
ENDBRANCH  19  22
ENDBRANCH   1  20
TORSDOF 7
ENDMDL
MODEL 7
REMARK VINA RESULT:    -6.914      2.874      7.879
REMARK INTER + INTRA:         -11.248
REMARK INTER:                  -9.996
REMARK INTRA:                  -1.253
REMARK UNBOUND:                -1.505
REMARK  Name = 
REMARK  7 active torsions:
REMARK  status: ('A' for Active; 'I' for Inactive)
REMARK    1  A    between atoms: C_2  and  C_20
REMARK    2  A    between atoms: N_3  and  C_4
REMARK    3  A    between atoms: C_4  and  C_5
REMARK    4  A    between atoms: C_8  and  C_9
REMARK    5  A    between atoms: C_9  and  N_10
REMARK    6  A    between atoms: N_10  and  C_11
REMARK    7  A    between atoms: C_11  and  C_12
REMARK                            x       y       z     vdW  Elec       q    Type
REMARK                         _______ _______ _______ _____ _____    ______ ____
ROOT
ATOM      1  C   UNL     1      47.405   7.889  12.067  0.00  0.00    +0.000 C 
ENDROOT
BRANCH   1   2
ATOM      2  C   UNL     1      48.007   7.884  13.471  0.00  0.00    +0.000 C 
ATOM      3  C   UNL     1      49.481   8.326  13.448  0.00  0.00    +0.000 C 
ATOM      4  C   UNL     1      50.098   8.293  14.844  0.00  0.00    +0.000 C 
ATOM      5  C   UNL     1      49.961   6.905  15.493  0.00  0.00    +0.000 C 
ATOM      6  C   UNL     1      48.493   6.445  15.483  0.00  0.00    +0.000 C 
ATOM      7  C   UNL     1      47.880   6.492  14.091  0.00  0.00    +0.000 C 
BRANCH   5   8
ATOM      8  C   UNL     1      50.534   6.912  16.926  0.00  0.00    +0.000 C 
BRANCH   8   9
ATOM      9  N   UNL     1      49.514   6.463  17.873  0.00  0.00    +0.000 NA
ATOM     10  H   UNL     1      48.658   6.220  17.376  0.00  0.00    +0.000 HD
BRANCH   9  11
ATOM     11  C   UNL     1      49.947   5.325  18.674  0.00  0.00    +0.000 C 
BRANCH  11  12
ATOM     12  C   UNL     1      49.807   4.041  17.889  0.00  0.00    +0.000 A 
ATOM     13  C   UNL     1      48.583   3.662  17.334  0.00  0.00    +0.000 A 
ATOM     14  C   UNL     1      48.517   2.478  16.612  0.00  0.00    +0.000 A 
ATOM     15  N   UNL     1      49.569   1.657  16.411  0.00  0.00    +0.000 NA
ATOM     16  C   UNL     1      50.742   2.037  16.958  0.00  0.00    +0.000 A 
ATOM     17  C   UNL     1      50.910   3.203  17.690  0.00  0.00    +0.000 A 
ENDBRANCH  11  12
ENDBRANCH   9  11
ENDBRANCH   8   9
ENDBRANCH   5   8
ENDBRANCH   1   2
BRANCH   1  20
ATOM     18  O   UNL     1      44.630   7.603  11.512  0.00  0.00    +0.000 OA
ATOM     19  C   UNL     1      45.340   6.611  11.599  0.00  0.00    +0.000 C 
ATOM     20  N   UNL     1      46.692   6.664  11.812  0.00  0.00    +0.000 N 
ATOM     21  H   UNL     1      47.231   5.814  11.863  0.00  0.00    +0.000 HD
BRANCH  19  22
ATOM     22  C   UNL     1      44.809   5.261  11.428  0.00  0.00    +0.000 A 
ATOM     23  C   UNL     1      44.104   4.631  12.440  0.00  0.00    +0.000 A 
ATOM     24  S   UNL     1      43.515   3.092  11.990  0.00  0.00    +0.000 S 
ATOM     25  C   UNL     1      44.221   3.208  10.443  0.00  0.00    +0.000 A 
ATOM     26  N   UNL     1      44.083   2.218   9.518  0.00  0.00    +0.000 NA
ATOM     27  C   UNL     1      44.675   2.447   8.397  0.00  0.00    +0.000 A 
ATOM     28  N   UNL     1      45.410   3.571   8.110  0.00  0.00    +0.000 N 
ATOM     29  C   UNL     1      45.605   4.577   9.019  0.00  0.00    +0.000 A 
ATOM     30  O   UNL     1      46.291   5.552   8.730  0.00  0.00    +0.000 OA
ATOM     31  C   UNL     1      44.915   4.393  10.283  0.00  0.00    +0.000 A 
ATOM     32  H   UNL     1      45.857   3.692   7.215  0.00  0.00    +0.000 HD
ENDBRANCH  19  22
ENDBRANCH   1  20
TORSDOF 7
ENDMDL
MODEL 8
REMARK VINA RESULT:    -6.544      3.207      7.656
REMARK INTER + INTRA:         -10.727
REMARK INTER:                  -9.107
REMARK INTRA:                  -1.620
REMARK UNBOUND:                -1.505
REMARK  Name = 
REMARK  7 active torsions:
REMARK  status: ('A' for Active; 'I' for Inactive)
REMARK    1  A    between atoms: C_2  and  C_20
REMARK    2  A    between atoms: N_3  and  C_4
REMARK    3  A    between atoms: C_4  and  C_5
REMARK    4  A    between atoms: C_8  and  C_9
REMARK    5  A    between atoms: C_9  and  N_10
REMARK    6  A    between atoms: N_10  and  C_11
REMARK    7  A    between atoms: C_11  and  C_12
REMARK                            x       y       z     vdW  Elec       q    Type
REMARK                         _______ _______ _______ _____ _____    ______ ____
ROOT
ATOM      1  C   UNL     1      48.330   7.871  12.163  0.00  0.00    +0.000 C 
ENDROOT
BRANCH   1   2
ATOM      2  C   UNL     1      48.352   7.620  13.670  0.00  0.00    +0.000 C 
ATOM      3  C   UNL     1      47.843   8.846  14.448  0.00  0.00    +0.000 C 
ATOM      4  C   UNL     1      47.893   8.613  15.956  0.00  0.00    +0.000 C 
ATOM      5  C   UNL     1      49.306   8.226  16.425  0.00  0.00    +0.000 C 
ATOM      6  C   UNL     1      49.831   7.023  15.622  0.00  0.00    +0.000 C 
ATOM      7  C   UNL     1      49.767   7.256  14.119  0.00  0.00    +0.000 C 
BRANCH   5   8
ATOM      8  C   UNL     1      49.319   7.933  17.940  0.00  0.00    +0.000 C 
BRANCH   8   9
ATOM      9  N   UNL     1      48.011   7.437  18.364  0.00  0.00    +0.000 NA
ATOM     10  H   UNL     1      47.412   7.292  17.552  0.00  0.00    +0.000 HD
BRANCH   9  11
ATOM     11  C   UNL     1      48.097   6.198  19.128  0.00  0.00    +0.000 C 
BRANCH  11  12
ATOM     12  C   UNL     1      48.360   5.027  18.211  0.00  0.00    +0.000 A 
ATOM     13  C   UNL     1      49.521   4.259  18.332  0.00  0.00    +0.000 A 
ATOM     14  C   UNL     1      49.704   3.187  17.469  0.00  0.00    +0.000 A 
ATOM     15  N   UNL     1      48.826   2.834  16.507  0.00  0.00    +0.000 NA
ATOM     16  C   UNL     1      47.713   3.590  16.402  0.00  0.00    +0.000 A 
ATOM     17  C   UNL     1      47.437   4.676  17.219  0.00  0.00    +0.000 A 
ENDBRANCH  11  12
ENDBRANCH   9  11
ENDBRANCH   8   9
ENDBRANCH   5   8
ENDBRANCH   1   2
BRANCH   1  20
ATOM     18  O   UNL     1      45.507   7.784  11.825  0.00  0.00    +0.000 OA
ATOM     19  C   UNL     1      46.200   6.865  11.410  0.00  0.00    +0.000 C 
ATOM     20  N   UNL     1      47.568   6.854  11.486  0.00  0.00    +0.000 N 
ATOM     21  H   UNL     1      48.089   6.075  11.117  0.00  0.00    +0.000 HD
BRANCH  19  22
ATOM     22  C   UNL     1      45.623   5.704  10.738  0.00  0.00    +0.000 A 
ATOM     23  C   UNL     1      45.836   5.475   9.389  0.00  0.00    +0.000 A 
ATOM     24  S   UNL     1      45.129   4.020   8.836  0.00  0.00    +0.000 S 
ATOM     25  C   UNL     1      44.485   3.678  10.376  0.00  0.00    +0.000 A 
ATOM     26  N   UNL     1      43.767   2.545  10.615  0.00  0.00    +0.000 NA
ATOM     27  C   UNL     1      43.342   2.426  11.825  0.00  0.00    +0.000 A 
ATOM     28  N   UNL     1      43.553   3.342  12.827  0.00  0.00    +0.000 N 
ATOM     29  C   UNL     1      44.239   4.510  12.626  0.00  0.00    +0.000 A 
ATOM     30  O   UNL     1      44.382   5.314  13.543  0.00  0.00    +0.000 OA
ATOM     31  C   UNL     1      44.785   4.670  11.290  0.00  0.00    +0.000 A 
ATOM     32  H   UNL     1      43.190   3.198  13.756  0.00  0.00    +0.000 HD
ENDBRANCH  19  22
ENDBRANCH   1  20
TORSDOF 7
ENDMDL
MODEL 9
REMARK VINA RESULT:    -6.517      3.426      7.755
REMARK INTER + INTRA:         -10.690
REMARK INTER:                  -8.846
REMARK INTRA:                  -1.843
REMARK UNBOUND:                -1.505
REMARK  Name = 
REMARK  7 active torsions:
REMARK  status: ('A' for Active; 'I' for Inactive)
REMARK    1  A    between atoms: C_2  and  C_20
REMARK    2  A    between atoms: N_3  and  C_4
REMARK    3  A    between atoms: C_4  and  C_5
REMARK    4  A    between atoms: C_8  and  C_9
REMARK    5  A    between atoms: C_9  and  N_10
REMARK    6  A    between atoms: N_10  and  C_11
REMARK    7  A    between atoms: C_11  and  C_12
REMARK                            x       y       z     vdW  Elec       q    Type
REMARK                         _______ _______ _______ _____ _____    ______ ____
ROOT
ATOM      1  C   UNL     1      48.036   8.699  14.343  0.00  0.00    +0.000 C 
ENDROOT
BRANCH   1   2
ATOM      2  C   UNL     1      48.666   7.934  15.507  0.00  0.00    +0.000 C 
ATOM      3  C   UNL     1      48.799   8.825  16.754  0.00  0.00    +0.000 C 
ATOM      4  C   UNL     1      49.458   8.076  17.910  0.00  0.00    +0.000 C 
ATOM      5  C   UNL     1      50.827   7.503  17.509  0.00  0.00    +0.000 C 
ATOM      6  C   UNL     1      50.703   6.642  16.240  0.00  0.00    +0.000 C 
ATOM      7  C   UNL     1      50.034   7.390  15.095  0.00  0.00    +0.000 C 
BRANCH   5   8
ATOM      8  C   UNL     1      51.446   6.697  18.671  0.00  0.00    +0.000 C 
BRANCH   8   9
ATOM      9  N   UNL     1      50.387   6.070  19.461  0.00  0.00    +0.000 NA
ATOM     10  H   UNL     1      49.477   6.419  19.165  0.00  0.00    +0.000 HD
BRANCH   9  11
ATOM     11  C   UNL     1      50.400   4.615  19.369  0.00  0.00    +0.000 C 
BRANCH  11  12
ATOM     12  C   UNL     1      49.308   4.133  18.444  0.00  0.00    +0.000 A 
ATOM     13  C   UNL     1      49.491   3.013  17.628  0.00  0.00    +0.000 A 
ATOM     14  C   UNL     1      48.447   2.608  16.807  0.00  0.00    +0.000 A 
ATOM     15  N   UNL     1      47.253   3.234  16.741  0.00  0.00    +0.000 NA
ATOM     16  C   UNL     1      47.096   4.316  17.532  0.00  0.00    +0.000 A 
ATOM     17  C   UNL     1      48.075   4.794  18.390  0.00  0.00    +0.000 A 
ENDBRANCH  11  12
ENDBRANCH   9  11
ENDBRANCH   8   9
ENDBRANCH   5   8
ENDBRANCH   1   2
BRANCH   1  20
ATOM     18  O   UNL     1      48.016   6.894  12.146  0.00  0.00    +0.000 OA
ATOM     19  C   UNL     1      46.971   7.168  12.720  0.00  0.00    +0.000 C 
ATOM     20  N   UNL     1      46.902   7.985  13.817  0.00  0.00    +0.000 N 
ATOM     21  H   UNL     1      46.014   8.167  14.257  0.00  0.00    +0.000 HD
BRANCH  19  22
ATOM     22  C   UNL     1      45.691   6.595  12.312  0.00  0.00    +0.000 A 
ATOM     23  C   UNL     1      44.690   7.383  11.769  0.00  0.00    +0.000 A 
ATOM     24  S   UNL     1      43.313   6.488  11.298  0.00  0.00    +0.000 S 
ATOM     25  C   UNL     1      44.001   5.028  11.844  0.00  0.00    +0.000 A 
ATOM     26  N   UNL     1      43.346   3.840  11.722  0.00  0.00    +0.000 NA
ATOM     27  C   UNL     1      43.991   2.824  12.184  0.00  0.00    +0.000 A 
ATOM     28  N   UNL     1      45.230   2.880  12.774  0.00  0.00    +0.000 N 
ATOM     29  C   UNL     1      45.911   4.055  12.950  0.00  0.00    +0.000 A 
ATOM     30  O   UNL     1      47.005   4.063  13.506  0.00  0.00    +0.000 OA
ATOM     31  C   UNL     1      45.251   5.226  12.399  0.00  0.00    +0.000 A 
ATOM     32  H   UNL     1      45.683   2.051  13.124  0.00  0.00    +0.000 HD
ENDBRANCH  19  22
ENDBRANCH   1  20
TORSDOF 7
ENDMDL
