MODEL 1
REMARK VINA RESULT:    -7.393      0.000      0.000
REMARK INTER + INTRA:         -12.805
REMARK INTER:                 -11.932
REMARK INTRA:                  -0.874
REMARK UNBOUND:                -0.874
REMARK  Name = 
REMARK  11 active torsions:
REMARK  status: ('A' for Active; 'I' for Inactive)
REMARK    1  A    between atoms: N_1  and  C_2
REMARK    2  A    between atoms: C_2  and  C_3
REMARK    3  A    between atoms: C_3  and  C_4
REMARK    4  A    between atoms: C_4  and  C_5
REMARK    5  A    between atoms: C_5  and  C_6
REMARK    6  A    between atoms: C_6  and  C_7
REMARK    7  A    between atoms: C_7  and  C_8
REMARK    8  A    between atoms: C_8  and  N_9
REMARK    9  A    between atoms: C_12  and  C_13
REMARK   10  A    between atoms: C_13  and  N_14
REMARK   11  A    between atoms: N_14  and  C_15
REMARK                            x       y       z     vdW  Elec       q    Type
REMARK                         _______ _______ _______ _____ _____    ______ ____
ROOT
ATOM      1  N   UNL     1      47.160   3.260  14.523  0.00  0.00    +0.000 N 
ATOM      2  C   UNL     1      46.647   4.025  13.454  0.00  0.00    +0.000 A 
ATOM      3  C   UNL     1      45.772   3.398  12.561  0.00  0.00    +0.000 A 
ATOM      4  C   UNL     1      45.199   4.128  11.505  0.00  0.00    +0.000 A 
ATOM      5  C   UNL     1      45.576   5.458  11.372  0.00  0.00    +0.000 A 
ATOM      6  C   UNL     1      46.484   5.996  12.274  0.00  0.00    +0.000 A 
ATOM      7  N   UNL     1      47.022   5.296  13.302  0.00  0.00    +0.000 NA
ATOM      8  H   UNL     1      46.487   2.536  14.740  0.00  0.00    +0.000 HD
ENDROOT
BRANCH   1   9
ATOM      9  C   UNL     1      47.505   4.076  15.695  0.00  0.00    +0.000 C 
BRANCH   9  10
ATOM     10  C   UNL     1      47.070   3.339  16.960  0.00  0.00    +0.000 C 
BRANCH  10  11
ATOM     11  C   UNL     1      48.251   3.108  17.905  0.00  0.00    +0.000 C 
BRANCH  11  12
ATOM     12  C   UNL     1      49.348   4.144  17.661  0.00  0.00    +0.000 C 
BRANCH  12  13
ATOM     13  C   UNL     1      50.729   3.494  17.655  0.00  0.00    +0.000 C 
BRANCH  13  14
ATOM     14  C   UNL     1      50.661   2.085  17.073  0.00  0.00    +0.000 C 
BRANCH  14  15
ATOM     15  C   UNL     1      51.934   1.304  17.383  0.00  0.00    +0.000 C 
BRANCH  15  16
ATOM     16  N   UNL     1      51.620   0.162  18.231  0.00  0.00    +0.000 NA
ATOM     17  H   UNL     1      51.013  -0.479  17.723  0.00  0.00    +0.000 HD
ATOM     18  H   UNL     1      51.089   0.474  19.043  0.00  0.00    +0.000 HD
ENDBRANCH  15  16
ENDBRANCH  14  15
ENDBRANCH  13  14
ENDBRANCH  12  13
ENDBRANCH  11  12
ENDBRANCH  10  11
ENDBRANCH   9  10
ENDBRANCH   1   9
BRANCH   4  19
ATOM     19  C   UNL     1      44.181   3.512  10.571  0.00  0.00    +0.000 C 
BRANCH  19  20
ATOM     20  N   UNL     1      44.708   2.332   9.896  0.00  0.00    +0.000 N 
ATOM     21  H   UNL     1      45.170   1.669  10.516  0.00  0.00    +0.000 HD
BRANCH  20  22
ATOM     22  C   UNL     1      45.492   2.465   8.745  0.00  0.00    +0.000 A 
ATOM     23  C   UNL     1      45.591   3.630   7.978  0.00  0.00    +0.000 A 
ATOM     24  C   UNL     1      46.383   3.667   6.830  0.00  0.00    +0.000 A 
ATOM     25  C   UNL     1      47.078   2.530   6.423  0.00  0.00    +0.000 A 
ATOM     26  C   UNL     1      46.991   1.361   7.171  0.00  0.00    +0.000 A 
ATOM     27  C   UNL     1      46.197   1.328   8.313  0.00  0.00    +0.000 A 
ENDBRANCH  20  22
ENDBRANCH  19  20
ENDBRANCH   4  19
TORSDOF 11
ENDMDL
MODEL 2
REMARK VINA RESULT:    -7.091      1.849      2.604
REMARK INTER + INTRA:         -12.317
REMARK INTER:                 -11.434
REMARK INTRA:                  -0.883
REMARK UNBOUND:                -0.874
REMARK  Name = 
REMARK  11 active torsions:
REMARK  status: ('A' for Active; 'I' for Inactive)
REMARK    1  A    between atoms: N_1  and  C_2
REMARK    2  A    between atoms: C_2  and  C_3
REMARK    3  A    between atoms: C_3  and  C_4
REMARK    4  A    between atoms: C_4  and  C_5
REMARK    5  A    between atoms: C_5  and  C_6
REMARK    6  A    between atoms: C_6  and  C_7
REMARK    7  A    between atoms: C_7  and  C_8
REMARK    8  A    between atoms: C_8  and  N_9
REMARK    9  A    between atoms: C_12  and  C_13
REMARK   10  A    between atoms: C_13  and  N_14
REMARK   11  A    between atoms: N_14  and  C_15
REMARK                            x       y       z     vdW  Elec       q    Type
REMARK                         _______ _______ _______ _____ _____    ______ ____
ROOT
ATOM      1  N   UNL     1      46.845   3.504  14.356  0.00  0.00    +0.000 N 
ATOM      2  C   UNL     1      46.445   4.366  13.313  0.00  0.00    +0.000 A 
ATOM      3  C   UNL     1      45.415   3.937  12.468  0.00  0.00    +0.000 A 
ATOM      4  C   UNL     1      44.949   4.776  11.441  0.00  0.00    +0.000 A 
ATOM      5  C   UNL     1      45.583   6.002  11.285  0.00  0.00    +0.000 A 
ATOM      6  C   UNL     1      46.626   6.337  12.137  0.00  0.00    +0.000 A 
ATOM      7  N   UNL     1      47.062   5.535  13.138  0.00  0.00    +0.000 NA
ATOM      8  H   UNL     1      46.051   2.931  14.610  0.00  0.00    +0.000 HD
ENDROOT
BRANCH   1   9
ATOM      9  C   UNL     1      47.409   4.224  15.506  0.00  0.00    +0.000 C 
BRANCH   9  10
ATOM     10  C   UNL     1      47.485   3.274  16.700  0.00  0.00    +0.000 C 
BRANCH  10  11
ATOM     11  C   UNL     1      48.922   2.819  16.961  0.00  0.00    +0.000 C 
BRANCH  11  12
ATOM     12  C   UNL     1      49.623   3.772  17.928  0.00  0.00    +0.000 C 
BRANCH  12  13
ATOM     13  C   UNL     1      48.648   4.314  18.971  0.00  0.00    +0.000 C 
BRANCH  13  14
ATOM     14  C   UNL     1      48.777   5.830  19.095  0.00  0.00    +0.000 C 
BRANCH  14  15
ATOM     15  C   UNL     1      47.405   6.487  19.192  0.00  0.00    +0.000 C 
BRANCH  15  16
ATOM     16  N   UNL     1      46.367   5.515  18.872  0.00  0.00    +0.000 NA
ATOM     17  H   UNL     1      45.452   5.936  19.022  0.00  0.00    +0.000 HD
ATOM     18  H   UNL     1      46.427   4.725  19.514  0.00  0.00    +0.000 HD
ENDBRANCH  15  16
ENDBRANCH  14  15
ENDBRANCH  13  14
ENDBRANCH  12  13
ENDBRANCH  11  12
ENDBRANCH  10  11
ENDBRANCH   9  10
ENDBRANCH   1   9
BRANCH   4  19
ATOM     19  C   UNL     1      43.781   4.388  10.563  0.00  0.00    +0.000 C 
BRANCH  19  20
ATOM     20  N   UNL     1      44.109   4.487   9.146  0.00  0.00    +0.000 N 
ATOM     21  H   UNL     1      43.298   4.505   8.532  0.00  0.00    +0.000 HD
BRANCH  20  22
ATOM     22  C   UNL     1      45.064   3.637   8.579  0.00  0.00    +0.000 A 
ATOM     23  C   UNL     1      46.063   4.041   7.688  0.00  0.00    +0.000 A 
ATOM     24  C   UNL     1      46.963   3.118   7.154  0.00  0.00    +0.000 A 
ATOM     25  C   UNL     1      46.865   1.771   7.492  0.00  0.00    +0.000 A 
ATOM     26  C   UNL     1      45.877   1.348   8.374  0.00  0.00    +0.000 A 
ATOM     27  C   UNL     1      44.980   2.272   8.902  0.00  0.00    +0.000 A 
ENDBRANCH  20  22
ENDBRANCH  19  20
ENDBRANCH   4  19
TORSDOF 11
ENDMDL
MODEL 3
REMARK VINA RESULT:    -6.947      1.625      2.961
REMARK INTER + INTRA:         -12.085
REMARK INTER:                 -10.980
REMARK INTRA:                  -1.105
REMARK UNBOUND:                -0.874
REMARK  Name = 
REMARK  11 active torsions:
REMARK  status: ('A' for Active; 'I' for Inactive)
REMARK    1  A    between atoms: N_1  and  C_2
REMARK    2  A    between atoms: C_2  and  C_3
REMARK    3  A    between atoms: C_3  and  C_4
REMARK    4  A    between atoms: C_4  and  C_5
REMARK    5  A    between atoms: C_5  and  C_6
REMARK    6  A    between atoms: C_6  and  C_7
REMARK    7  A    between atoms: C_7  and  C_8
REMARK    8  A    between atoms: C_8  and  N_9
REMARK    9  A    between atoms: C_12  and  C_13
REMARK   10  A    between atoms: C_13  and  N_14
REMARK   11  A    between atoms: N_14  and  C_15
REMARK                            x       y       z     vdW  Elec       q    Type
REMARK                         _______ _______ _______ _____ _____    ______ ____
ROOT
ATOM      1  N   UNL     1      46.491   6.876  11.816  0.00  0.00    +0.000 N 
ATOM      2  C   UNL     1      45.406   5.983  11.934  0.00  0.00    +0.000 A 
ATOM      3  C   UNL     1      45.241   5.017  10.934  0.00  0.00    +0.000 A 
ATOM      4  C   UNL     1      44.201   4.076  11.027  0.00  0.00    +0.000 A 
ATOM      5  C   UNL     1      43.340   4.183  12.111  0.00  0.00    +0.000 A 
ATOM      6  C   UNL     1      43.544   5.196  13.038  0.00  0.00    +0.000 A 
ATOM      7  N   UNL     1      44.558   6.092  12.957  0.00  0.00    +0.000 NA
ATOM      8  H   UNL     1      47.223   6.410  11.295  0.00  0.00    +0.000 HD
ENDROOT
BRANCH   1   9
ATOM      9  C   UNL     1      46.958   7.379  13.115  0.00  0.00    +0.000 C 
BRANCH   9  10
ATOM     10  C   UNL     1      48.123   6.515  13.595  0.00  0.00    +0.000 C 
BRANCH  10  11
ATOM     11  C   UNL     1      47.840   5.913  14.973  0.00  0.00    +0.000 C 
BRANCH  11  12
ATOM     12  C   UNL     1      47.137   4.563  14.838  0.00  0.00    +0.000 C 
BRANCH  12  13
ATOM     13  C   UNL     1      47.320   3.718  16.097  0.00  0.00    +0.000 C 
BRANCH  13  14
ATOM     14  C   UNL     1      48.572   4.145  16.857  0.00  0.00    +0.000 C 
BRANCH  14  15
ATOM     15  C   UNL     1      49.405   2.933  17.260  0.00  0.00    +0.000 C 
BRANCH  15  16
ATOM     16  N   UNL     1      49.384   1.942  16.192  0.00  0.00    +0.000 NA
ATOM     17  H   UNL     1      48.760   1.180  16.451  0.00  0.00    +0.000 HD
ATOM     18  H   UNL     1      50.310   1.530  16.088  0.00  0.00    +0.000 HD
ENDBRANCH  15  16
ENDBRANCH  14  15
ENDBRANCH  13  14
ENDBRANCH  12  13
ENDBRANCH  11  12
ENDBRANCH  10  11
ENDBRANCH   9  10
ENDBRANCH   1   9
BRANCH   4  19
ATOM     19  C   UNL     1      44.042   2.963  10.015  0.00  0.00    +0.000 C 
BRANCH  19  20
ATOM     20  N   UNL     1      44.442   3.383   8.678  0.00  0.00    +0.000 N 
ATOM     21  H   UNL     1      43.669   3.475   8.022  0.00  0.00    +0.000 HD
BRANCH  20  22
ATOM     22  C   UNL     1      45.495   2.740   8.019  0.00  0.00    +0.000 A 
ATOM     23  C   UNL     1      45.946   1.448   8.307  0.00  0.00    +0.000 A 
ATOM     24  C   UNL     1      47.020   0.892   7.610  0.00  0.00    +0.000 A 
ATOM     25  C   UNL     1      47.669   1.629   6.623  0.00  0.00    +0.000 A 
ATOM     26  C   UNL     1      47.238   2.917   6.324  0.00  0.00    +0.000 A 
ATOM     27  C   UNL     1      46.169   3.468   7.023  0.00  0.00    +0.000 A 
ENDBRANCH  20  22
ENDBRANCH  19  20
ENDBRANCH   4  19
TORSDOF 11
ENDMDL
MODEL 4
REMARK VINA RESULT:    -6.783      4.102      7.702
REMARK INTER + INTRA:         -11.820
REMARK INTER:                 -10.931
REMARK INTRA:                  -0.889
REMARK UNBOUND:                -0.874
REMARK  Name = 
REMARK  11 active torsions:
REMARK  status: ('A' for Active; 'I' for Inactive)
REMARK    1  A    between atoms: N_1  and  C_2
REMARK    2  A    between atoms: C_2  and  C_3
REMARK    3  A    between atoms: C_3  and  C_4
REMARK    4  A    between atoms: C_4  and  C_5
REMARK    5  A    between atoms: C_5  and  C_6
REMARK    6  A    between atoms: C_6  and  C_7
REMARK    7  A    between atoms: C_7  and  C_8
REMARK    8  A    between atoms: C_8  and  N_9
REMARK    9  A    between atoms: C_12  and  C_13
REMARK   10  A    between atoms: C_13  and  N_14
REMARK   11  A    between atoms: N_14  and  C_15
REMARK                            x       y       z     vdW  Elec       q    Type
REMARK                         _______ _______ _______ _____ _____    ______ ____
ROOT
ATOM      1  N   UNL     1      44.352   7.700  11.637  0.00  0.00    +0.000 N 
ATOM      2  C   UNL     1      44.638   6.356  11.952  0.00  0.00    +0.000 A 
ATOM      3  C   UNL     1      44.207   5.367  11.060  0.00  0.00    +0.000 A 
ATOM      4  C   UNL     1      44.504   4.016  11.307  0.00  0.00    +0.000 A 
ATOM      5  C   UNL     1      45.190   3.718  12.477  0.00  0.00    +0.000 A 
ATOM      6  C   UNL     1      45.546   4.751  13.332  0.00  0.00    +0.000 A 
ATOM      7  N   UNL     1      45.275   6.056  13.086  0.00  0.00    +0.000 NA
ATOM      8  H   UNL     1      44.288   7.778  10.630  0.00  0.00    +0.000 HD
ENDROOT
BRANCH   1   9
ATOM      9  C   UNL     1      45.324   8.640  12.212  0.00  0.00    +0.000 C 
BRANCH   9  10
ATOM     10  C   UNL     1      45.287   9.944  11.416  0.00  0.00    +0.000 C 
BRANCH  10  11
ATOM     11  C   UNL     1      44.034  10.760  11.742  0.00  0.00    +0.000 C 
BRANCH  11  12
ATOM     12  C   UNL     1      43.436  11.361  10.471  0.00  0.00    +0.000 C 
BRANCH  12  13
ATOM     13  C   UNL     1      42.358  10.452   9.886  0.00  0.00    +0.000 C 
BRANCH  13  14
ATOM     14  C   UNL     1      40.991  11.129   9.942  0.00  0.00    +0.000 C 
BRANCH  14  15
ATOM     15  C   UNL     1      40.194  10.648  11.150  0.00  0.00    +0.000 C 
BRANCH  15  16
ATOM     16  N   UNL     1      40.521   9.257  11.436  0.00  0.00    +0.000 NA
ATOM     17  H   UNL     1      39.668   8.700  11.421  0.00  0.00    +0.000 HD
ATOM     18  H   UNL     1      40.895   9.180  12.381  0.00  0.00    +0.000 HD
ENDBRANCH  15  16
ENDBRANCH  14  15
ENDBRANCH  13  14
ENDBRANCH  12  13
ENDBRANCH  11  12
ENDBRANCH  10  11
ENDBRANCH   9  10
ENDBRANCH   1   9
BRANCH   4  19
ATOM     19  C   UNL     1      44.134   2.927  10.325  0.00  0.00    +0.000 C 
BRANCH  19  20
ATOM     20  N   UNL     1      44.342   3.347   8.944  0.00  0.00    +0.000 N 
ATOM     21  H   UNL     1      43.514   3.270   8.357  0.00  0.00    +0.000 HD
BRANCH  20  22
ATOM     22  C   UNL     1      45.435   2.869   8.216  0.00  0.00    +0.000 A 
ATOM     23  C   UNL     1      46.168   3.620   7.291  0.00  0.00    +0.000 A 
ATOM     24  C   UNL     1      47.235   3.054   6.592  0.00  0.00    +0.000 A 
ATOM     25  C   UNL     1      47.575   1.719   6.798  0.00  0.00    +0.000 A 
ATOM     26  C   UNL     1      46.858   0.955   7.712  0.00  0.00    +0.000 A 
ATOM     27  C   UNL     1      45.793   1.523   8.404  0.00  0.00    +0.000 A 
ENDBRANCH  20  22
ENDBRANCH  19  20
ENDBRANCH   4  19
TORSDOF 11
ENDMDL
MODEL 5
REMARK VINA RESULT:    -6.683      2.272      8.395
REMARK INTER + INTRA:         -11.658
REMARK INTER:                 -11.013
REMARK INTRA:                  -0.645
REMARK UNBOUND:                -0.874
REMARK  Name = 
REMARK  11 active torsions:
REMARK  status: ('A' for Active; 'I' for Inactive)
REMARK    1  A    between atoms: N_1  and  C_2
REMARK    2  A    between atoms: C_2  and  C_3
REMARK    3  A    between atoms: C_3  and  C_4
REMARK    4  A    between atoms: C_4  and  C_5
REMARK    5  A    between atoms: C_5  and  C_6
REMARK    6  A    between atoms: C_6  and  C_7
REMARK    7  A    between atoms: C_7  and  C_8
REMARK    8  A    between atoms: C_8  and  N_9
REMARK    9  A    between atoms: C_12  and  C_13
REMARK   10  A    between atoms: C_13  and  N_14
REMARK   11  A    between atoms: N_14  and  C_15
REMARK                            x       y       z     vdW  Elec       q    Type
REMARK                         _______ _______ _______ _____ _____    ______ ____
ROOT
ATOM      1  N   UNL     1      44.657   3.499  12.647  0.00  0.00    +0.000 N 
ATOM      2  C   UNL     1      45.275   4.767  12.637  0.00  0.00    +0.000 A 
ATOM      3  C   UNL     1      46.358   4.974  13.499  0.00  0.00    +0.000 A 
ATOM      4  C   UNL     1      47.036   6.206  13.496  0.00  0.00    +0.000 A 
ATOM      5  C   UNL     1      46.556   7.195  12.648  0.00  0.00    +0.000 A 
ATOM      6  C   UNL     1      45.450   6.925  11.854  0.00  0.00    +0.000 A 
ATOM      7  N   UNL     1      44.808   5.732  11.844  0.00  0.00    +0.000 NA
ATOM      8  H   UNL     1      45.349   2.816  12.927  0.00  0.00    +0.000 HD
ENDROOT
BRANCH   1   9
ATOM      9  C   UNL     1      44.024   3.163  11.365  0.00  0.00    +0.000 C 
BRANCH   9  10
ATOM     10  C   UNL     1      45.109   2.805  10.351  0.00  0.00    +0.000 C 
BRANCH  10  11
ATOM     11  C   UNL     1      44.510   2.498   8.977  0.00  0.00    +0.000 C 
BRANCH  11  12
ATOM     12  C   UNL     1      44.726   3.669   8.020  0.00  0.00    +0.000 C 
BRANCH  12  13
ATOM     13  C   UNL     1      46.202   3.822   7.660  0.00  0.00    +0.000 C 
BRANCH  13  14
ATOM     14  C   UNL     1      46.558   2.953   6.458  0.00  0.00    +0.000 C 
BRANCH  14  15
ATOM     15  C   UNL     1      47.662   1.962   6.810  0.00  0.00    +0.000 C 
BRANCH  15  16
ATOM     16  N   UNL     1      48.578   1.821   5.685  0.00  0.00    +0.000 NA
ATOM     17  H   UNL     1      49.101   2.687   5.566  0.00  0.00    +0.000 HD
ATOM     18  H   UNL     1      48.047   1.688   4.826  0.00  0.00    +0.000 HD
ENDBRANCH  15  16
ENDBRANCH  14  15
ENDBRANCH  13  14
ENDBRANCH  12  13
ENDBRANCH  11  12
ENDBRANCH  10  11
ENDBRANCH   9  10
ENDBRANCH   1   9
BRANCH   4  19
ATOM     19  C   UNL     1      48.264   6.440  14.348  0.00  0.00    +0.000 C 
BRANCH  19  20
ATOM     20  N   UNL     1      47.965   6.337  15.771  0.00  0.00    +0.000 N 
ATOM     21  H   UNL     1      48.156   7.187  16.298  0.00  0.00    +0.000 HD
BRANCH  20  22
ATOM     22  C   UNL     1      48.435   5.251  16.516  0.00  0.00    +0.000 A 
ATOM     23  C   UNL     1      49.716   5.156  17.068  0.00  0.00    +0.000 A 
ATOM     24  C   UNL     1      50.107   4.023  17.782  0.00  0.00    +0.000 A 
ATOM     25  C   UNL     1      49.225   2.957  17.940  0.00  0.00    +0.000 A 
ATOM     26  C   UNL     1      47.947   3.031  17.396  0.00  0.00    +0.000 A 
ATOM     27  C   UNL     1      47.562   4.161  16.683  0.00  0.00    +0.000 A 
ENDBRANCH  20  22
ENDBRANCH  19  20
ENDBRANCH   4  19
TORSDOF 11
ENDMDL
MODEL 6
REMARK VINA RESULT:    -6.678      3.126      4.400
REMARK INTER + INTRA:         -11.651
REMARK INTER:                 -10.477
REMARK INTRA:                  -1.174
REMARK UNBOUND:                -0.874
REMARK  Name = 
REMARK  11 active torsions:
REMARK  status: ('A' for Active; 'I' for Inactive)
REMARK    1  A    between atoms: N_1  and  C_2
REMARK    2  A    between atoms: C_2  and  C_3
REMARK    3  A    between atoms: C_3  and  C_4
REMARK    4  A    between atoms: C_4  and  C_5
REMARK    5  A    between atoms: C_5  and  C_6
REMARK    6  A    between atoms: C_6  and  C_7
REMARK    7  A    between atoms: C_7  and  C_8
REMARK    8  A    between atoms: C_8  and  N_9
REMARK    9  A    between atoms: C_12  and  C_13
REMARK   10  A    between atoms: C_13  and  N_14
REMARK   11  A    between atoms: N_14  and  C_15
REMARK                            x       y       z     vdW  Elec       q    Type
REMARK                         _______ _______ _______ _____ _____    ______ ____
ROOT
ATOM      1  N   UNL     1      44.885   7.499  12.407  0.00  0.00    +0.000 N 
ATOM      2  C   UNL     1      45.069   6.100  12.390  0.00  0.00    +0.000 A 
ATOM      3  C   UNL     1      44.424   5.367  11.388  0.00  0.00    +0.000 A 
ATOM      4  C   UNL     1      44.610   3.976  11.301  0.00  0.00    +0.000 A 
ATOM      5  C   UNL     1      45.410   3.379  12.267  0.00  0.00    +0.000 A 
ATOM      6  C   UNL     1      45.980   4.170  13.254  0.00  0.00    +0.000 A 
ATOM      7  N   UNL     1      45.815   5.513  13.327  0.00  0.00    +0.000 NA
ATOM      8  H   UNL     1      44.698   7.800  11.459  0.00  0.00    +0.000 HD
ENDROOT
BRANCH   1   9
ATOM      9  C   UNL     1      46.016   8.216  13.010  0.00  0.00    +0.000 C 
BRANCH   9  10
ATOM     10  C   UNL     1      47.177   8.243  12.017  0.00  0.00    +0.000 C 
BRANCH  10  11
ATOM     11  C   UNL     1      48.037   9.495  12.200  0.00  0.00    +0.000 C 
BRANCH  11  12
ATOM     12  C   UNL     1      49.522   9.139  12.167  0.00  0.00    +0.000 C 
BRANCH  12  13
ATOM     13  C   UNL     1      49.796   7.844  12.928  0.00  0.00    +0.000 C 
BRANCH  13  14
ATOM     14  C   UNL     1      50.184   8.138  14.374  0.00  0.00    +0.000 C 
BRANCH  14  15
ATOM     15  C   UNL     1      49.733   7.011  15.298  0.00  0.00    +0.000 C 
BRANCH  15  16
ATOM     16  N   UNL     1      48.664   6.251  14.666  0.00  0.00    +0.000 NA
ATOM     17  H   UNL     1      48.222   5.649  15.358  0.00  0.00    +0.000 HD
ATOM     18  H   UNL     1      49.056   5.631  13.958  0.00  0.00    +0.000 HD
ENDBRANCH  15  16
ENDBRANCH  14  15
ENDBRANCH  13  14
ENDBRANCH  12  13
ENDBRANCH  11  12
ENDBRANCH  10  11
ENDBRANCH   9  10
ENDBRANCH   1   9
BRANCH   4  19
ATOM     19  C   UNL     1      44.003   3.160  10.182  0.00  0.00    +0.000 C 
BRANCH  19  20
ATOM     20  N   UNL     1      44.907   2.114   9.720  0.00  0.00    +0.000 N 
ATOM     21  H   UNL     1      45.520   1.744  10.444  0.00  0.00    +0.000 HD
BRANCH  20  22
ATOM     22  C   UNL     1      45.668   2.297   8.561  0.00  0.00    +0.000 A 
ATOM     23  C   UNL     1      45.726   3.484   7.823  0.00  0.00    +0.000 A 
ATOM     24  C   UNL     1      46.498   3.571   6.665  0.00  0.00    +0.000 A 
ATOM     25  C   UNL     1      47.214   2.463   6.217  0.00  0.00    +0.000 A 
ATOM     26  C   UNL     1      47.168   1.273   6.935  0.00  0.00    +0.000 A 
ATOM     27  C   UNL     1      46.395   1.190   8.088  0.00  0.00    +0.000 A 
ENDBRANCH  20  22
ENDBRANCH  19  20
ENDBRANCH   4  19
TORSDOF 11
ENDMDL
MODEL 7
REMARK VINA RESULT:    -6.460      2.017      2.875
REMARK INTER + INTRA:         -11.300
REMARK INTER:                 -10.448
REMARK INTRA:                  -0.852
REMARK UNBOUND:                -0.874
REMARK  Name = 
REMARK  11 active torsions:
REMARK  status: ('A' for Active; 'I' for Inactive)
REMARK    1  A    between atoms: N_1  and  C_2
REMARK    2  A    between atoms: C_2  and  C_3
REMARK    3  A    between atoms: C_3  and  C_4
REMARK    4  A    between atoms: C_4  and  C_5
REMARK    5  A    between atoms: C_5  and  C_6
REMARK    6  A    between atoms: C_6  and  C_7
REMARK    7  A    between atoms: C_7  and  C_8
REMARK    8  A    between atoms: C_8  and  N_9
REMARK    9  A    between atoms: C_12  and  C_13
REMARK   10  A    between atoms: C_13  and  N_14
REMARK   11  A    between atoms: N_14  and  C_15
REMARK                            x       y       z     vdW  Elec       q    Type
REMARK                         _______ _______ _______ _____ _____    ______ ____
ROOT
ATOM      1  N   UNL     1      47.257   7.039  13.530  0.00  0.00    +0.000 N 
ATOM      2  C   UNL     1      46.634   5.832  13.148  0.00  0.00    +0.000 A 
ATOM      3  C   UNL     1      45.677   5.882  12.129  0.00  0.00    +0.000 A 
ATOM      4  C   UNL     1      45.059   4.701  11.682  0.00  0.00    +0.000 A 
ATOM      5  C   UNL     1      45.407   3.519  12.323  0.00  0.00    +0.000 A 
ATOM      6  C   UNL     1      46.334   3.558  13.355  0.00  0.00    +0.000 A 
ATOM      7  N   UNL     1      46.942   4.694  13.773  0.00  0.00    +0.000 NA
ATOM      8  H   UNL     1      47.255   7.658  12.728  0.00  0.00    +0.000 HD
ENDROOT
BRANCH   1   9
ATOM      9  C   UNL     1      48.604   6.837  14.080  0.00  0.00    +0.000 C 
BRANCH   9  10
ATOM     10  C   UNL     1      48.675   7.472  15.468  0.00  0.00    +0.000 C 
BRANCH  10  11
ATOM     11  C   UNL     1      49.776   6.833  16.317  0.00  0.00    +0.000 C 
BRANCH  11  12
ATOM     12  C   UNL     1      49.325   6.695  17.770  0.00  0.00    +0.000 C 
BRANCH  12  13
ATOM     13  C   UNL     1      48.999   5.243  18.112  0.00  0.00    +0.000 C 
BRANCH  13  14
ATOM     14  C   UNL     1      47.490   5.014  18.114  0.00  0.00    +0.000 C 
BRANCH  14  15
ATOM     15  C   UNL     1      47.100   3.943  17.101  0.00  0.00    +0.000 C 
BRANCH  15  16
ATOM     16  N   UNL     1      46.677   2.735  17.797  0.00  0.00    +0.000 NA
ATOM     17  H   UNL     1      45.700   2.828  18.070  0.00  0.00    +0.000 HD
ATOM     18  H   UNL     1      47.207   2.634  18.662  0.00  0.00    +0.000 HD
ENDBRANCH  15  16
ENDBRANCH  14  15
ENDBRANCH  13  14
ENDBRANCH  12  13
ENDBRANCH  11  12
ENDBRANCH  10  11
ENDBRANCH   9  10
ENDBRANCH   1   9
BRANCH   4  19
ATOM     19  C   UNL     1      44.086   4.700  10.524  0.00  0.00    +0.000 C 
BRANCH  19  20
ATOM     20  N   UNL     1      44.083   3.424   9.819  0.00  0.00    +0.000 N 
ATOM     21  H   UNL     1      43.966   2.614  10.424  0.00  0.00    +0.000 HD
BRANCH  20  22
ATOM     22  C   UNL     1      45.083   3.127   8.888  0.00  0.00    +0.000 A 
ATOM     23  C   UNL     1      45.648   4.050   8.002  0.00  0.00    +0.000 A 
ATOM     24  C   UNL     1      46.630   3.660   7.090  0.00  0.00    +0.000 A 
ATOM     25  C   UNL     1      47.051   2.333   7.041  0.00  0.00    +0.000 A 
ATOM     26  C   UNL     1      46.500   1.399   7.912  0.00  0.00    +0.000 A 
ATOM     27  C   UNL     1      45.519   1.792   8.817  0.00  0.00    +0.000 A 
ENDBRANCH  20  22
ENDBRANCH  19  20
ENDBRANCH   4  19
TORSDOF 11
ENDMDL
MODEL 8
REMARK VINA RESULT:    -5.934      1.856      8.909
REMARK INTER + INTRA:         -10.450
REMARK INTER:                  -9.836
REMARK INTRA:                  -0.614
REMARK UNBOUND:                -0.874
REMARK  Name = 
REMARK  11 active torsions:
REMARK  status: ('A' for Active; 'I' for Inactive)
REMARK    1  A    between atoms: N_1  and  C_2
REMARK    2  A    between atoms: C_2  and  C_3
REMARK    3  A    between atoms: C_3  and  C_4
REMARK    4  A    between atoms: C_4  and  C_5
REMARK    5  A    between atoms: C_5  and  C_6
REMARK    6  A    between atoms: C_6  and  C_7
REMARK    7  A    between atoms: C_7  and  C_8
REMARK    8  A    between atoms: C_8  and  N_9
REMARK    9  A    between atoms: C_12  and  C_13
REMARK   10  A    between atoms: C_13  and  N_14
REMARK   11  A    between atoms: N_14  and  C_15
REMARK                            x       y       z     vdW  Elec       q    Type
REMARK                         _______ _______ _______ _____ _____    ______ ____
ROOT
ATOM      1  N   UNL     1      45.622   3.970  13.642  0.00  0.00    +0.000 N 
ATOM      2  C   UNL     1      46.618   4.763  14.248  0.00  0.00    +0.000 A 
ATOM      3  C   UNL     1      47.117   4.354  15.489  0.00  0.00    +0.000 A 
ATOM      4  C   UNL     1      48.142   5.085  16.115  0.00  0.00    +0.000 A 
ATOM      5  C   UNL     1      48.587   6.233  15.472  0.00  0.00    +0.000 A 
ATOM      6  C   UNL     1      48.012   6.597  14.262  0.00  0.00    +0.000 A 
ATOM      7  N   UNL     1      47.037   5.881  13.652  0.00  0.00    +0.000 NA
ATOM      8  H   UNL     1      45.743   3.018  13.964  0.00  0.00    +0.000 HD
ENDROOT
BRANCH   1   9
ATOM      9  C   UNL     1      45.623   4.072  12.177  0.00  0.00    +0.000 C 
BRANCH   9  10
ATOM     10  C   UNL     1      44.509   3.191  11.614  0.00  0.00    +0.000 C 
BRANCH  10  11
ATOM     11  C   UNL     1      44.204   3.541  10.156  0.00  0.00    +0.000 C 
BRANCH  11  12
ATOM     12  C   UNL     1      45.057   2.700   9.209  0.00  0.00    +0.000 C 
BRANCH  12  13
ATOM     13  C   UNL     1      45.127   3.333   7.821  0.00  0.00    +0.000 C 
BRANCH  13  14
ATOM     14  C   UNL     1      46.574   3.629   7.435  0.00  0.00    +0.000 C 
BRANCH  14  15
ATOM     15  C   UNL     1      47.031   2.721   6.298  0.00  0.00    +0.000 C 
BRANCH  15  16
ATOM     16  N   UNL     1      48.478   2.559   6.345  0.00  0.00    +0.000 NA
ATOM     17  H   UNL     1      48.910   3.188   5.671  0.00  0.00    +0.000 HD
ATOM     18  H   UNL     1      48.727   1.615   6.055  0.00  0.00    +0.000 HD
ENDBRANCH  15  16
ENDBRANCH  14  15
ENDBRANCH  13  14
ENDBRANCH  12  13
ENDBRANCH  11  12
ENDBRANCH  10  11
ENDBRANCH   9  10
ENDBRANCH   1   9
BRANCH   4  19
ATOM     19  C   UNL     1      48.769   4.628  17.412  0.00  0.00    +0.000 C 
BRANCH  19  20
ATOM     20  N   UNL     1      50.214   4.824  17.416  0.00  0.00    +0.000 N 
ATOM     21  H   UNL     1      50.558   5.388  16.642  0.00  0.00    +0.000 HD
BRANCH  20  22
ATOM     22  C   UNL     1      51.075   3.735  17.575  0.00  0.00    +0.000 A 
ATOM     23  C   UNL     1      52.416   3.827  17.963  0.00  0.00    +0.000 A 
ATOM     24  C   UNL     1      53.210   2.685  18.076  0.00  0.00    +0.000 A 
ATOM     25  C   UNL     1      52.677   1.432  17.786  0.00  0.00    +0.000 A 
ATOM     26  C   UNL     1      51.347   1.319  17.396  0.00  0.00    +0.000 A 
ATOM     27  C   UNL     1      50.560   2.460  17.282  0.00  0.00    +0.000 A 
ENDBRANCH  20  22
ENDBRANCH  19  20
ENDBRANCH   4  19
TORSDOF 11
ENDMDL
MODEL 9
REMARK VINA RESULT:    -5.855      3.787      7.905
REMARK INTER + INTRA:         -10.323
REMARK INTER:                 -10.026
REMARK INTRA:                  -0.298
REMARK UNBOUND:                -0.874
REMARK  Name = 
REMARK  11 active torsions:
REMARK  status: ('A' for Active; 'I' for Inactive)
REMARK    1  A    between atoms: N_1  and  C_2
REMARK    2  A    between atoms: C_2  and  C_3
REMARK    3  A    between atoms: C_3  and  C_4
REMARK    4  A    between atoms: C_4  and  C_5
REMARK    5  A    between atoms: C_5  and  C_6
REMARK    6  A    between atoms: C_6  and  C_7
REMARK    7  A    between atoms: C_7  and  C_8
REMARK    8  A    between atoms: C_8  and  N_9
REMARK    9  A    between atoms: C_12  and  C_13
REMARK   10  A    between atoms: C_13  and  N_14
REMARK   11  A    between atoms: N_14  and  C_15
REMARK                            x       y       z     vdW  Elec       q    Type
REMARK                         _______ _______ _______ _____ _____    ______ ____
ROOT
ATOM      1  N   UNL     1      45.225   3.494  12.165  0.00  0.00    +0.000 N 
ATOM      2  C   UNL     1      45.523   4.835  12.485  0.00  0.00    +0.000 A 
ATOM      3  C   UNL     1      46.818   5.131  12.925  0.00  0.00    +0.000 A 
ATOM      4  C   UNL     1      47.179   6.459  13.215  0.00  0.00    +0.000 A 
ATOM      5  C   UNL     1      46.192   7.428  13.088  0.00  0.00    +0.000 A 
ATOM      6  C   UNL     1      44.919   7.048  12.687  0.00  0.00    +0.000 A 
ATOM      7  N   UNL     1      44.577   5.771  12.391  0.00  0.00    +0.000 NA
ATOM      8  H   UNL     1      46.083   3.044  11.873  0.00  0.00    +0.000 HD
ENDROOT
BRANCH   1   9
ATOM      9  C   UNL     1      44.157   3.370  11.164  0.00  0.00    +0.000 C 
BRANCH   9  10
ATOM     10  C   UNL     1      44.485   4.266   9.971  0.00  0.00    +0.000 C 
BRANCH  10  11
ATOM     11  C   UNL     1      44.708   3.443   8.701  0.00  0.00    +0.000 C 
BRANCH  11  12
ATOM     12  C   UNL     1      45.300   2.076   9.040  0.00  0.00    +0.000 C 
BRANCH  12  13
ATOM     13  C   UNL     1      46.317   1.639   7.988  0.00  0.00    +0.000 C 
BRANCH  13  14
ATOM     14  C   UNL     1      46.873   2.847   7.239  0.00  0.00    +0.000 C 
BRANCH  14  15
ATOM     15  C   UNL     1      47.257   2.473   5.811  0.00  0.00    +0.000 C 
BRANCH  15  16
ATOM     16  N   UNL     1      48.542   1.785   5.809  0.00  0.00    +0.000 NA
ATOM     17  H   UNL     1      48.739   1.443   4.871  0.00  0.00    +0.000 HD
ATOM     18  H   UNL     1      48.492   0.963   6.409  0.00  0.00    +0.000 HD
ENDBRANCH  15  16
ENDBRANCH  14  15
ENDBRANCH  13  14
ENDBRANCH  12  13
ENDBRANCH  11  12
ENDBRANCH  10  11
ENDBRANCH   9  10
ENDBRANCH   1   9
BRANCH   4  19
ATOM     19  C   UNL     1      48.590   6.832  13.608  0.00  0.00    +0.000 C 
BRANCH  19  20
ATOM     20  N   UNL     1      49.486   6.855  12.458  0.00  0.00    +0.000 N 
ATOM     21  H   UNL     1      50.303   6.256  12.556  0.00  0.00    +0.000 HD
BRANCH  20  22
ATOM     22  C   UNL     1      49.905   8.072  11.911  0.00  0.00    +0.000 A 
ATOM     23  C   UNL     1      49.120   9.227  11.839  0.00  0.00    +0.000 A 
ATOM     24  C   UNL     1      49.615  10.394  11.256  0.00  0.00    +0.000 A 
ATOM     25  C   UNL     1      50.900  10.418  10.721  0.00  0.00    +0.000 A 
ATOM     26  C   UNL     1      51.696   9.279  10.781  0.00  0.00    +0.000 A 
ATOM     27  C   UNL     1      51.198   8.117  11.360  0.00  0.00    +0.000 A 
ENDBRANCH  20  22
ENDBRANCH  19  20
ENDBRANCH   4  19
TORSDOF 11
ENDMDL
