MODEL 1
REMARK VINA RESULT:    -6.710      0.000      0.000
REMARK INTER + INTRA:          -8.791
REMARK INTER:                  -8.082
REMARK INTRA:                  -0.708
REMARK UNBOUND:                -0.708
REMARK  Name = 
REMARK  4 active torsions:
REMARK  status: ('A' for Active; 'I' for Inactive)
REMARK    1  A    between atoms: N_1  and  C_2
REMARK    2  A    between atoms: C_2  and  C_3
REMARK    3  A    between atoms: C_6  and  C_7
REMARK    4  A    between atoms: C_7  and  N_8
REMARK                            x       y       z     vdW  Elec       q    Type
REMARK                         _______ _______ _______ _____ _____    ______ ____
ROOT
ATOM      1  C   UNL     1      44.923   2.893  10.407  0.00  0.00    +0.000 C 
ENDROOT
BRANCH   1   2
ATOM      2  N   UNL     1      44.355   4.066  11.065  0.00  0.00    +0.000 N 
ATOM      3  C   UNL     1      43.016   4.216  11.333  0.00  0.00    +0.000 A 
ATOM      4  C   UNL     1      42.811   5.493  11.793  0.00  0.00    +0.000 A 
ATOM      5  C   UNL     1      44.070   6.147  11.840  0.00  0.00    +0.000 A 
ATOM      6  C   UNL     1      44.483   7.431  12.217  0.00  0.00    +0.000 A 
ATOM      7  N   UNL     1      45.792   7.779  12.178  0.00  0.00    +0.000 NA
ATOM      8  C   UNL     1      46.688   6.859  11.759  0.00  0.00    +0.000 A 
ATOM      9  F   UNL     1      47.976   7.229  11.745  0.00  0.00    +0.000 F 
ATOM     10  C   UNL     1      46.380   5.572  11.347  0.00  0.00    +0.000 A 
ATOM     11  C   UNL     1      45.028   5.225  11.395  0.00  0.00    +0.000 A 
ENDBRANCH   1   2
BRANCH   1  15
ATOM     12  C   UNL     1      47.089   2.957   7.244  0.00  0.00    +0.000 C 
ATOM     13  C   UNL     1      46.359   4.188   7.814  0.00  0.00    +0.000 C 
ATOM     14  C   UNL     1      44.863   3.966   8.052  0.00  0.00    +0.000 C 
ATOM     15  C   UNL     1      44.554   2.732   8.916  0.00  0.00    +0.000 C 
ATOM     16  C   UNL     1      45.253   1.501   8.306  0.00  0.00    +0.000 C 
ATOM     17  C   UNL     1      46.753   1.705   8.075  0.00  0.00    +0.000 C 
BRANCH  12  18
ATOM     18  C   UNL     1      46.823   2.709   5.744  0.00  0.00    +0.000 C 
BRANCH  18  19
ATOM     19  N   UNL     1      48.061   2.500   4.989  0.00  0.00    +0.000 NA
ATOM     20  H   UNL     1      47.860   2.557   3.992  0.00  0.00    +0.000 HD
ATOM     21  H   UNL     1      48.404   1.552   5.148  0.00  0.00    +0.000 HD
ENDBRANCH  18  19
ENDBRANCH  12  18
ENDBRANCH   1  15
TORSDOF 4
ENDMDL
MODEL 2
REMARK VINA RESULT:    -6.563      2.274      5.835
REMARK INTER + INTRA:          -8.615
REMARK INTER:                  -8.023
REMARK INTRA:                  -0.592
REMARK UNBOUND:                -0.708
REMARK  Name = 
REMARK  4 active torsions:
REMARK  status: ('A' for Active; 'I' for Inactive)
REMARK    1  A    between atoms: N_1  and  C_2
REMARK    2  A    between atoms: C_2  and  C_3
REMARK    3  A    between atoms: C_6  and  C_7
REMARK    4  A    between atoms: C_7  and  N_8
REMARK                            x       y       z     vdW  Elec       q    Type
REMARK                         _______ _______ _______ _____ _____    ______ ____
ROOT
ATOM      1  C   UNL     1      44.361   6.553  11.392  0.00  0.00    +0.000 C 
ENDROOT
BRANCH   1   2
ATOM      2  N   UNL     1      44.091   5.155  11.070  0.00  0.00    +0.000 N 
ATOM      3  C   UNL     1      43.312   4.331  11.845  0.00  0.00    +0.000 A 
ATOM      4  C   UNL     1      43.411   3.055  11.348  0.00  0.00    +0.000 A 
ATOM      5  C   UNL     1      44.256   3.095  10.208  0.00  0.00    +0.000 A 
ATOM      6  C   UNL     1      44.716   2.127   9.307  0.00  0.00    +0.000 A 
ATOM      7  N   UNL     1      45.519   2.468   8.271  0.00  0.00    +0.000 NA
ATOM      8  C   UNL     1      45.872   3.766   8.133  0.00  0.00    +0.000 A 
ATOM      9  F   UNL     1      46.655   4.074   7.090  0.00  0.00    +0.000 F 
ATOM     10  C   UNL     1      45.488   4.793   8.980  0.00  0.00    +0.000 A 
ATOM     11  C   UNL     1      44.657   4.428  10.041  0.00  0.00    +0.000 A 
ENDBRANCH   1   2
BRANCH   1  15
ATOM     12  C   UNL     1      47.934   7.317  12.554  0.00  0.00    +0.000 C 
ATOM     13  C   UNL     1      47.329   5.901  12.502  0.00  0.00    +0.000 C 
ATOM     14  C   UNL     1      45.995   5.771  13.241  0.00  0.00    +0.000 C 
ATOM     15  C   UNL     1      44.943   6.803  12.800  0.00  0.00    +0.000 C 
ATOM     16  C   UNL     1      45.550   8.216  12.903  0.00  0.00    +0.000 C 
ATOM     17  C   UNL     1      46.878   8.364  12.157  0.00  0.00    +0.000 C 
BRANCH  12  18
ATOM     18  C   UNL     1      48.579   7.674  13.911  0.00  0.00    +0.000 C 
BRANCH  18  19
ATOM     19  N   UNL     1      49.880   7.026  14.093  0.00  0.00    +0.000 NA
ATOM     20  H   UNL     1      50.081   6.951  15.089  0.00  0.00    +0.000 HD
ATOM     21  H   UNL     1      50.616   7.618  13.707  0.00  0.00    +0.000 HD
ENDBRANCH  18  19
ENDBRANCH  12  18
ENDBRANCH   1  15
TORSDOF 4
ENDMDL
MODEL 3
REMARK VINA RESULT:    -5.822      4.411      6.279
REMARK INTER + INTRA:          -7.722
REMARK INTER:                  -7.315
REMARK INTRA:                  -0.407
REMARK UNBOUND:                -0.708
REMARK  Name = 
REMARK  4 active torsions:
REMARK  status: ('A' for Active; 'I' for Inactive)
REMARK    1  A    between atoms: N_1  and  C_2
REMARK    2  A    between atoms: C_2  and  C_3
REMARK    3  A    between atoms: C_6  and  C_7
REMARK    4  A    between atoms: C_7  and  N_8
REMARK                            x       y       z     vdW  Elec       q    Type
REMARK                         _______ _______ _______ _____ _____    ______ ____
ROOT
ATOM      1  C   UNL     1      47.514   5.655  13.435  0.00  0.00    +0.000 C 
ENDROOT
BRANCH   1   2
ATOM      2  N   UNL     1      48.042   5.982  14.757  0.00  0.00    +0.000 N 
ATOM      3  C   UNL     1      48.812   7.089  15.017  0.00  0.00    +0.000 A 
ATOM      4  C   UNL     1      49.274   6.996  16.306  0.00  0.00    +0.000 A 
ATOM      5  C   UNL     1      48.748   5.806  16.874  0.00  0.00    +0.000 A 
ATOM      6  C   UNL     1      48.867   5.195  18.128  0.00  0.00    +0.000 A 
ATOM      7  N   UNL     1      48.215   4.039  18.402  0.00  0.00    +0.000 NA
ATOM      8  C   UNL     1      47.453   3.487  17.431  0.00  0.00    +0.000 A 
ATOM      9  F   UNL     1      46.810   2.352  17.738  0.00  0.00    +0.000 F 
ATOM     10  C   UNL     1      47.287   4.001  16.155  0.00  0.00    +0.000 A 
ATOM     11  C   UNL     1      47.962   5.195  15.888  0.00  0.00    +0.000 A 
ENDBRANCH   1   2
BRANCH   1  15
ATOM     12  C   UNL     1      45.022   4.391  10.810  0.00  0.00    +0.000 C 
ATOM     13  C   UNL     1      45.800   5.715  10.692  0.00  0.00    +0.000 C 
ATOM     14  C   UNL     1      45.659   6.627  11.913  0.00  0.00    +0.000 C 
ATOM     15  C   UNL     1      46.007   5.935  13.242  0.00  0.00    +0.000 C 
ATOM     16  C   UNL     1      45.186   4.638  13.365  0.00  0.00    +0.000 C 
ATOM     17  C   UNL     1      45.329   3.710  12.156  0.00  0.00    +0.000 C 
BRANCH  12  18
ATOM     18  C   UNL     1      43.499   4.538  10.602  0.00  0.00    +0.000 C 
BRANCH  18  19
ATOM     19  N   UNL     1      42.739   3.518  11.330  0.00  0.00    +0.000 NA
ATOM     20  H   UNL     1      43.109   3.435  12.275  0.00  0.00    +0.000 HD
ATOM     21  H   UNL     1      42.886   2.607  10.895  0.00  0.00    +0.000 HD
ENDBRANCH  18  19
ENDBRANCH  12  18
ENDBRANCH   1  15
TORSDOF 4
ENDMDL
MODEL 4
REMARK VINA RESULT:    -5.746      2.804      6.205
REMARK INTER + INTRA:          -7.631
REMARK INTER:                  -7.064
REMARK INTRA:                  -0.566
REMARK UNBOUND:                -0.708
REMARK  Name = 
REMARK  4 active torsions:
REMARK  status: ('A' for Active; 'I' for Inactive)
REMARK    1  A    between atoms: N_1  and  C_2
REMARK    2  A    between atoms: C_2  and  C_3
REMARK    3  A    between atoms: C_6  and  C_7
REMARK    4  A    between atoms: C_7  and  N_8
REMARK                            x       y       z     vdW  Elec       q    Type
REMARK                         _______ _______ _______ _____ _____    ______ ____
ROOT
ATOM      1  C   UNL     1      45.975   7.234  11.815  0.00  0.00    +0.000 C 
ENDROOT
BRANCH   1   2
ATOM      2  N   UNL     1      45.158   6.025  11.863  0.00  0.00    +0.000 N 
ATOM      3  C   UNL     1      44.517   5.583  12.995  0.00  0.00    +0.000 A 
ATOM      4  C   UNL     1      43.990   4.343  12.733  0.00  0.00    +0.000 A 
ATOM      5  C   UNL     1      44.289   4.018  11.384  0.00  0.00    +0.000 A 
ATOM      6  C   UNL     1      44.018   2.912  10.569  0.00  0.00    +0.000 A 
ATOM      7  N   UNL     1      44.419   2.887   9.275  0.00  0.00    +0.000 NA
ATOM      8  C   UNL     1      45.096   3.953   8.793  0.00  0.00    +0.000 A 
ATOM      9  F   UNL     1      45.467   3.904   7.506  0.00  0.00    +0.000 F 
ATOM     10  C   UNL     1      45.431   5.084   9.521  0.00  0.00    +0.000 A 
ATOM     11  C   UNL     1      45.008   5.098  10.851  0.00  0.00    +0.000 A 
ENDBRANCH   1   2
BRANCH   1  15
ATOM     12  C   UNL     1      48.780   8.075  14.291  0.00  0.00    +0.000 C 
ATOM     13  C   UNL     1      48.360   8.986  13.122  0.00  0.00    +0.000 C 
ATOM     14  C   UNL     1      48.341   8.283  11.763  0.00  0.00    +0.000 C 
ATOM     15  C   UNL     1      47.499   6.996  11.747  0.00  0.00    +0.000 C 
ATOM     16  C   UNL     1      47.964   6.076  12.893  0.00  0.00    +0.000 C 
ATOM     17  C   UNL     1      47.974   6.764  14.260  0.00  0.00    +0.000 C 
BRANCH  12  18
ATOM     18  C   UNL     1      50.295   7.788  14.348  0.00  0.00    +0.000 C 
BRANCH  18  19
ATOM     19  N   UNL     1      50.629   6.767  15.345  0.00  0.00    +0.000 NA
ATOM     20  H   UNL     1      51.015   5.950  14.873  0.00  0.00    +0.000 HD
ATOM     21  H   UNL     1      49.776   6.443  15.803  0.00  0.00    +0.000 HD
ENDBRANCH  18  19
ENDBRANCH  12  18
ENDBRANCH   1  15
TORSDOF 4
ENDMDL
MODEL 5
REMARK VINA RESULT:    -5.416      5.128      7.939
REMARK INTER + INTRA:          -7.232
REMARK INTER:                  -6.960
REMARK INTRA:                  -0.273
REMARK UNBOUND:                -0.708
REMARK  Name = 
REMARK  4 active torsions:
REMARK  status: ('A' for Active; 'I' for Inactive)
REMARK    1  A    between atoms: N_1  and  C_2
REMARK    2  A    between atoms: C_2  and  C_3
REMARK    3  A    between atoms: C_6  and  C_7
REMARK    4  A    between atoms: C_7  and  N_8
REMARK                            x       y       z     vdW  Elec       q    Type
REMARK                         _______ _______ _______ _____ _____    ______ ____
ROOT
ATOM      1  C   UNL     1      47.511   3.863  14.791  0.00  0.00    +0.000 C 
ENDROOT
BRANCH   1   2
ATOM      2  N   UNL     1      47.062   4.670  13.660  0.00  0.00    +0.000 N 
ATOM      3  C   UNL     1      47.620   5.878  13.316  0.00  0.00    +0.000 A 
ATOM      4  C   UNL     1      46.854   6.437  12.324  0.00  0.00    +0.000 A 
ATOM      5  C   UNL     1      45.802   5.533  12.022  0.00  0.00    +0.000 A 
ATOM      6  C   UNL     1      44.733   5.555  11.118  0.00  0.00    +0.000 A 
ATOM      7  N   UNL     1      43.875   4.509  11.031  0.00  0.00    +0.000 NA
ATOM      8  C   UNL     1      44.073   3.449  11.845  0.00  0.00    +0.000 A 
ATOM      9  F   UNL     1      43.216   2.425  11.725  0.00  0.00    +0.000 F 
ATOM     10  C   UNL     1      45.085   3.339  12.784  0.00  0.00    +0.000 A 
ATOM     11  C   UNL     1      45.965   4.421  12.861  0.00  0.00    +0.000 A 
ENDBRANCH   1   2
BRANCH   1  15
ATOM     12  C   UNL     1      49.407   3.866  18.124  0.00  0.00    +0.000 C 
ATOM     13  C   UNL     1      48.393   2.782  17.709  0.00  0.00    +0.000 C 
ATOM     14  C   UNL     1      47.033   3.337  17.280  0.00  0.00    +0.000 C 
ATOM     15  C   UNL     1      47.125   4.411  16.183  0.00  0.00    +0.000 C 
ATOM     16  C   UNL     1      48.106   5.510  16.633  0.00  0.00    +0.000 C 
ATOM     17  C   UNL     1      49.476   4.969  17.052  0.00  0.00    +0.000 C 
BRANCH  12  18
ATOM     18  C   UNL     1      49.143   4.470  19.519  0.00  0.00    +0.000 C 
BRANCH  18  19
ATOM     19  N   UNL     1      48.453   3.531  20.408  0.00  0.00    +0.000 NA
ATOM     20  H   UNL     1      49.050   2.720  20.567  0.00  0.00    +0.000 HD
ATOM     21  H   UNL     1      47.618   3.172  19.946  0.00  0.00    +0.000 HD
ENDBRANCH  18  19
ENDBRANCH  12  18
ENDBRANCH   1  15
TORSDOF 4
ENDMDL
MODEL 6
REMARK VINA RESULT:    -5.285      4.766      6.940
REMARK INTER + INTRA:          -7.075
REMARK INTER:                  -6.718
REMARK INTRA:                  -0.357
REMARK UNBOUND:                -0.708
REMARK  Name = 
REMARK  4 active torsions:
REMARK  status: ('A' for Active; 'I' for Inactive)
REMARK    1  A    between atoms: N_1  and  C_2
REMARK    2  A    between atoms: C_2  and  C_3
REMARK    3  A    between atoms: C_6  and  C_7
REMARK    4  A    between atoms: C_7  and  N_8
REMARK                            x       y       z     vdW  Elec       q    Type
REMARK                         _______ _______ _______ _____ _____    ______ ____
ROOT
ATOM      1  C   UNL     1      47.618   6.757  14.446  0.00  0.00    +0.000 C 
ENDROOT
BRANCH   1   2
ATOM      2  N   UNL     1      48.570   6.381  15.487  0.00  0.00    +0.000 N 
ATOM      3  C   UNL     1      49.775   7.010  15.681  0.00  0.00    +0.000 A 
ATOM      4  C   UNL     1      50.484   6.300  16.618  0.00  0.00    +0.000 A 
ATOM      5  C   UNL     1      49.678   5.210  17.041  0.00  0.00    +0.000 A 
ATOM      6  C   UNL     1      49.861   4.167  17.956  0.00  0.00    +0.000 A 
ATOM      7  N   UNL     1      48.881   3.257  18.177  0.00  0.00    +0.000 NA
ATOM      8  C   UNL     1      47.727   3.377  17.484  0.00  0.00    +0.000 A 
ATOM      9  F   UNL     1      46.772   2.470  17.736  0.00  0.00    +0.000 F 
ATOM     10  C   UNL     1      47.456   4.358  16.545  0.00  0.00    +0.000 A 
ATOM     11  C   UNL     1      48.472   5.292  16.330  0.00  0.00    +0.000 A 
ENDBRANCH   1   2
BRANCH   1  15
ATOM     12  C   UNL     1      44.837   5.813  11.980  0.00  0.00    +0.000 C 
ATOM     13  C   UNL     1      45.227   4.965  13.206  0.00  0.00    +0.000 C 
ATOM     14  C   UNL     1      46.719   4.629  13.278  0.00  0.00    +0.000 C 
ATOM     15  C   UNL     1      47.632   5.863  13.187  0.00  0.00    +0.000 C 
ATOM     16  C   UNL     1      47.261   6.674  11.931  0.00  0.00    +0.000 C 
ATOM     17  C   UNL     1      45.773   7.028  11.853  0.00  0.00    +0.000 C 
BRANCH  12  18
ATOM     18  C   UNL     1      44.786   5.017  10.658  0.00  0.00    +0.000 C 
BRANCH  18  19
ATOM     19  N   UNL     1      43.518   5.202   9.949  0.00  0.00    +0.000 NA
ATOM     20  H   UNL     1      43.706   5.558   9.013  0.00  0.00    +0.000 HD
ATOM     21  H   UNL     1      42.967   5.924  10.413  0.00  0.00    +0.000 HD
ENDBRANCH  18  19
ENDBRANCH  12  18
ENDBRANCH   1  15
TORSDOF 4
ENDMDL
MODEL 7
REMARK VINA RESULT:    -5.251      3.816      6.383
REMARK INTER + INTRA:          -7.034
REMARK INTER:                  -6.346
REMARK INTRA:                  -0.688
REMARK UNBOUND:                -0.708
REMARK  Name = 
REMARK  4 active torsions:
REMARK  status: ('A' for Active; 'I' for Inactive)
REMARK    1  A    between atoms: N_1  and  C_2
REMARK    2  A    between atoms: C_2  and  C_3
REMARK    3  A    between atoms: C_6  and  C_7
REMARK    4  A    between atoms: C_7  and  N_8
REMARK                            x       y       z     vdW  Elec       q    Type
REMARK                         _______ _______ _______ _____ _____    ______ ____
ROOT
ATOM      1  C   UNL     1      46.431   8.229  13.102  0.00  0.00    +0.000 C 
ENDROOT
BRANCH   1   2
ATOM      2  N   UNL     1      45.817   7.097  12.414  0.00  0.00    +0.000 N 
ATOM      3  C   UNL     1      44.885   7.229  11.413  0.00  0.00    +0.000 A 
ATOM      4  C   UNL     1      44.398   5.981  11.114  0.00  0.00    +0.000 A 
ATOM      5  C   UNL     1      45.072   5.040  11.936  0.00  0.00    +0.000 A 
ATOM      6  C   UNL     1      45.001   3.649  12.079  0.00  0.00    +0.000 A 
ATOM      7  N   UNL     1      45.805   2.998  12.954  0.00  0.00    +0.000 NA
ATOM      8  C   UNL     1      46.671   3.727  13.693  0.00  0.00    +0.000 A 
ATOM      9  F   UNL     1      47.463   3.053  14.539  0.00  0.00    +0.000 F 
ATOM     10  C   UNL     1      46.804   5.105  13.641  0.00  0.00    +0.000 A 
ATOM     11  C   UNL     1      45.972   5.763  12.732  0.00  0.00    +0.000 A 
ENDBRANCH   1   2
BRANCH   1  15
ATOM     12  C   UNL     1      50.235   8.372  13.565  0.00  0.00    +0.000 C 
ATOM     13  C   UNL     1      49.255   9.407  14.152  0.00  0.00    +0.000 C 
ATOM     14  C   UNL     1      48.304  10.015  13.119  0.00  0.00    +0.000 C 
ATOM     15  C   UNL     1      47.528   8.967  12.304  0.00  0.00    +0.000 C 
ATOM     16  C   UNL     1      48.525   7.969  11.686  0.00  0.00    +0.000 C 
ATOM     17  C   UNL     1      49.474   7.342  12.711  0.00  0.00    +0.000 C 
BRANCH  12  18
ATOM     18  C   UNL     1      51.400   8.995  12.767  0.00  0.00    +0.000 C 
BRANCH  18  19
ATOM     19  N   UNL     1      52.169   7.987  12.031  0.00  0.00    +0.000 NA
ATOM     20  H   UNL     1      53.157   8.236  12.055  0.00  0.00    +0.000 HD
ATOM     21  H   UNL     1      51.904   8.006  11.046  0.00  0.00    +0.000 HD
ENDBRANCH  18  19
ENDBRANCH  12  18
ENDBRANCH   1  15
TORSDOF 4
ENDMDL
MODEL 8
REMARK VINA RESULT:    -4.916      4.143      6.326
REMARK INTER + INTRA:          -6.630
REMARK INTER:                  -6.114
REMARK INTRA:                  -0.517
REMARK UNBOUND:                -0.708
REMARK  Name = 
REMARK  4 active torsions:
REMARK  status: ('A' for Active; 'I' for Inactive)
REMARK    1  A    between atoms: N_1  and  C_2
REMARK    2  A    between atoms: C_2  and  C_3
REMARK    3  A    between atoms: C_6  and  C_7
REMARK    4  A    between atoms: C_7  and  N_8
REMARK                            x       y       z     vdW  Elec       q    Type
REMARK                         _______ _______ _______ _____ _____    ______ ____
ROOT
ATOM      1  C   UNL     1      46.780   7.233  13.455  0.00  0.00    +0.000 C 
ENDROOT
BRANCH   1   2
ATOM      2  N   UNL     1      46.372   5.835  13.357  0.00  0.00    +0.000 N 
ATOM      3  C   UNL     1      47.204   4.777  13.634  0.00  0.00    +0.000 A 
ATOM      4  C   UNL     1      46.559   3.619  13.278  0.00  0.00    +0.000 A 
ATOM      5  C   UNL     1      45.272   3.968  12.791  0.00  0.00    +0.000 A 
ATOM      6  C   UNL     1      44.189   3.232  12.295  0.00  0.00    +0.000 A 
ATOM      7  N   UNL     1      43.045   3.850  11.913  0.00  0.00    +0.000 NA
ATOM      8  C   UNL     1      42.978   5.196  12.016  0.00  0.00    +0.000 A 
ATOM      9  F   UNL     1      41.828   5.776  11.645  0.00  0.00    +0.000 F 
ATOM     10  C   UNL     1      43.998   6.015  12.474  0.00  0.00    +0.000 A 
ATOM     11  C   UNL     1      45.170   5.365  12.868  0.00  0.00    +0.000 A 
ENDBRANCH   1   2
BRANCH   1  15
ATOM     12  C   UNL     1      49.631   9.635  12.557  0.00  0.00    +0.000 C 
ATOM     13  C   UNL     1      48.213  10.090  12.954  0.00  0.00    +0.000 C 
ATOM     14  C   UNL     1      47.100   9.436  12.132  0.00  0.00    +0.000 C 
ATOM     15  C   UNL     1      47.168   7.899  12.116  0.00  0.00    +0.000 C 
ATOM     16  C   UNL     1      48.578   7.462  11.673  0.00  0.00    +0.000 C 
ATOM     17  C   UNL     1      49.700   8.099  12.496  0.00  0.00    +0.000 C 
BRANCH  12  18
ATOM     18  C   UNL     1      50.146  10.262  11.244  0.00  0.00    +0.000 C 
BRANCH  18  19
ATOM     19  N   UNL     1      51.370   9.615  10.764  0.00  0.00    +0.000 NA
ATOM     20  H   UNL     1      51.653   8.897  11.428  0.00  0.00    +0.000 HD
ATOM     21  H   UNL     1      52.132  10.293  10.748  0.00  0.00    +0.000 HD
ENDBRANCH  18  19
ENDBRANCH  12  18
ENDBRANCH   1  15
TORSDOF 4
ENDMDL
MODEL 9
REMARK VINA RESULT:    -4.873      3.620      5.747
REMARK INTER + INTRA:          -6.578
REMARK INTER:                  -6.076
REMARK INTRA:                  -0.502
REMARK UNBOUND:                -0.708
REMARK  Name = 
REMARK  4 active torsions:
REMARK  status: ('A' for Active; 'I' for Inactive)
REMARK    1  A    between atoms: N_1  and  C_2
REMARK    2  A    between atoms: C_2  and  C_3
REMARK    3  A    between atoms: C_6  and  C_7
REMARK    4  A    between atoms: C_7  and  N_8
REMARK                            x       y       z     vdW  Elec       q    Type
REMARK                         _______ _______ _______ _____ _____    ______ ____
ROOT
ATOM      1  C   UNL     1      47.681   6.191  12.769  0.00  0.00    +0.000 C 
ENDROOT
BRANCH   1   2
ATOM      2  N   UNL     1      48.392   7.312  13.377  0.00  0.00    +0.000 N 
ATOM      3  C   UNL     1      49.219   7.189  14.466  0.00  0.00    +0.000 A 
ATOM      4  C   UNL     1      49.580   8.449  14.875  0.00  0.00    +0.000 A 
ATOM      5  C   UNL     1      48.980   9.383  13.991  0.00  0.00    +0.000 A 
ATOM      6  C   UNL     1      48.985  10.781  13.906  0.00  0.00    +0.000 A 
ATOM      7  N   UNL     1      48.320  11.420  12.913  0.00  0.00    +0.000 NA
ATOM      8  C   UNL     1      47.644  10.674  12.012  0.00  0.00    +0.000 A 
ATOM      9  F   UNL     1      47.008  11.334  11.034  0.00  0.00    +0.000 F 
ATOM     10  C   UNL     1      47.559   9.291  12.020  0.00  0.00    +0.000 A 
ATOM     11  C   UNL     1      48.252   8.645  13.046  0.00  0.00    +0.000 A 
ENDBRANCH   1   2
BRANCH   1  15
ATOM     12  C   UNL     1      44.979   3.686  11.706  0.00  0.00    +0.000 C 
ATOM     13  C   UNL     1      45.136   5.094  11.100  0.00  0.00    +0.000 C 
ATOM     14  C   UNL     1      45.170   6.216  12.141  0.00  0.00    +0.000 C 
ATOM     15  C   UNL     1      46.222   6.003  13.241  0.00  0.00    +0.000 C 
ATOM     16  C   UNL     1      46.022   4.610  13.868  0.00  0.00    +0.000 C 
ATOM     17  C   UNL     1      45.999   3.477  12.839  0.00  0.00    +0.000 C 
BRANCH  12  18
ATOM     18  C   UNL     1      43.548   3.367  12.188  0.00  0.00    +0.000 C 
BRANCH  18  19
ATOM     19  N   UNL     1      43.052   2.097  11.651  0.00  0.00    +0.000 NA
ATOM     20  H   UNL     1      43.557   1.875  10.795  0.00  0.00    +0.000 HD
ATOM     21  H   UNL     1      42.075   2.200  11.376  0.00  0.00    +0.000 HD
ENDBRANCH  18  19
ENDBRANCH  12  18
ENDBRANCH   1  15
TORSDOF 4
ENDMDL
