MODEL 1
REMARK VINA RESULT:    -7.930      0.000      0.000
REMARK INTER + INTRA:          -9.654
REMARK INTER:                  -9.320
REMARK INTRA:                  -0.334
REMARK UNBOUND:                -0.334
REMARK  Name = 
REMARK  3 active torsions:
REMARK  status: ('A' for Active; 'I' for Inactive)
REMARK    1  A    between atoms: C_2  and  C_4
REMARK    2  A    between atoms: N_8  and  C_9
REMARK    3  A    between atoms: C_9  and  C_10
REMARK                            x       y       z     vdW  Elec       q    Type
REMARK                         _______ _______ _______ _____ _____    ______ ____
ROOT
ATOM      1  C   UNL     1      46.455   2.689   7.527  0.00  0.00    +0.000 A 
ATOM      2  C   UNL     1      45.902   1.768   8.380  0.00  0.00    +0.000 A 
ATOM      3  N   UNL     1      45.057   2.096   9.381  0.00  0.00    +0.000 NA
ATOM      4  C   UNL     1      44.786   3.402   9.553  0.00  0.00    +0.000 A 
ATOM      5  N   UNL     1      43.800   3.676  10.502  0.00  0.00    +0.000 N 
ATOM      6  N   UNL     1      45.346   4.379   8.823  0.00  0.00    +0.000 NA
ATOM      7  C   UNL     1      46.171   4.001   7.819  0.00  0.00    +0.000 A 
ATOM      8  H   UNL     1      43.657   2.801  10.996  0.00  0.00    +0.000 HD
ENDROOT
BRANCH   1  10
ATOM      9  N   UNL     1      47.304   3.209   5.315  0.00  0.00    +0.000 N 
ATOM     10  C   UNL     1      47.279   2.333   6.366  0.00  0.00    +0.000 C 
ATOM     11  O   UNL     1      47.958   1.314   6.357  0.00  0.00    +0.000 OA
ATOM     12  H   UNL     1      47.976   3.010   4.582  0.00  0.00    +0.000 HD
ATOM     13  H   UNL     1      46.975   4.162   5.375  0.00  0.00    +0.000 HD
ENDBRANCH   1  10
BRANCH   5  14
ATOM     14  C   UNL     1      43.843   4.895  11.324  0.00  0.00    +0.000 C 
ATOM     15  C   UNL     1      42.520   5.286  11.972  0.00  0.00    +0.000 C 
ATOM     16  C   UNL     1      43.122   6.165  10.924  0.00  0.00    +0.000 C 
BRANCH  14  17
ATOM     17  C   UNL     1      45.112   4.998  12.152  0.00  0.00    +0.000 A 
ATOM     18  C   UNL     1      46.012   6.065  12.014  0.00  0.00    +0.000 A 
ATOM     19  C   UNL     1      47.112   6.185  12.859  0.00  0.00    +0.000 A 
ATOM     20  C   UNL     1      47.295   5.224  13.837  0.00  0.00    +0.000 A 
ATOM     21  N   UNL     1      46.474   4.168  14.005  0.00  0.00    +0.000 NA
ATOM     22  C   UNL     1      45.411   4.084  13.165  0.00  0.00    +0.000 A 
ENDBRANCH  14  17
ENDBRANCH   5  14
TORSDOF 3
ENDMDL
MODEL 2
REMARK VINA RESULT:    -6.281      3.207      6.097
REMARK INTER + INTRA:          -7.716
REMARK INTER:                  -7.530
REMARK INTRA:                  -0.187
REMARK UNBOUND:                -0.334
REMARK  Name = 
REMARK  3 active torsions:
REMARK  status: ('A' for Active; 'I' for Inactive)
REMARK    1  A    between atoms: C_2  and  C_4
REMARK    2  A    between atoms: N_8  and  C_9
REMARK    3  A    between atoms: C_9  and  C_10
REMARK                            x       y       z     vdW  Elec       q    Type
REMARK                         _______ _______ _______ _____ _____    ______ ____
ROOT
ATOM      1  C   UNL     1      48.389   6.745  13.584  0.00  0.00    +0.000 A 
ATOM      2  C   UNL     1      48.058   7.499  12.486  0.00  0.00    +0.000 A 
ATOM      3  N   UNL     1      46.908   7.343  11.796  0.00  0.00    +0.000 NA
ATOM      4  C   UNL     1      46.076   6.368  12.203  0.00  0.00    +0.000 A 
ATOM      5  N   UNL     1      44.841   6.342  11.553  0.00  0.00    +0.000 N 
ATOM      6  N   UNL     1      46.354   5.526  13.211  0.00  0.00    +0.000 NA
ATOM      7  C   UNL     1      47.509   5.734  13.885  0.00  0.00    +0.000 A 
ATOM      8  H   UNL     1      44.946   6.967  10.760  0.00  0.00    +0.000 HD
ENDROOT
BRANCH   1  10
ATOM      9  N   UNL     1      50.572   7.760  13.876  0.00  0.00    +0.000 N 
ATOM     10  C   UNL     1      49.578   6.985  14.409  0.00  0.00    +0.000 C 
ATOM     11  O   UNL     1      49.658   6.550  15.550  0.00  0.00    +0.000 OA
ATOM     12  H   UNL     1      51.324   8.020  14.505  0.00  0.00    +0.000 HD
ATOM     13  H   UNL     1      50.449   8.341  13.060  0.00  0.00    +0.000 HD
ENDBRANCH   1  10
BRANCH   5  14
ATOM     14  C   UNL     1      44.131   5.077  11.303  0.00  0.00    +0.000 C 
ATOM     15  C   UNL     1      42.612   5.159  11.391  0.00  0.00    +0.000 C 
ATOM     16  C   UNL     1      43.370   4.350  12.391  0.00  0.00    +0.000 C 
BRANCH  14  17
ATOM     17  C   UNL     1      44.748   4.274  10.172  0.00  0.00    +0.000 A 
ATOM     18  C   UNL     1      44.626   2.879  10.091  0.00  0.00    +0.000 A 
ATOM     19  C   UNL     1      45.113   2.182   8.987  0.00  0.00    +0.000 A 
ATOM     20  C   UNL     1      45.721   2.902   7.975  0.00  0.00    +0.000 A 
ATOM     21  N   UNL     1      45.883   4.240   8.006  0.00  0.00    +0.000 NA
ATOM     22  C   UNL     1      45.394   4.886   9.096  0.00  0.00    +0.000 A 
ENDBRANCH  14  17
ENDBRANCH   5  14
TORSDOF 3
ENDMDL
MODEL 3
REMARK VINA RESULT:    -5.382      2.992      6.216
REMARK INTER + INTRA:          -6.660
REMARK INTER:                  -6.420
REMARK INTRA:                  -0.240
REMARK UNBOUND:                -0.334
REMARK  Name = 
REMARK  3 active torsions:
REMARK  status: ('A' for Active; 'I' for Inactive)
REMARK    1  A    between atoms: C_2  and  C_4
REMARK    2  A    between atoms: N_8  and  C_9
REMARK    3  A    between atoms: C_9  and  C_10
REMARK                            x       y       z     vdW  Elec       q    Type
REMARK                         _______ _______ _______ _____ _____    ______ ____
ROOT
ATOM      1  C   UNL     1      47.264   4.404  15.167  0.00  0.00    +0.000 A 
ATOM      2  C   UNL     1      47.859   5.159  14.189  0.00  0.00    +0.000 A 
ATOM      3  N   UNL     1      47.194   5.648  13.120  0.00  0.00    +0.000 NA
ATOM      4  C   UNL     1      45.890   5.335  13.013  0.00  0.00    +0.000 A 
ATOM      5  N   UNL     1      45.216   5.981  11.975  0.00  0.00    +0.000 N 
ATOM      6  N   UNL     1      45.245   4.534  13.874  0.00  0.00    +0.000 NA
ATOM      7  C   UNL     1      45.947   4.084  14.940  0.00  0.00    +0.000 A 
ATOM      8  H   UNL     1      45.945   6.398  11.404  0.00  0.00    +0.000 HD
ENDROOT
BRANCH   1  10
ATOM      9  N   UNL     1      47.289   3.092  17.207  0.00  0.00    +0.000 N 
ATOM     10  C   UNL     1      47.949   3.968  16.390  0.00  0.00    +0.000 C 
ATOM     11  O   UNL     1      49.088   4.336  16.646  0.00  0.00    +0.000 OA
ATOM     12  H   UNL     1      47.825   2.704  17.975  0.00  0.00    +0.000 HD
ATOM     13  H   UNL     1      46.473   2.570  16.922  0.00  0.00    +0.000 HD
ENDBRANCH   1  10
BRANCH   5  14
ATOM     14  C   UNL     1      44.111   5.330  11.255  0.00  0.00    +0.000 C 
ATOM     15  C   UNL     1      42.916   6.228  10.953  0.00  0.00    +0.000 C 
ATOM     16  C   UNL     1      42.763   5.081  11.898  0.00  0.00    +0.000 C 
BRANCH  14  17
ATOM     17  C   UNL     1      44.595   4.383  10.171  0.00  0.00    +0.000 A 
ATOM     18  C   UNL     1      45.434   4.804   9.129  0.00  0.00    +0.000 A 
ATOM     19  C   UNL     1      45.945   3.890   8.210  0.00  0.00    +0.000 A 
ATOM     20  C   UNL     1      45.602   2.559   8.351  0.00  0.00    +0.000 A 
ATOM     21  N   UNL     1      44.786   2.098   9.321  0.00  0.00    +0.000 NA
ATOM     22  C   UNL     1      44.309   3.016  10.200  0.00  0.00    +0.000 A 
ENDBRANCH  14  17
ENDBRANCH   5  14
TORSDOF 3
ENDMDL
MODEL 4
REMARK VINA RESULT:    -5.382      2.482      3.467
REMARK INTER + INTRA:          -6.659
REMARK INTER:                  -6.334
REMARK INTRA:                  -0.326
REMARK UNBOUND:                -0.334
REMARK  Name = 
REMARK  3 active torsions:
REMARK  status: ('A' for Active; 'I' for Inactive)
REMARK    1  A    between atoms: C_2  and  C_4
REMARK    2  A    between atoms: N_8  and  C_9
REMARK    3  A    between atoms: C_9  and  C_10
REMARK                            x       y       z     vdW  Elec       q    Type
REMARK                         _______ _______ _______ _____ _____    ______ ____
ROOT
ATOM      1  C   UNL     1      45.030   3.309  10.046  0.00  0.00    +0.000 A 
ATOM      2  C   UNL     1      44.857   3.232  11.405  0.00  0.00    +0.000 A 
ATOM      3  N   UNL     1      44.841   4.313  12.214  0.00  0.00    +0.000 NA
ATOM      4  C   UNL     1      45.042   5.512  11.640  0.00  0.00    +0.000 A 
ATOM      5  N   UNL     1      44.871   6.605  12.491  0.00  0.00    +0.000 N 
ATOM      6  N   UNL     1      45.304   5.677  10.335  0.00  0.00    +0.000 NA
ATOM      7  C   UNL     1      45.291   4.567   9.560  0.00  0.00    +0.000 A 
ATOM      8  H   UNL     1      44.827   6.210  13.425  0.00  0.00    +0.000 HD
ENDROOT
BRANCH   1  10
ATOM      9  N   UNL     1      46.013   1.876   8.354  0.00  0.00    +0.000 N 
ATOM     10  C   UNL     1      44.932   2.154   9.146  0.00  0.00    +0.000 C 
ATOM     11  O   UNL     1      43.941   1.436   9.138  0.00  0.00    +0.000 OA
ATOM     12  H   UNL     1      45.978   1.005   7.836  0.00  0.00    +0.000 HD
ATOM     13  H   UNL     1      46.930   2.272   8.502  0.00  0.00    +0.000 HD
ENDBRANCH   1  10
BRANCH   5  14
ATOM     14  C   UNL     1      45.667   7.832  12.335  0.00  0.00    +0.000 C 
ATOM     15  C   UNL     1      45.026   9.096  12.895  0.00  0.00    +0.000 C 
ATOM     16  C   UNL     1      45.239   8.962  11.423  0.00  0.00    +0.000 C 
BRANCH  14  17
ATOM     17  C   UNL     1      47.149   7.603  12.579  0.00  0.00    +0.000 A 
ATOM     18  C   UNL     1      48.138   8.157  11.753  0.00  0.00    +0.000 A 
ATOM     19  C   UNL     1      49.489   8.015  12.063  0.00  0.00    +0.000 A 
ATOM     20  C   UNL     1      49.828   7.313  13.205  0.00  0.00    +0.000 A 
ATOM     21  N   UNL     1      48.923   6.744  14.026  0.00  0.00    +0.000 NA
ATOM     22  C   UNL     1      47.616   6.904  13.694  0.00  0.00    +0.000 A 
ENDBRANCH  14  17
ENDBRANCH   5  14
TORSDOF 3
ENDMDL
MODEL 5
REMARK VINA RESULT:    -5.355      4.998      7.479
REMARK INTER + INTRA:          -6.627
REMARK INTER:                  -7.203
REMARK INTRA:                   0.575
REMARK UNBOUND:                -0.334
REMARK  Name = 
REMARK  3 active torsions:
REMARK  status: ('A' for Active; 'I' for Inactive)
REMARK    1  A    between atoms: C_2  and  C_4
REMARK    2  A    between atoms: N_8  and  C_9
REMARK    3  A    between atoms: C_9  and  C_10
REMARK                            x       y       z     vdW  Elec       q    Type
REMARK                         _______ _______ _______ _____ _____    ______ ____
ROOT
ATOM      1  C   UNL     1      48.526   4.227  17.255  0.00  0.00    +0.000 A 
ATOM      2  C   UNL     1      47.855   3.258  16.553  0.00  0.00    +0.000 A 
ATOM      3  N   UNL     1      47.358   3.449  15.313  0.00  0.00    +0.000 NA
ATOM      4  C   UNL     1      47.511   4.670  14.771  0.00  0.00    +0.000 A 
ATOM      5  N   UNL     1      47.112   4.775  13.438  0.00  0.00    +0.000 N 
ATOM      6  N   UNL     1      48.077   5.703  15.415  0.00  0.00    +0.000 NA
ATOM      7  C   UNL     1      48.578   5.458  16.649  0.00  0.00    +0.000 A 
ATOM      8  H   UNL     1      46.599   3.920  13.247  0.00  0.00    +0.000 HD
ENDROOT
BRANCH   1  10
ATOM      9  N   UNL     1      50.493   3.641  18.548  0.00  0.00    +0.000 N 
ATOM     10  C   UNL     1      49.171   3.994  18.553  0.00  0.00    +0.000 C 
ATOM     11  O   UNL     1      48.564   4.156  19.603  0.00  0.00    +0.000 OA
ATOM     12  H   UNL     1      50.953   3.611  19.452  0.00  0.00    +0.000 HD
ATOM     13  H   UNL     1      51.095   3.741  17.743  0.00  0.00    +0.000 HD
ENDBRANCH   1  10
BRANCH   5  14
ATOM     14  C   UNL     1      46.538   6.019  12.903  0.00  0.00    +0.000 C 
ATOM     15  C   UNL     1      47.440   6.789  11.945  0.00  0.00    +0.000 C 
ATOM     16  C   UNL     1      47.084   7.384  13.269  0.00  0.00    +0.000 C 
BRANCH  14  17
ATOM     17  C   UNL     1      45.065   5.884  12.559  0.00  0.00    +0.000 A 
ATOM     18  C   UNL     1      44.448   6.681  11.585  0.00  0.00    +0.000 A 
ATOM     19  C   UNL     1      43.122   6.463  11.218  0.00  0.00    +0.000 A 
ATOM     20  C   UNL     1      42.431   5.440  11.841  0.00  0.00    +0.000 A 
ATOM     21  N   UNL     1      42.966   4.653  12.796  0.00  0.00    +0.000 NA
ATOM     22  C   UNL     1      44.261   4.894  13.127  0.00  0.00    +0.000 A 
ENDBRANCH  14  17
ENDBRANCH   5  14
TORSDOF 3
ENDMDL
MODEL 6
REMARK VINA RESULT:    -5.320      3.204      5.165
REMARK INTER + INTRA:          -6.587
REMARK INTER:                  -6.910
REMARK INTRA:                   0.323
REMARK UNBOUND:                -0.334
REMARK  Name = 
REMARK  3 active torsions:
REMARK  status: ('A' for Active; 'I' for Inactive)
REMARK    1  A    between atoms: C_2  and  C_4
REMARK    2  A    between atoms: N_8  and  C_9
REMARK    3  A    between atoms: C_9  and  C_10
REMARK                            x       y       z     vdW  Elec       q    Type
REMARK                         _______ _______ _______ _____ _____    ______ ____
ROOT
ATOM      1  C   UNL     1      44.847   4.879  11.075  0.00  0.00    +0.000 A 
ATOM      2  C   UNL     1      44.738   4.811  12.441  0.00  0.00    +0.000 A 
ATOM      3  N   UNL     1      45.368   5.661  13.280  0.00  0.00    +0.000 NA
ATOM      4  C   UNL     1      46.166   6.592  12.726  0.00  0.00    +0.000 A 
ATOM      5  N   UNL     1      46.676   7.533  13.621  0.00  0.00    +0.000 N 
ATOM      6  N   UNL     1      46.401   6.680  11.408  0.00  0.00    +0.000 NA
ATOM      7  C   UNL     1      45.732   5.820  10.605  0.00  0.00    +0.000 A 
ATOM      8  H   UNL     1      46.474   7.160  14.543  0.00  0.00    +0.000 HD
ENDROOT
BRANCH   1  10
ATOM      9  N   UNL     1      44.092   4.373   8.826  0.00  0.00    +0.000 N 
ATOM     10  C   UNL     1      44.077   4.037  10.153  0.00  0.00    +0.000 C 
ATOM     11  O   UNL     1      43.482   3.043  10.546  0.00  0.00    +0.000 OA
ATOM     12  H   UNL     1      43.663   3.710   8.191  0.00  0.00    +0.000 HD
ATOM     13  H   UNL     1      44.758   5.015   8.421  0.00  0.00    +0.000 HD
ENDBRANCH   1  10
BRANCH   5  14
ATOM     14  C   UNL     1      48.008   8.130  13.432  0.00  0.00    +0.000 C 
ATOM     15  C   UNL     1      48.015   9.634  13.187  0.00  0.00    +0.000 C 
ATOM     16  C   UNL     1      48.455   8.704  12.104  0.00  0.00    +0.000 C 
BRANCH  14  17
ATOM     17  C   UNL     1      49.049   7.545  14.370  0.00  0.00    +0.000 A 
ATOM     18  C   UNL     1      50.377   7.995  14.388  0.00  0.00    +0.000 A 
ATOM     19  C   UNL     1      51.283   7.512  15.330  0.00  0.00    +0.000 A 
ATOM     20  C   UNL     1      50.837   6.576  16.245  0.00  0.00    +0.000 A 
ATOM     21  N   UNL     1      49.579   6.094  16.265  0.00  0.00    +0.000 NA
ATOM     22  C   UNL     1      48.724   6.588  15.334  0.00  0.00    +0.000 A 
ENDBRANCH  14  17
ENDBRANCH   5  14
TORSDOF 3
ENDMDL
MODEL 7
REMARK VINA RESULT:    -5.204      4.800      7.713
REMARK INTER + INTRA:          -6.450
REMARK INTER:                  -6.586
REMARK INTRA:                   0.136
REMARK UNBOUND:                -0.334
REMARK  Name = 
REMARK  3 active torsions:
REMARK  status: ('A' for Active; 'I' for Inactive)
REMARK    1  A    between atoms: C_2  and  C_4
REMARK    2  A    between atoms: N_8  and  C_9
REMARK    3  A    between atoms: C_9  and  C_10
REMARK                            x       y       z     vdW  Elec       q    Type
REMARK                         _______ _______ _______ _____ _____    ______ ____
ROOT
ATOM      1  C   UNL     1      47.006   5.377  13.519  0.00  0.00    +0.000 A 
ATOM      2  C   UNL     1      46.789   4.108  13.994  0.00  0.00    +0.000 A 
ATOM      3  N   UNL     1      47.247   3.672  15.187  0.00  0.00    +0.000 NA
ATOM      4  C   UNL     1      47.981   4.533  15.914  0.00  0.00    +0.000 A 
ATOM      5  N   UNL     1      48.307   4.088  17.196  0.00  0.00    +0.000 N 
ATOM      6  N   UNL     1      48.317   5.763  15.494  0.00  0.00    +0.000 NA
ATOM      7  C   UNL     1      47.818   6.163  14.300  0.00  0.00    +0.000 A 
ATOM      8  H   UNL     1      48.069   3.102  17.203  0.00  0.00    +0.000 HD
ENDROOT
BRANCH   1  10
ATOM      9  N   UNL     1      47.151   6.792  11.555  0.00  0.00    +0.000 N 
ATOM     10  C   UNL     1      46.414   5.896  12.280  0.00  0.00    +0.000 C 
ATOM     11  O   UNL     1      45.324   5.505  11.884  0.00  0.00    +0.000 OA
ATOM     12  H   UNL     1      46.784   7.039  10.642  0.00  0.00    +0.000 HD
ATOM     13  H   UNL     1      48.138   6.949  11.699  0.00  0.00    +0.000 HD
ENDBRANCH   1  10
BRANCH   5  14
ATOM     14  C   UNL     1      49.575   4.463  17.840  0.00  0.00    +0.000 C 
ATOM     15  C   UNL     1      49.437   5.158  19.189  0.00  0.00    +0.000 C 
ATOM     16  C   UNL     1      49.994   5.906  18.023  0.00  0.00    +0.000 C 
BRANCH  14  17
ATOM     17  C   UNL     1      50.648   3.399  17.682  0.00  0.00    +0.000 A 
ATOM     18  C   UNL     1      51.988   3.630  18.025  0.00  0.00    +0.000 A 
ATOM     19  C   UNL     1      52.928   2.604  17.967  0.00  0.00    +0.000 A 
ATOM     20  C   UNL     1      52.504   1.352  17.559  0.00  0.00    +0.000 A 
ATOM     21  N   UNL     1      51.235   1.075  17.199  0.00  0.00    +0.000 NA
ATOM     22  C   UNL     1      50.346   2.099  17.271  0.00  0.00    +0.000 A 
ENDBRANCH  14  17
ENDBRANCH   5  14
TORSDOF 3
ENDMDL
MODEL 8
REMARK VINA RESULT:    -4.979      4.433      7.394
REMARK INTER + INTRA:          -6.186
REMARK INTER:                  -5.834
REMARK INTRA:                  -0.352
REMARK UNBOUND:                -0.334
REMARK  Name = 
REMARK  3 active torsions:
REMARK  status: ('A' for Active; 'I' for Inactive)
REMARK    1  A    between atoms: C_2  and  C_4
REMARK    2  A    between atoms: N_8  and  C_9
REMARK    3  A    between atoms: C_9  and  C_10
REMARK                            x       y       z     vdW  Elec       q    Type
REMARK                         _______ _______ _______ _____ _____    ______ ____
ROOT
ATOM      1  C   UNL     1      46.085   4.991  13.462  0.00  0.00    +0.000 A 
ATOM      2  C   UNL     1      46.404   6.253  13.029  0.00  0.00    +0.000 A 
ATOM      3  N   UNL     1      47.448   6.962  13.510  0.00  0.00    +0.000 NA
ATOM      4  C   UNL     1      48.176   6.395  14.489  0.00  0.00    +0.000 A 
ATOM      5  N   UNL     1      49.324   7.101  14.849  0.00  0.00    +0.000 N 
ATOM      6  N   UNL     1      47.888   5.203  15.034  0.00  0.00    +0.000 NA
ATOM      7  C   UNL     1      46.844   4.521  14.506  0.00  0.00    +0.000 A 
ATOM      8  H   UNL     1      49.227   8.009  14.405  0.00  0.00    +0.000 HD
ENDROOT
BRANCH   1  10
ATOM      9  N   UNL     1      45.336   2.872  12.551  0.00  0.00    +0.000 N 
ATOM     10  C   UNL     1      45.027   4.167  12.865  0.00  0.00    +0.000 C 
ATOM     11  O   UNL     1      43.897   4.607  12.698  0.00  0.00    +0.000 OA
ATOM     12  H   UNL     1      44.562   2.284  12.261  0.00  0.00    +0.000 HD
ATOM     13  H   UNL     1      46.156   2.394  12.896  0.00  0.00    +0.000 HD
ENDBRANCH   1  10
BRANCH   5  14
ATOM     14  C   UNL     1      49.827   7.096  16.232  0.00  0.00    +0.000 C 
ATOM     15  C   UNL     1      51.322   7.353  16.378  0.00  0.00    +0.000 C 
ATOM     16  C   UNL     1      50.759   6.021  16.749  0.00  0.00    +0.000 C 
BRANCH  14  17
ATOM     17  C   UNL     1      48.878   7.778  17.202  0.00  0.00    +0.000 A 
ATOM     18  C   UNL     1      48.376   7.128  18.339  0.00  0.00    +0.000 A 
ATOM     19  C   UNL     1      47.591   7.812  19.265  0.00  0.00    +0.000 A 
ATOM     20  C   UNL     1      47.318   9.148  19.030  0.00  0.00    +0.000 A 
ATOM     21  N   UNL     1      47.757   9.819  17.947  0.00  0.00    +0.000 NA
ATOM     22  C   UNL     1      48.521   9.121  17.068  0.00  0.00    +0.000 A 
ENDBRANCH  14  17
ENDBRANCH   5  14
TORSDOF 3
ENDMDL
MODEL 9
REMARK VINA RESULT:    -4.947      3.499      6.049
REMARK INTER + INTRA:          -6.148
REMARK INTER:                  -6.855
REMARK INTRA:                   0.707
REMARK UNBOUND:                -0.334
REMARK  Name = 
REMARK  3 active torsions:
REMARK  status: ('A' for Active; 'I' for Inactive)
REMARK    1  A    between atoms: C_2  and  C_4
REMARK    2  A    between atoms: N_8  and  C_9
REMARK    3  A    between atoms: C_9  and  C_10
REMARK                            x       y       z     vdW  Elec       q    Type
REMARK                         _______ _______ _______ _____ _____    ______ ____
ROOT
ATOM      1  C   UNL     1      49.525   7.774  12.710  0.00  0.00    +0.000 A 
ATOM      2  C   UNL     1      49.227   6.999  13.802  0.00  0.00    +0.000 A 
ATOM      3  N   UNL     1      48.181   6.147  13.846  0.00  0.00    +0.000 NA
ATOM      4  C   UNL     1      47.383   6.099  12.764  0.00  0.00    +0.000 A 
ATOM      5  N   UNL     1      46.406   5.103  12.801  0.00  0.00    +0.000 N 
ATOM      6  N   UNL     1      47.545   6.880  11.686  0.00  0.00    +0.000 NA
ATOM      7  C   UNL     1      48.619   7.704  11.679  0.00  0.00    +0.000 A 
ATOM      8  H   UNL     1      46.405   4.766  13.759  0.00  0.00    +0.000 HD
ENDROOT
BRANCH   1  10
ATOM      9  N   UNL     1      51.881   8.133  13.160  0.00  0.00    +0.000 N 
ATOM     10  C   UNL     1      50.724   8.613  12.608  0.00  0.00    +0.000 C 
ATOM     11  O   UNL     1      50.704   9.681  12.009  0.00  0.00    +0.000 OA
ATOM     12  H   UNL     1      52.723   8.664  12.969  0.00  0.00    +0.000 HD
ATOM     13  H   UNL     1      52.011   7.170  13.433  0.00  0.00    +0.000 HD
ENDBRANCH   1  10
BRANCH   5  14
ATOM     14  C   UNL     1      45.090   5.294  12.171  0.00  0.00    +0.000 C 
ATOM     15  C   UNL     1      44.528   6.707  12.261  0.00  0.00    +0.000 C 
ATOM     16  C   UNL     1      43.843   5.589  12.977  0.00  0.00    +0.000 C 
BRANCH  14  17
ATOM     17  C   UNL     1      44.957   4.545  10.856  0.00  0.00    +0.000 A 
ATOM     18  C   UNL     1      45.484   5.042   9.655  0.00  0.00    +0.000 A 
ATOM     19  C   UNL     1      45.437   4.285   8.487  0.00  0.00    +0.000 A 
ATOM     20  C   UNL     1      44.855   3.032   8.543  0.00  0.00    +0.000 A 
ATOM     21  N   UNL     1      44.317   2.509   9.663  0.00  0.00    +0.000 NA
ATOM     22  C   UNL     1      44.383   3.275  10.782  0.00  0.00    +0.000 A 
ENDBRANCH  14  17
ENDBRANCH   5  14
TORSDOF 3
ENDMDL
