MODEL 1
REMARK VINA RESULT:    -7.515      0.000      0.000
REMARK INTER + INTRA:         -10.928
REMARK INTER:                 -10.151
REMARK INTRA:                  -0.777
REMARK UNBOUND:                -0.777
REMARK  Name = 
REMARK  6 active torsions:
REMARK  status: ('A' for Active; 'I' for Inactive)
REMARK    1  A    between atoms: C_2  and  C_19
REMARK    2  A    between atoms: N_3  and  C_4
REMARK    3  A    between atoms: C_4  and  C_5
REMARK    4  A    between atoms: N_8  and  C_9
REMARK    5  A    between atoms: C_9  and  C_10
REMARK    6  A    between atoms: C_10  and  N_11
REMARK                            x       y       z     vdW  Elec       q    Type
REMARK                         _______ _______ _______ _____ _____    ______ ____
ROOT
ATOM      1  O   UNL     1      46.537   3.522  16.469  0.00  0.00    +0.000 OA
ATOM      2  C   UNL     1      47.453   4.225  16.019  0.00  0.00    +0.000 C 
ATOM      3  N   UNL     1      47.481   4.659  14.722  0.00  0.00    +0.000 N 
ATOM      4  H   UNL     1      48.348   5.055  14.356  0.00  0.00    +0.000 HD
ENDROOT
BRANCH   2   5
ATOM      5  C   UNL     1      48.540   4.685  16.873  0.00  0.00    +0.000 A 
ATOM      6  C   UNL     1      48.569   5.953  17.428  0.00  0.00    +0.000 A 
ATOM      7  S   UNL     1      49.966   6.228  18.383  0.00  0.00    +0.000 S 
ATOM      8  C   UNL     1      50.546   4.658  18.094  0.00  0.00    +0.000 A 
ATOM      9  N   UNL     1      51.715   4.216  18.628  0.00  0.00    +0.000 NA
ATOM     10  C   UNL     1      52.003   2.985  18.348  0.00  0.00    +0.000 A 
ATOM     11  N   UNL     1      51.223   2.149  17.595  0.00  0.00    +0.000 N 
ATOM     12  C   UNL     1      50.085   2.561  16.977  0.00  0.00    +0.000 A 
ATOM     13  O   UNL     1      49.485   1.818  16.195  0.00  0.00    +0.000 OA
ATOM     14  C   UNL     1      49.703   3.931  17.285  0.00  0.00    +0.000 A 
ATOM     15  H   UNL     1      51.518   1.212  17.381  0.00  0.00    +0.000 HD
ENDBRANCH   2   5
BRANCH   3  16
ATOM     16  C   UNL     1      46.502   4.231  13.755  0.00  0.00    +0.000 C 
BRANCH  16  17
ATOM     17  C   UNL     1      45.390   5.272  13.563  0.00  0.00    +0.000 C 
ATOM     18  C   UNL     1      44.057   4.621  13.170  0.00  0.00    +0.000 C 
ATOM     19  C   UNL     1      44.057   4.108  11.739  0.00  0.00    +0.000 C 
ATOM     20  N   UNL     1      44.372   5.190  10.801  0.00  0.00    +0.000 NA
ATOM     21  C   UNL     1      45.717   5.734  11.077  0.00  0.00    +0.000 C 
ATOM     22  C   UNL     1      45.786   6.301  12.497  0.00  0.00    +0.000 C 
BRANCH  20  23
ATOM     23  C   UNL     1      44.311   4.673   9.427  0.00  0.00    +0.000 C 
BRANCH  23  24
ATOM     24  C   UNL     1      45.681   4.503   8.702  0.00  0.00    +0.000 C 
BRANCH  24  25
ATOM     25  N   UNL     1      45.470   3.673   7.503  0.00  0.00    +0.000 NA
ATOM     26  C   UNL     1      45.030   2.309   7.846  0.00  0.00    +0.000 C 
ATOM     27  C   UNL     1      46.159   1.361   8.255  0.00  0.00    +0.000 C 
ATOM     28  O   UNL     1      47.133   1.272   7.216  0.00  0.00    +0.000 OA
ATOM     29  C   UNL     1      47.705   2.563   6.973  0.00  0.00    +0.000 C 
ATOM     30  C   UNL     1      46.636   3.607   6.601  0.00  0.00    +0.000 C 
ENDBRANCH  24  25
ENDBRANCH  23  24
ENDBRANCH  20  23
ENDBRANCH  16  17
ENDBRANCH   3  16
TORSDOF 6
ENDMDL
MODEL 2
REMARK VINA RESULT:    -7.403      1.808      2.378
REMARK INTER + INTRA:         -10.777
REMARK INTER:                  -9.854
REMARK INTRA:                  -0.922
REMARK UNBOUND:                -0.777
REMARK  Name = 
REMARK  6 active torsions:
REMARK  status: ('A' for Active; 'I' for Inactive)
REMARK    1  A    between atoms: C_2  and  C_19
REMARK    2  A    between atoms: N_3  and  C_4
REMARK    3  A    between atoms: C_4  and  C_5
REMARK    4  A    between atoms: N_8  and  C_9
REMARK    5  A    between atoms: C_9  and  C_10
REMARK    6  A    between atoms: C_10  and  N_11
REMARK                            x       y       z     vdW  Elec       q    Type
REMARK                         _______ _______ _______ _____ _____    ______ ____
ROOT
ATOM      1  O   UNL     1      48.763   6.272  13.212  0.00  0.00    +0.000 OA
ATOM      2  C   UNL     1      47.942   6.163  14.132  0.00  0.00    +0.000 C 
ATOM      3  N   UNL     1      46.603   5.988  13.909  0.00  0.00    +0.000 N 
ATOM      4  H   UNL     1      45.956   6.109  14.689  0.00  0.00    +0.000 HD
ENDROOT
BRANCH   2   5
ATOM      5  C   UNL     1      48.365   6.157  15.526  0.00  0.00    +0.000 A 
ATOM      6  C   UNL     1      48.905   7.269  16.149  0.00  0.00    +0.000 A 
ATOM      7  S   UNL     1      49.319   6.978  17.787  0.00  0.00    +0.000 S 
ATOM      8  C   UNL     1      48.765   5.375  17.704  0.00  0.00    +0.000 A 
ATOM      9  N   UNL     1      48.816   4.542  18.777  0.00  0.00    +0.000 NA
ATOM     10  C   UNL     1      48.321   3.365  18.568  0.00  0.00    +0.000 A 
ATOM     11  N   UNL     1      47.765   2.945  17.390  0.00  0.00    +0.000 N 
ATOM     12  C   UNL     1      47.756   3.710  16.267  0.00  0.00    +0.000 A 
ATOM     13  O   UNL     1      47.373   3.246  15.189  0.00  0.00    +0.000 OA
ATOM     14  C   UNL     1      48.276   5.055  16.459  0.00  0.00    +0.000 A 
ATOM     15  H   UNL     1      47.430   2.004  17.277  0.00  0.00    +0.000 HD
ENDBRANCH   2   5
BRANCH   3  16
ATOM     16  C   UNL     1      46.040   6.034  12.583  0.00  0.00    +0.000 C 
BRANCH  16  17
ATOM     17  C   UNL     1      44.541   5.705  12.584  0.00  0.00    +0.000 C 
ATOM     18  C   UNL     1      44.269   4.263  13.031  0.00  0.00    +0.000 C 
ATOM     19  C   UNL     1      44.666   3.240  11.979  0.00  0.00    +0.000 C 
ATOM     20  N   UNL     1      43.972   3.502  10.714  0.00  0.00    +0.000 NA
ATOM     21  C   UNL     1      44.334   4.836  10.195  0.00  0.00    +0.000 C 
ATOM     22  C   UNL     1      43.935   5.927  11.192  0.00  0.00    +0.000 C 
BRANCH  20  23
ATOM     23  C   UNL     1      44.336   2.467   9.738  0.00  0.00    +0.000 C 
BRANCH  23  24
ATOM     24  C   UNL     1      44.784   2.980   8.336  0.00  0.00    +0.000 C 
BRANCH  24  25
ATOM     25  N   UNL     1      46.254   2.898   8.261  0.00  0.00    +0.000 NA
ATOM     26  C   UNL     1      46.808   3.815   7.249  0.00  0.00    +0.000 C 
ATOM     27  C   UNL     1      46.745   3.290   5.813  0.00  0.00    +0.000 C 
ATOM     28  O   UNL     1      47.428   2.041   5.711  0.00  0.00    +0.000 OA
ATOM     29  C   UNL     1      46.804   1.074   6.564  0.00  0.00    +0.000 C 
ATOM     30  C   UNL     1      46.771   1.535   8.033  0.00  0.00    +0.000 C 
ENDBRANCH  24  25
ENDBRANCH  23  24
ENDBRANCH  20  23
ENDBRANCH  16  17
ENDBRANCH   3  16
TORSDOF 6
ENDMDL
MODEL 3
REMARK VINA RESULT:    -7.337      1.759      2.165
REMARK INTER + INTRA:         -10.688
REMARK INTER:                  -9.814
REMARK INTRA:                  -0.874
REMARK UNBOUND:                -0.777
REMARK  Name = 
REMARK  6 active torsions:
REMARK  status: ('A' for Active; 'I' for Inactive)
REMARK    1  A    between atoms: C_2  and  C_19
REMARK    2  A    between atoms: N_3  and  C_4
REMARK    3  A    between atoms: C_4  and  C_5
REMARK    4  A    between atoms: N_8  and  C_9
REMARK    5  A    between atoms: C_9  and  C_10
REMARK    6  A    between atoms: C_10  and  N_11
REMARK                            x       y       z     vdW  Elec       q    Type
REMARK                         _______ _______ _______ _____ _____    ______ ____
ROOT
ATOM      1  O   UNL     1      47.782   3.012  15.214  0.00  0.00    +0.000 OA
ATOM      2  C   UNL     1      47.567   4.177  15.575  0.00  0.00    +0.000 C 
ATOM      3  N   UNL     1      46.807   5.049  14.842  0.00  0.00    +0.000 N 
ATOM      4  H   UNL     1      46.834   6.042  15.080  0.00  0.00    +0.000 HD
ENDROOT
BRANCH   2   5
ATOM      5  C   UNL     1      48.068   4.678  16.847  0.00  0.00    +0.000 A 
ATOM      6  C   UNL     1      47.711   4.122  18.063  0.00  0.00    +0.000 A 
ATOM      7  S   UNL     1      48.444   4.912  19.397  0.00  0.00    +0.000 S 
ATOM      8  C   UNL     1      49.268   5.993  18.379  0.00  0.00    +0.000 A 
ATOM      9  N   UNL     1      50.096   6.952  18.872  0.00  0.00    +0.000 NA
ATOM     10  C   UNL     1      50.682   7.673  17.970  0.00  0.00    +0.000 A 
ATOM     11  N   UNL     1      50.528   7.515  16.619  0.00  0.00    +0.000 N 
ATOM     12  C   UNL     1      49.658   6.624  16.076  0.00  0.00    +0.000 A 
ATOM     13  O   UNL     1      49.445   6.609  14.860  0.00  0.00    +0.000 OA
ATOM     14  C   UNL     1      48.996   5.770  17.049  0.00  0.00    +0.000 A 
ATOM     15  H   UNL     1      50.982   8.131  15.967  0.00  0.00    +0.000 HD
ENDBRANCH   2   5
BRANCH   3  16
ATOM     16  C   UNL     1      46.300   4.705  13.538  0.00  0.00    +0.000 C 
BRANCH  16  17
ATOM     17  C   UNL     1      45.024   5.486  13.194  0.00  0.00    +0.000 C 
ATOM     18  C   UNL     1      43.857   4.553  12.844  0.00  0.00    +0.000 C 
ATOM     19  C   UNL     1      44.025   3.894  11.484  0.00  0.00    +0.000 C 
ATOM     20  N   UNL     1      44.178   4.905  10.433  0.00  0.00    +0.000 NA
ATOM     21  C   UNL     1      45.382   5.724  10.680  0.00  0.00    +0.000 C 
ATOM     22  C   UNL     1      45.273   6.448  12.025  0.00  0.00    +0.000 C 
BRANCH  20  23
ATOM     23  C   UNL     1      44.283   4.238   9.129  0.00  0.00    +0.000 C 
BRANCH  23  24
ATOM     24  C   UNL     1      45.679   4.308   8.439  0.00  0.00    +0.000 C 
BRANCH  24  25
ATOM     25  N   UNL     1      45.635   3.481   7.220  0.00  0.00    +0.000 NA
ATOM     26  C   UNL     1      45.320   2.072   7.520  0.00  0.00    +0.000 C 
ATOM     27  C   UNL     1      46.514   1.241   7.993  0.00  0.00    +0.000 C 
ATOM     28  O   UNL     1      47.557   1.272   7.019  0.00  0.00    +0.000 OA
ATOM     29  C   UNL     1      48.004   2.620   6.827  0.00  0.00    +0.000 C 
ATOM     30  C   UNL     1      46.857   3.552   6.396  0.00  0.00    +0.000 C 
ENDBRANCH  24  25
ENDBRANCH  23  24
ENDBRANCH  20  23
ENDBRANCH  16  17
ENDBRANCH   3  16
TORSDOF 6
ENDMDL
MODEL 4
REMARK VINA RESULT:    -7.170      3.386      9.139
REMARK INTER + INTRA:         -10.461
REMARK INTER:                  -9.493
REMARK INTRA:                  -0.969
REMARK UNBOUND:                -0.777
REMARK  Name = 
REMARK  6 active torsions:
REMARK  status: ('A' for Active; 'I' for Inactive)
REMARK    1  A    between atoms: C_2  and  C_19
REMARK    2  A    between atoms: N_3  and  C_4
REMARK    3  A    between atoms: C_4  and  C_5
REMARK    4  A    between atoms: N_8  and  C_9
REMARK    5  A    between atoms: C_9  and  C_10
REMARK    6  A    between atoms: C_10  and  N_11
REMARK                            x       y       z     vdW  Elec       q    Type
REMARK                         _______ _______ _______ _____ _____    ______ ____
ROOT
ATOM      1  O   UNL     1      48.482   6.207  13.119  0.00  0.00    +0.000 OA
ATOM      2  C   UNL     1      47.372   5.912  13.581  0.00  0.00    +0.000 C 
ATOM      3  N   UNL     1      47.190   5.546  14.888  0.00  0.00    +0.000 N 
ATOM      4  H   UNL     1      46.302   5.120  15.158  0.00  0.00    +0.000 HD
ENDROOT
BRANCH   2   5
ATOM      5  C   UNL     1      46.167   5.994  12.765  0.00  0.00    +0.000 A 
ATOM      6  C   UNL     1      45.680   7.191  12.270  0.00  0.00    +0.000 A 
ATOM      7  S   UNL     1      44.247   6.994  11.348  0.00  0.00    +0.000 S 
ATOM      8  C   UNL     1      44.264   5.311  11.573  0.00  0.00    +0.000 A 
ATOM      9  N   UNL     1      43.308   4.507  11.035  0.00  0.00    +0.000 NA
ATOM     10  C   UNL     1      43.479   3.244  11.261  0.00  0.00    +0.000 A 
ATOM     11  N   UNL     1      44.524   2.707  11.963  0.00  0.00    +0.000 N 
ATOM     12  C   UNL     1      45.462   3.468  12.583  0.00  0.00    +0.000 A 
ATOM     13  O   UNL     1      46.307   2.953  13.322  0.00  0.00    +0.000 OA
ATOM     14  C   UNL     1      45.331   4.895  12.335  0.00  0.00    +0.000 A 
ATOM     15  H   UNL     1      44.582   1.718  12.137  0.00  0.00    +0.000 HD
ENDBRANCH   2   5
BRANCH   3  16
ATOM     16  C   UNL     1      48.300   5.366  15.788  0.00  0.00    +0.000 C 
BRANCH  16  17
ATOM     17  C   UNL     1      47.900   4.576  17.043  0.00  0.00    +0.000 C 
ATOM     18  C   UNL     1      48.951   4.692  18.154  0.00  0.00    +0.000 C 
ATOM     19  C   UNL     1      50.213   3.900  17.849  0.00  0.00    +0.000 C 
ATOM     20  N   UNL     1      49.894   2.487  17.620  0.00  0.00    +0.000 NA
ATOM     21  C   UNL     1      48.991   2.346  16.459  0.00  0.00    +0.000 C 
ATOM     22  C   UNL     1      47.680   3.095  16.705  0.00  0.00    +0.000 C 
BRANCH  20  23
ATOM     23  C   UNL     1      51.138   1.743  17.382  0.00  0.00    +0.000 C 
BRANCH  23  24
ATOM     24  C   UNL     1      52.446   2.420  17.894  0.00  0.00    +0.000 C 
BRANCH  24  25
ATOM     25  N   UNL     1      53.271   1.393  18.555  0.00  0.00    +0.000 NA
ATOM     26  C   UNL     1      54.649   1.860  18.792  0.00  0.00    +0.000 C 
ATOM     27  C   UNL     1      55.571   1.761  17.575  0.00  0.00    +0.000 C 
ATOM     28  O   UNL     1      55.625   0.415  17.102  0.00  0.00    +0.000 OA
ATOM     29  C   UNL     1      54.319  -0.015  16.703  0.00  0.00    +0.000 C 
ATOM     30  C   UNL     1      53.299   0.096  17.852  0.00  0.00    +0.000 C 
ENDBRANCH  24  25
ENDBRANCH  23  24
ENDBRANCH  20  23
ENDBRANCH  16  17
ENDBRANCH   3  16
TORSDOF 6
ENDMDL
MODEL 5
REMARK VINA RESULT:    -6.972      3.307      8.587
REMARK INTER + INTRA:         -10.195
REMARK INTER:                  -9.309
REMARK INTRA:                  -0.886
REMARK UNBOUND:                -0.777
REMARK  Name = 
REMARK  6 active torsions:
REMARK  status: ('A' for Active; 'I' for Inactive)
REMARK    1  A    between atoms: C_2  and  C_19
REMARK    2  A    between atoms: N_3  and  C_4
REMARK    3  A    between atoms: C_4  and  C_5
REMARK    4  A    between atoms: N_8  and  C_9
REMARK    5  A    between atoms: C_9  and  C_10
REMARK    6  A    between atoms: C_10  and  N_11
REMARK                            x       y       z     vdW  Elec       q    Type
REMARK                         _______ _______ _______ _____ _____    ______ ____
ROOT
ATOM      1  O   UNL     1      43.772   7.398  11.272  0.00  0.00    +0.000 OA
ATOM      2  C   UNL     1      44.506   6.510  11.725  0.00  0.00    +0.000 C 
ATOM      3  N   UNL     1      45.560   6.777  12.556  0.00  0.00    +0.000 N 
ATOM      4  H   UNL     1      46.246   6.040  12.730  0.00  0.00    +0.000 HD
ENDROOT
BRANCH   2   5
ATOM      5  C   UNL     1      44.254   5.103  11.442  0.00  0.00    +0.000 A 
ATOM      6  C   UNL     1      43.465   4.307  12.253  0.00  0.00    +0.000 A 
ATOM      7  S   UNL     1      43.343   2.693  11.686  0.00  0.00    +0.000 S 
ATOM      8  C   UNL     1      44.319   3.031  10.338  0.00  0.00    +0.000 A 
ATOM      9  N   UNL     1      44.621   2.080   9.415  0.00  0.00    +0.000 NA
ATOM     10  C   UNL     1      45.342   2.500   8.426  0.00  0.00    +0.000 A 
ATOM     11  N   UNL     1      45.779   3.788   8.265  0.00  0.00    +0.000 N 
ATOM     12  C   UNL     1      45.570   4.757   9.193  0.00  0.00    +0.000 A 
ATOM     13  O   UNL     1      46.098   5.867   9.078  0.00  0.00    +0.000 OA
ATOM     14  C   UNL     1      44.738   4.341  10.311  0.00  0.00    +0.000 A 
ATOM     15  H   UNL     1      46.369   4.046   7.492  0.00  0.00    +0.000 HD
ENDBRANCH   2   5
BRANCH   3  16
ATOM     16  C   UNL     1      45.959   8.125  12.870  0.00  0.00    +0.000 C 
BRANCH  16  17
ATOM     17  C   UNL     1      47.305   8.490  12.228  0.00  0.00    +0.000 C 
ATOM     18  C   UNL     1      48.205   7.261  12.041  0.00  0.00    +0.000 C 
ATOM     19  C   UNL     1      48.777   6.752  13.354  0.00  0.00    +0.000 C 
ATOM     20  N   UNL     1      49.526   7.811  14.038  0.00  0.00    +0.000 NA
ATOM     21  C   UNL     1      48.637   8.948  14.354  0.00  0.00    +0.000 C 
ATOM     22  C   UNL     1      48.044   9.537  13.072  0.00  0.00    +0.000 C 
BRANCH  20  23
ATOM     23  C   UNL     1      50.109   7.271  15.274  0.00  0.00    +0.000 C 
BRANCH  23  24
ATOM     24  C   UNL     1      49.095   6.707  16.316  0.00  0.00    +0.000 C 
BRANCH  24  25
ATOM     25  N   UNL     1      49.214   5.237  16.328  0.00  0.00    +0.000 NA
ATOM     26  C   UNL     1      47.896   4.577  16.363  0.00  0.00    +0.000 C 
ATOM     27  C   UNL     1      47.262   4.497  17.753  0.00  0.00    +0.000 C 
ATOM     28  O   UNL     1      48.133   3.816  18.656  0.00  0.00    +0.000 OA
ATOM     29  C   UNL     1      49.369   4.530  18.774  0.00  0.00    +0.000 C 
ATOM     30  C   UNL     1      50.064   4.709  17.411  0.00  0.00    +0.000 C 
ENDBRANCH  24  25
ENDBRANCH  23  24
ENDBRANCH  20  23
ENDBRANCH  16  17
ENDBRANCH   3  16
TORSDOF 6
ENDMDL
MODEL 6
REMARK VINA RESULT:    -6.730      3.493      9.497
REMARK INTER + INTRA:          -9.868
REMARK INTER:                  -8.652
REMARK INTRA:                  -1.216
REMARK UNBOUND:                -0.777
REMARK  Name = 
REMARK  6 active torsions:
REMARK  status: ('A' for Active; 'I' for Inactive)
REMARK    1  A    between atoms: C_2  and  C_19
REMARK    2  A    between atoms: N_3  and  C_4
REMARK    3  A    between atoms: C_4  and  C_5
REMARK    4  A    between atoms: N_8  and  C_9
REMARK    5  A    between atoms: C_9  and  C_10
REMARK    6  A    between atoms: C_10  and  N_11
REMARK                            x       y       z     vdW  Elec       q    Type
REMARK                         _______ _______ _______ _____ _____    ______ ____
ROOT
ATOM      1  O   UNL     1      48.646   6.189  13.182  0.00  0.00    +0.000 OA
ATOM      2  C   UNL     1      47.518   5.934  13.625  0.00  0.00    +0.000 C 
ATOM      3  N   UNL     1      47.303   5.556  14.923  0.00  0.00    +0.000 N 
ATOM      4  H   UNL     1      46.394   5.164  15.175  0.00  0.00    +0.000 HD
ENDROOT
BRANCH   2   5
ATOM      5  C   UNL     1      46.330   6.080  12.795  0.00  0.00    +0.000 A 
ATOM      6  C   UNL     1      45.901   7.304  12.311  0.00  0.00    +0.000 A 
ATOM      7  S   UNL     1      44.474   7.184  11.368  0.00  0.00    +0.000 S 
ATOM      8  C   UNL     1      44.414   5.498  11.567  0.00  0.00    +0.000 A 
ATOM      9  N   UNL     1      43.432   4.744  11.005  0.00  0.00    +0.000 NA
ATOM     10  C   UNL     1      43.544   3.472  11.215  0.00  0.00    +0.000 A 
ATOM     11  N   UNL     1      44.556   2.880  11.923  0.00  0.00    +0.000 N 
ATOM     12  C   UNL     1      45.518   3.590  12.566  0.00  0.00    +0.000 A 
ATOM     13  O   UNL     1      46.329   3.029  13.308  0.00  0.00    +0.000 OA
ATOM     14  C   UNL     1      45.452   5.025  12.337  0.00  0.00    +0.000 A 
ATOM     15  H   UNL     1      44.569   1.887  12.083  0.00  0.00    +0.000 HD
ENDBRANCH   2   5
BRANCH   3  16
ATOM     16  C   UNL     1      48.392   5.315  15.835  0.00  0.00    +0.000 C 
BRANCH  16  17
ATOM     17  C   UNL     1      48.157   4.061  16.691  0.00  0.00    +0.000 C 
ATOM     18  C   UNL     1      47.029   4.266  17.711  0.00  0.00    +0.000 C 
ATOM     19  C   UNL     1      47.436   5.180  18.855  0.00  0.00    +0.000 C 
ATOM     20  N   UNL     1      48.626   4.660  19.536  0.00  0.00    +0.000 NA
ATOM     21  C   UNL     1      49.765   4.591  18.599  0.00  0.00    +0.000 C 
ATOM     22  C   UNL     1      49.441   3.659  17.428  0.00  0.00    +0.000 C 
BRANCH  20  23
ATOM     23  C   UNL     1      48.958   5.535  20.667  0.00  0.00    +0.000 C 
BRANCH  23  24
ATOM     24  C   UNL     1      47.909   6.637  21.008  0.00  0.00    +0.000 C 
BRANCH  24  25
ATOM     25  N   UNL     1      48.587   7.946  20.983  0.00  0.00    +0.000 NA
ATOM     26  C   UNL     1      47.631   9.061  20.868  0.00  0.00    +0.000 C 
ATOM     27  C   UNL     1      47.139   9.334  19.445  0.00  0.00    +0.000 C 
ATOM     28  O   UNL     1      48.245   9.596  18.581  0.00  0.00    +0.000 OA
ATOM     29  C   UNL     1      49.112   8.457  18.539  0.00  0.00    +0.000 C 
ATOM     30  C   UNL     1      49.623   8.069  19.939  0.00  0.00    +0.000 C 
ENDBRANCH  24  25
ENDBRANCH  23  24
ENDBRANCH  20  23
ENDBRANCH  16  17
ENDBRANCH   3  16
TORSDOF 6
ENDMDL
MODEL 7
REMARK VINA RESULT:    -6.633      3.386      9.438
REMARK INTER + INTRA:          -9.736
REMARK INTER:                  -8.726
REMARK INTRA:                  -1.010
REMARK UNBOUND:                -0.777
REMARK  Name = 
REMARK  6 active torsions:
REMARK  status: ('A' for Active; 'I' for Inactive)
REMARK    1  A    between atoms: C_2  and  C_19
REMARK    2  A    between atoms: N_3  and  C_4
REMARK    3  A    between atoms: C_4  and  C_5
REMARK    4  A    between atoms: N_8  and  C_9
REMARK    5  A    between atoms: C_9  and  C_10
REMARK    6  A    between atoms: C_10  and  N_11
REMARK                            x       y       z     vdW  Elec       q    Type
REMARK                         _______ _______ _______ _____ _____    ______ ____
ROOT
ATOM      1  O   UNL     1      48.509   5.928  13.304  0.00  0.00    +0.000 OA
ATOM      2  C   UNL     1      47.347   5.735  13.685  0.00  0.00    +0.000 C 
ATOM      3  N   UNL     1      47.042   5.372  14.969  0.00  0.00    +0.000 N 
ATOM      4  H   UNL     1      46.100   5.030  15.172  0.00  0.00    +0.000 HD
ENDROOT
BRANCH   2   5
ATOM      5  C   UNL     1      46.214   5.942  12.792  0.00  0.00    +0.000 A 
ATOM      6  C   UNL     1      45.843   7.195  12.335  0.00  0.00    +0.000 A 
ATOM      7  S   UNL     1      44.474   7.146  11.303  0.00  0.00    +0.000 S 
ATOM      8  C   UNL     1      44.365   5.456  11.429  0.00  0.00    +0.000 A 
ATOM      9  N   UNL     1      43.403   4.749  10.779  0.00  0.00    +0.000 NA
ATOM     10  C   UNL     1      43.475   3.467  10.942  0.00  0.00    +0.000 A 
ATOM     11  N   UNL     1      44.428   2.823  11.684  0.00  0.00    +0.000 N 
ATOM     12  C   UNL     1      45.364   3.484  12.413  0.00  0.00    +0.000 A 
ATOM     13  O   UNL     1      46.117   2.874  13.178  0.00  0.00    +0.000 OA
ATOM     14  C   UNL     1      45.343   4.928  12.239  0.00  0.00    +0.000 A 
ATOM     15  H   UNL     1      44.410   1.825  11.804  0.00  0.00    +0.000 HD
ENDBRANCH   2   5
BRANCH   3  16
ATOM     16  C   UNL     1      48.064   5.075  15.939  0.00  0.00    +0.000 C 
BRANCH  16  17
ATOM     17  C   UNL     1      47.509   4.295  17.140  0.00  0.00    +0.000 C 
ATOM     18  C   UNL     1      47.274   5.203  18.355  0.00  0.00    +0.000 C 
ATOM     19  C   UNL     1      48.571   5.637  19.019  0.00  0.00    +0.000 C 
ATOM     20  N   UNL     1      49.362   4.470  19.423  0.00  0.00    +0.000 NA
ATOM     21  C   UNL     1      49.719   3.658  18.242  0.00  0.00    +0.000 C 
ATOM     22  C   UNL     1      48.458   3.156  17.534  0.00  0.00    +0.000 C 
BRANCH  20  23
ATOM     23  C   UNL     1      50.579   4.923  20.108  0.00  0.00    +0.000 C 
BRANCH  23  24
ATOM     24  C   UNL     1      51.635   5.644  19.215  0.00  0.00    +0.000 C 
BRANCH  24  25
ATOM     25  N   UNL     1      52.977   5.221  19.653  0.00  0.00    +0.000 NA
ATOM     26  C   UNL     1      54.024   5.635  18.702  0.00  0.00    +0.000 C 
ATOM     27  C   UNL     1      54.176   4.720  17.485  0.00  0.00    +0.000 C 
ATOM     28  O   UNL     1      54.449   3.382  17.902  0.00  0.00    +0.000 OA
ATOM     29  C   UNL     1      53.363   2.888  18.695  0.00  0.00    +0.000 C 
ATOM     30  C   UNL     1      53.096   3.776  19.925  0.00  0.00    +0.000 C 
ENDBRANCH  24  25
ENDBRANCH  23  24
ENDBRANCH  20  23
ENDBRANCH  16  17
ENDBRANCH   3  16
TORSDOF 6
ENDMDL
MODEL 8
REMARK VINA RESULT:    -6.592      3.048      4.053
REMARK INTER + INTRA:          -9.682
REMARK INTER:                  -8.982
REMARK INTRA:                  -0.699
REMARK UNBOUND:                -0.777
REMARK  Name = 
REMARK  6 active torsions:
REMARK  status: ('A' for Active; 'I' for Inactive)
REMARK    1  A    between atoms: C_2  and  C_19
REMARK    2  A    between atoms: N_3  and  C_4
REMARK    3  A    between atoms: C_4  and  C_5
REMARK    4  A    between atoms: N_8  and  C_9
REMARK    5  A    between atoms: C_9  and  C_10
REMARK    6  A    between atoms: C_10  and  N_11
REMARK                            x       y       z     vdW  Elec       q    Type
REMARK                         _______ _______ _______ _____ _____    ______ ____
ROOT
ATOM      1  O   UNL     1      48.437   4.826  17.523  0.00  0.00    +0.000 OA
ATOM      2  C   UNL     1      49.566   5.137  17.121  0.00  0.00    +0.000 C 
ATOM      3  N   UNL     1      49.769   6.076  16.146  0.00  0.00    +0.000 N 
ATOM      4  H   UNL     1      50.692   6.142  15.715  0.00  0.00    +0.000 HD
ENDROOT
BRANCH   2   5
ATOM      5  C   UNL     1      50.765   4.557  17.712  0.00  0.00    +0.000 A 
ATOM      6  C   UNL     1      51.658   5.296  18.469  0.00  0.00    +0.000 A 
ATOM      7  S   UNL     1      52.980   4.362  19.034  0.00  0.00    +0.000 S 
ATOM      8  C   UNL     1      52.376   2.954  18.301  0.00  0.00    +0.000 A 
ATOM      9  N   UNL     1      53.023   1.763  18.396  0.00  0.00    +0.000 NA
ATOM     10  C   UNL     1      52.419   0.775  17.818  0.00  0.00    +0.000 A 
ATOM     11  N   UNL     1      51.219   0.863  17.165  0.00  0.00    +0.000 N 
ATOM     12  C   UNL     1      50.569   2.041  16.977  0.00  0.00    +0.000 A 
ATOM     13  O   UNL     1      49.563   2.101  16.264  0.00  0.00    +0.000 OA
ATOM     14  C   UNL     1      51.194   3.178  17.634  0.00  0.00    +0.000 A 
ATOM     15  H   UNL     1      50.816   0.066  16.703  0.00  0.00    +0.000 HD
ENDBRANCH   2   5
BRANCH   3  16
ATOM     16  C   UNL     1      48.673   6.684  15.436  0.00  0.00    +0.000 C 
BRANCH  16  17
ATOM     17  C   UNL     1      49.160   7.669  14.363  0.00  0.00    +0.000 C 
ATOM     18  C   UNL     1      48.283   8.927  14.299  0.00  0.00    +0.000 C 
ATOM     19  C   UNL     1      46.922   8.659  13.679  0.00  0.00    +0.000 C 
ATOM     20  N   UNL     1      47.068   8.093  12.334  0.00  0.00    +0.000 NA
ATOM     21  C   UNL     1      47.788   6.805  12.394  0.00  0.00    +0.000 C 
ATOM     22  C   UNL     1      49.188   7.000  12.983  0.00  0.00    +0.000 C 
BRANCH  20  23
ATOM     23  C   UNL     1      45.737   7.897  11.743  0.00  0.00    +0.000 C 
BRANCH  23  24
ATOM     24  C   UNL     1      45.371   6.430  11.361  0.00  0.00    +0.000 C 
BRANCH  24  25
ATOM     25  N   UNL     1      44.406   5.921  12.352  0.00  0.00    +0.000 NA
ATOM     26  C   UNL     1      44.986   4.858  13.192  0.00  0.00    +0.000 C 
ATOM     27  C   UNL     1      44.995   3.471  12.547  0.00  0.00    +0.000 C 
ATOM     28  O   UNL     1      43.670   3.085  12.183  0.00  0.00    +0.000 OA
ATOM     29  C   UNL     1      43.137   4.013  11.231  0.00  0.00    +0.000 C 
ATOM     30  C   UNL     1      43.132   5.455  11.770  0.00  0.00    +0.000 C 
ENDBRANCH  24  25
ENDBRANCH  23  24
ENDBRANCH  20  23
ENDBRANCH  16  17
ENDBRANCH   3  16
TORSDOF 6
ENDMDL
MODEL 9
REMARK VINA RESULT:    -6.494      3.511      8.595
REMARK INTER + INTRA:          -9.548
REMARK INTER:                  -8.560
REMARK INTRA:                  -0.988
REMARK UNBOUND:                -0.777
REMARK  Name = 
REMARK  6 active torsions:
REMARK  status: ('A' for Active; 'I' for Inactive)
REMARK    1  A    between atoms: C_2  and  C_19
REMARK    2  A    between atoms: N_3  and  C_4
REMARK    3  A    between atoms: C_4  and  C_5
REMARK    4  A    between atoms: N_8  and  C_9
REMARK    5  A    between atoms: C_9  and  C_10
REMARK    6  A    between atoms: C_10  and  N_11
REMARK                            x       y       z     vdW  Elec       q    Type
REMARK                         _______ _______ _______ _____ _____    ______ ____
ROOT
ATOM      1  O   UNL     1      44.671   8.002  11.375  0.00  0.00    +0.000 OA
ATOM      2  C   UNL     1      45.514   7.096  11.350  0.00  0.00    +0.000 C 
ATOM      3  N   UNL     1      46.728   7.200  11.974  0.00  0.00    +0.000 N 
ATOM      4  H   UNL     1      47.454   6.517  11.751  0.00  0.00    +0.000 HD
ENDROOT
BRANCH   2   5
ATOM      5  C   UNL     1      45.238   5.824  10.696  0.00  0.00    +0.000 A 
ATOM      6  C   UNL     1      45.645   5.544   9.403  0.00  0.00    +0.000 A 
ATOM      7  S   UNL     1      45.181   3.977   8.884  0.00  0.00    +0.000 S 
ATOM      8  C   UNL     1      44.451   3.634  10.378  0.00  0.00    +0.000 A 
ATOM      9  N   UNL     1      43.853   2.439  10.627  0.00  0.00    +0.000 NA
ATOM     10  C   UNL     1      43.376   2.314  11.824  0.00  0.00    +0.000 A 
ATOM     11  N   UNL     1      43.454   3.269  12.802  0.00  0.00    +0.000 N 
ATOM     12  C   UNL     1      43.972   4.505  12.585  0.00  0.00    +0.000 A 
ATOM     13  O   UNL     1      43.898   5.383  13.449  0.00  0.00    +0.000 OA
ATOM     14  C   UNL     1      44.548   4.685  11.261  0.00  0.00    +0.000 A 
ATOM     15  H   UNL     1      43.031   3.127  13.704  0.00  0.00    +0.000 HD
ENDBRANCH   2   5
BRANCH   3  16
ATOM     16  C   UNL     1      47.155   8.421  12.607  0.00  0.00    +0.000 C 
BRANCH  16  17
ATOM     17  C   UNL     1      48.657   8.408  12.928  0.00  0.00    +0.000 C 
ATOM     18  C   UNL     1      49.138   7.017  13.364  0.00  0.00    +0.000 C 
ATOM     19  C   UNL     1      48.662   6.646  14.759  0.00  0.00    +0.000 C 
ATOM     20  N   UNL     1      49.098   7.646  15.739  0.00  0.00    +0.000 NA
ATOM     21  C   UNL     1      48.525   8.968  15.413  0.00  0.00    +0.000 C 
ATOM     22  C   UNL     1      48.987   9.426  14.028  0.00  0.00    +0.000 C 
BRANCH  20  23
ATOM     23  C   UNL     1      48.670   7.230  17.080  0.00  0.00    +0.000 C 
BRANCH  23  24
ATOM     24  C   UNL     1      49.547   6.139  17.768  0.00  0.00    +0.000 C 
BRANCH  24  25
ATOM     25  N   UNL     1      48.668   5.287  18.589  0.00  0.00    +0.000 NA
ATOM     26  C   UNL     1      49.261   3.962  18.840  0.00  0.00    +0.000 C 
ATOM     27  C   UNL     1      49.092   2.962  17.693  0.00  0.00    +0.000 C 
ATOM     28  O   UNL     1      47.709   2.788  17.388  0.00  0.00    +0.000 OA
ATOM     29  C   UNL     1      47.139   4.035  16.975  0.00  0.00    +0.000 C 
ATOM     30  C   UNL     1      47.305   5.128  18.048  0.00  0.00    +0.000 C 
ENDBRANCH  24  25
ENDBRANCH  23  24
ENDBRANCH  20  23
ENDBRANCH  16  17
ENDBRANCH   3  16
TORSDOF 6
ENDMDL
