MODEL 1
REMARK VINA RESULT:    -8.486      0.000      0.000
REMARK INTER + INTRA:         -11.596
REMARK INTER:                 -10.967
REMARK INTRA:                  -0.629
REMARK UNBOUND:                -0.629
REMARK  Name = 
REMARK  5 active torsions:
REMARK  status: ('A' for Active; 'I' for Inactive)
REMARK    1  A    between atoms: C_2  and  C_17
REMARK    2  A    between atoms: N_3  and  C_4
REMARK    3  A    between atoms: C_4  and  C_5
REMARK    4  A    between atoms: C_8  and  C_9
REMARK    5  A    between atoms: C_9  and  C_10
REMARK                            x       y       z     vdW  Elec       q    Type
REMARK                         _______ _______ _______ _____ _____    ______ ____
ROOT
ATOM      1  O   UNL     1      46.368   3.273  13.698  0.00  0.00    +0.000 OA
ATOM      2  C   UNL     1      46.205   4.474  13.894  0.00  0.00    +0.000 C 
ATOM      3  N   UNL     1      45.023   5.110  13.599  0.00  0.00    +0.000 N 
ATOM      4  H   UNL     1      45.007   6.123  13.560  0.00  0.00    +0.000 HD
ENDROOT
BRANCH   2   5
ATOM      5  C   UNL     1      47.259   5.298  14.502  0.00  0.00    +0.000 A 
ATOM      6  C   UNL     1      47.865   6.303  13.758  0.00  0.00    +0.000 A 
ATOM      7  S   UNL     1      49.082   7.142  14.610  0.00  0.00    +0.000 S 
ATOM      8  C   UNL     1      48.805   6.230  16.018  0.00  0.00    +0.000 A 
ATOM      9  N   UNL     1      49.507   6.470  17.159  0.00  0.00    +0.000 NA
ATOM     10  C   UNL     1      49.168   5.723  18.156  0.00  0.00    +0.000 A 
ATOM     11  N   UNL     1      48.200   4.755  18.121  0.00  0.00    +0.000 N 
ATOM     12  C   UNL     1      47.490   4.458  16.984  0.00  0.00    +0.000 A 
ATOM     13  O   UNL     1      46.662   3.551  16.970  0.00  0.00    +0.000 OA
ATOM     14  C   UNL     1      47.817   5.277  15.832  0.00  0.00    +0.000 A 
ATOM     15  H   UNL     1      48.000   4.200  18.933  0.00  0.00    +0.000 HD
ENDBRANCH   2   5
BRANCH   3  16
ATOM     16  C   UNL     1      43.971   4.407  12.912  0.00  0.00    +0.000 C 
BRANCH  16  17
ATOM     17  C   UNL     1      44.290   4.164  11.466  0.00  0.00    +0.000 A 
ATOM     18  C   UNL     1      44.886   5.148  10.678  0.00  0.00    +0.000 A 
ATOM     19  C   UNL     1      45.227   4.870   9.354  0.00  0.00    +0.000 A 
ATOM     20  C   UNL     1      44.965   3.603   8.835  0.00  0.00    +0.000 A 
ATOM     21  N   UNL     1      44.344   2.647   9.568  0.00  0.00    +0.000 NA
ATOM     22  C   UNL     1      44.013   2.949  10.849  0.00  0.00    +0.000 A 
BRANCH  20  23
ATOM     23  C   UNL     1      45.309   3.269   7.400  0.00  0.00    +0.000 C 
BRANCH  23  24
ATOM     24  C   UNL     1      46.797   3.173   7.012  0.00  0.00    +0.000 C 
ATOM     25  C   UNL     1      47.144   3.563   5.577  0.00  0.00    +0.000 C 
ATOM     26  C   UNL     1      47.822   2.340   4.987  0.00  0.00    +0.000 C 
ATOM     27  N   UNL     1      48.401   1.628   6.130  0.00  0.00    +0.000 NA
ATOM     28  C   UNL     1      47.436   1.802   7.220  0.00  0.00    +0.000 C 
ATOM     29  H   UNL     1      49.279   2.077   6.385  0.00  0.00    +0.000 HD
ENDBRANCH  23  24
ENDBRANCH  20  23
ENDBRANCH  16  17
ENDBRANCH   3  16
TORSDOF 5
ENDMDL
MODEL 2
REMARK VINA RESULT:    -8.210      1.836      2.730
REMARK INTER + INTRA:         -11.239
REMARK INTER:                 -10.357
REMARK INTRA:                  -0.882
REMARK UNBOUND:                -0.629
REMARK  Name = 
REMARK  5 active torsions:
REMARK  status: ('A' for Active; 'I' for Inactive)
REMARK    1  A    between atoms: C_2  and  C_17
REMARK    2  A    between atoms: N_3  and  C_4
REMARK    3  A    between atoms: C_4  and  C_5
REMARK    4  A    between atoms: C_8  and  C_9
REMARK    5  A    between atoms: C_9  and  C_10
REMARK                            x       y       z     vdW  Elec       q    Type
REMARK                         _______ _______ _______ _____ _____    ______ ____
ROOT
ATOM      1  O   UNL     1      46.674   3.683  14.113  0.00  0.00    +0.000 OA
ATOM      2  C   UNL     1      46.610   4.907  14.050  0.00  0.00    +0.000 C 
ATOM      3  N   UNL     1      45.475   5.560  13.630  0.00  0.00    +0.000 N 
ATOM      4  H   UNL     1      45.537   6.539  13.376  0.00  0.00    +0.000 HD
ENDROOT
BRANCH   2   5
ATOM      5  C   UNL     1      47.738   5.753  14.464  0.00  0.00    +0.000 A 
ATOM      6  C   UNL     1      48.259   5.632  15.746  0.00  0.00    +0.000 A 
ATOM      7  S   UNL     1      49.545   6.705  16.064  0.00  0.00    +0.000 S 
ATOM      8  C   UNL     1      49.488   7.332  14.484  0.00  0.00    +0.000 A 
ATOM      9  N   UNL     1      50.367   8.287  14.076  0.00  0.00    +0.000 NA
ATOM     10  C   UNL     1      50.226   8.645  12.843  0.00  0.00    +0.000 A 
ATOM     11  N   UNL     1      49.287   8.144  11.982  0.00  0.00    +0.000 N 
ATOM     12  C   UNL     1      48.362   7.203  12.359  0.00  0.00    +0.000 A 
ATOM     13  O   UNL     1      47.500   6.808  11.577  0.00  0.00    +0.000 OA
ATOM     14  C   UNL     1      48.481   6.750  13.732  0.00  0.00    +0.000 A 
ATOM     15  H   UNL     1      49.225   8.481  11.038  0.00  0.00    +0.000 HD
ENDBRANCH   2   5
BRANCH   3  16
ATOM     16  C   UNL     1      44.357   4.815  13.112  0.00  0.00    +0.000 C 
BRANCH  16  17
ATOM     17  C   UNL     1      44.579   4.349  11.703  0.00  0.00    +0.000 A 
ATOM     18  C   UNL     1      44.980   5.233  10.701  0.00  0.00    +0.000 A 
ATOM     19  C   UNL     1      45.237   4.757   9.415  0.00  0.00    +0.000 A 
ATOM     20  C   UNL     1      45.091   3.397   9.149  0.00  0.00    +0.000 A 
ATOM     21  N   UNL     1      44.657   2.529  10.095  0.00  0.00    +0.000 NA
ATOM     22  C   UNL     1      44.402   3.021  11.334  0.00  0.00    +0.000 A 
BRANCH  20  23
ATOM     23  C   UNL     1      45.349   2.847   7.763  0.00  0.00    +0.000 C 
BRANCH  23  24
ATOM     24  C   UNL     1      46.778   2.944   7.197  0.00  0.00    +0.000 C 
ATOM     25  C   UNL     1      46.906   3.512   5.785  0.00  0.00    +0.000 C 
ATOM     26  C   UNL     1      47.610   2.431   4.985  0.00  0.00    +0.000 C 
ATOM     27  N   UNL     1      48.390   1.670   5.965  0.00  0.00    +0.000 NA
ATOM     28  C   UNL     1      47.558   1.632   7.173  0.00  0.00    +0.000 C 
ATOM     29  H   UNL     1      49.250   2.177   6.166  0.00  0.00    +0.000 HD
ENDBRANCH  23  24
ENDBRANCH  20  23
ENDBRANCH  16  17
ENDBRANCH   3  16
TORSDOF 5
ENDMDL
MODEL 3
REMARK VINA RESULT:    -7.875      1.509      1.899
REMARK INTER + INTRA:         -10.806
REMARK INTER:                 -10.091
REMARK INTRA:                  -0.716
REMARK UNBOUND:                -0.629
REMARK  Name = 
REMARK  5 active torsions:
REMARK  status: ('A' for Active; 'I' for Inactive)
REMARK    1  A    between atoms: C_2  and  C_17
REMARK    2  A    between atoms: N_3  and  C_4
REMARK    3  A    between atoms: C_4  and  C_5
REMARK    4  A    between atoms: C_8  and  C_9
REMARK    5  A    between atoms: C_9  and  C_10
REMARK                            x       y       z     vdW  Elec       q    Type
REMARK                         _______ _______ _______ _____ _____    ______ ____
ROOT
ATOM      1  O   UNL     1      47.545   7.181  12.547  0.00  0.00    +0.000 OA
ATOM      2  C   UNL     1      47.083   6.623  13.539  0.00  0.00    +0.000 C 
ATOM      3  N   UNL     1      45.799   6.133  13.571  0.00  0.00    +0.000 N 
ATOM      4  H   UNL     1      45.387   5.892  14.465  0.00  0.00    +0.000 HD
ENDROOT
BRANCH   2   5
ATOM      5  C   UNL     1      47.897   6.408  14.743  0.00  0.00    +0.000 A 
ATOM      6  C   UNL     1      48.680   7.441  15.242  0.00  0.00    +0.000 A 
ATOM      7  S   UNL     1      49.576   7.010  16.627  0.00  0.00    +0.000 S 
ATOM      8  C   UNL     1      48.909   5.446  16.642  0.00  0.00    +0.000 A 
ATOM      9  N   UNL     1      49.238   4.552  17.615  0.00  0.00    +0.000 NA
ATOM     10  C   UNL     1      48.631   3.416  17.517  0.00  0.00    +0.000 A 
ATOM     11  N   UNL     1      47.733   3.087  16.538  0.00  0.00    +0.000 N 
ATOM     12  C   UNL     1      47.396   3.945  15.521  0.00  0.00    +0.000 A 
ATOM     13  O   UNL     1      46.623   3.603  14.629  0.00  0.00    +0.000 OA
ATOM     14  C   UNL     1      48.035   5.245  15.586  0.00  0.00    +0.000 A 
ATOM     15  H   UNL     1      47.309   2.176  16.516  0.00  0.00    +0.000 HD
ENDBRANCH   2   5
BRANCH   3  16
ATOM     16  C   UNL     1      44.897   6.384  12.476  0.00  0.00    +0.000 C 
BRANCH  16  17
ATOM     17  C   UNL     1      45.105   5.437  11.330  0.00  0.00    +0.000 A 
ATOM     18  C   UNL     1      44.743   4.093  11.424  0.00  0.00    +0.000 A 
ATOM     19  C   UNL     1      44.891   3.253  10.320  0.00  0.00    +0.000 A 
ATOM     20  C   UNL     1      45.402   3.773   9.132  0.00  0.00    +0.000 A 
ATOM     21  N   UNL     1      45.805   5.063   9.034  0.00  0.00    +0.000 NA
ATOM     22  C   UNL     1      45.660   5.855  10.127  0.00  0.00    +0.000 A 
BRANCH  20  23
ATOM     23  C   UNL     1      45.590   2.889   7.918  0.00  0.00    +0.000 C 
BRANCH  23  24
ATOM     24  C   UNL     1      46.941   2.943   7.180  0.00  0.00    +0.000 C 
ATOM     25  C   UNL     1      46.906   3.481   5.751  0.00  0.00    +0.000 C 
ATOM     26  C   UNL     1      47.487   2.369   4.896  0.00  0.00    +0.000 C 
ATOM     27  N   UNL     1      48.365   1.611   5.791  0.00  0.00    +0.000 NA
ATOM     28  C   UNL     1      47.687   1.614   7.091  0.00  0.00    +0.000 C 
ATOM     29  H   UNL     1      49.253   2.103   5.874  0.00  0.00    +0.000 HD
ENDBRANCH  23  24
ENDBRANCH  20  23
ENDBRANCH  16  17
ENDBRANCH   3  16
TORSDOF 5
ENDMDL
MODEL 4
REMARK VINA RESULT:    -7.397      1.880      2.324
REMARK INTER + INTRA:         -10.188
REMARK INTER:                  -9.585
REMARK INTRA:                  -0.604
REMARK UNBOUND:                -0.629
REMARK  Name = 
REMARK  5 active torsions:
REMARK  status: ('A' for Active; 'I' for Inactive)
REMARK    1  A    between atoms: C_2  and  C_17
REMARK    2  A    between atoms: N_3  and  C_4
REMARK    3  A    between atoms: C_4  and  C_5
REMARK    4  A    between atoms: C_8  and  C_9
REMARK    5  A    between atoms: C_9  and  C_10
REMARK                            x       y       z     vdW  Elec       q    Type
REMARK                         _______ _______ _______ _____ _____    ______ ____
ROOT
ATOM      1  O   UNL     1      48.044   6.227  13.712  0.00  0.00    +0.000 OA
ATOM      2  C   UNL     1      47.267   5.542  14.373  0.00  0.00    +0.000 C 
ATOM      3  N   UNL     1      45.957   5.359  14.001  0.00  0.00    +0.000 N 
ATOM      4  H   UNL     1      45.302   4.987  14.679  0.00  0.00    +0.000 HD
ENDROOT
BRANCH   2   5
ATOM      5  C   UNL     1      47.710   4.840  15.585  0.00  0.00    +0.000 A 
ATOM      6  C   UNL     1      47.536   3.465  15.689  0.00  0.00    +0.000 A 
ATOM      7  S   UNL     1      48.083   2.819  17.170  0.00  0.00    +0.000 S 
ATOM      8  C   UNL     1      48.621   4.343  17.701  0.00  0.00    +0.000 A 
ATOM      9  N   UNL     1      49.234   4.488  18.908  0.00  0.00    +0.000 NA
ATOM     10  C   UNL     1      49.617   5.696  19.164  0.00  0.00    +0.000 A 
ATOM     11  N   UNL     1      49.441   6.769  18.334  0.00  0.00    +0.000 N 
ATOM     12  C   UNL     1      48.801   6.674  17.124  0.00  0.00    +0.000 A 
ATOM     13  O   UNL     1      48.614   7.665  16.422  0.00  0.00    +0.000 OA
ATOM     14  C   UNL     1      48.360   5.337  16.773  0.00  0.00    +0.000 A 
ATOM     15  H   UNL     1      49.752   7.685  18.606  0.00  0.00    +0.000 HD
ENDBRANCH   2   5
BRANCH   3  16
ATOM     16  C   UNL     1      45.409   6.085  12.885  0.00  0.00    +0.000 C 
BRANCH  16  17
ATOM     17  C   UNL     1      45.479   5.309  11.602  0.00  0.00    +0.000 A 
ATOM     18  C   UNL     1      45.106   3.966  11.545  0.00  0.00    +0.000 A 
ATOM     19  C   UNL     1      45.124   3.290  10.325  0.00  0.00    +0.000 A 
ATOM     20  C   UNL     1      45.516   3.971   9.174  0.00  0.00    +0.000 A 
ATOM     21  N   UNL     1      45.927   5.261   9.215  0.00  0.00    +0.000 NA
ATOM     22  C   UNL     1      45.911   5.892  10.417  0.00  0.00    +0.000 A 
BRANCH  20  23
ATOM     23  C   UNL     1      45.560   3.267   7.835  0.00  0.00    +0.000 C 
BRANCH  23  24
ATOM     24  C   UNL     1      46.913   3.179   7.104  0.00  0.00    +0.000 C 
ATOM     25  C   UNL     1      46.889   3.481   5.607  0.00  0.00    +0.000 C 
ATOM     26  C   UNL     1      47.451   2.236   4.943  0.00  0.00    +0.000 C 
ATOM     27  N   UNL     1      48.316   1.617   5.952  0.00  0.00    +0.000 NA
ATOM     28  C   UNL     1      47.636   1.840   7.231  0.00  0.00    +0.000 C 
ATOM     29  H   UNL     1      49.212   2.101   5.959  0.00  0.00    +0.000 HD
ENDBRANCH  23  24
ENDBRANCH  20  23
ENDBRANCH  16  17
ENDBRANCH   3  16
TORSDOF 5
ENDMDL
MODEL 5
REMARK VINA RESULT:    -7.233      4.104      8.969
REMARK INTER + INTRA:          -9.977
REMARK INTER:                  -9.255
REMARK INTRA:                  -0.722
REMARK UNBOUND:                -0.629
REMARK  Name = 
REMARK  5 active torsions:
REMARK  status: ('A' for Active; 'I' for Inactive)
REMARK    1  A    between atoms: C_2  and  C_17
REMARK    2  A    between atoms: N_3  and  C_4
REMARK    3  A    between atoms: C_4  and  C_5
REMARK    4  A    between atoms: C_8  and  C_9
REMARK    5  A    between atoms: C_9  and  C_10
REMARK                            x       y       z     vdW  Elec       q    Type
REMARK                         _______ _______ _______ _____ _____    ______ ____
ROOT
ATOM      1  O   UNL     1      47.237   3.110  14.022  0.00  0.00    +0.000 OA
ATOM      2  C   UNL     1      46.805   4.167  14.473  0.00  0.00    +0.000 C 
ATOM      3  N   UNL     1      46.785   4.434  15.822  0.00  0.00    +0.000 N 
ATOM      4  H   UNL     1      46.220   5.203  16.162  0.00  0.00    +0.000 HD
ENDROOT
BRANCH   2   5
ATOM      5  C   UNL     1      46.321   5.235  13.587  0.00  0.00    +0.000 A 
ATOM      6  C   UNL     1      47.143   6.317  13.297  0.00  0.00    +0.000 A 
ATOM      7  S   UNL     1      46.413   7.471  12.274  0.00  0.00    +0.000 S 
ATOM      8  C   UNL     1      44.996   6.540  12.139  0.00  0.00    +0.000 A 
ATOM      9  N   UNL     1      43.958   6.952  11.361  0.00  0.00    +0.000 NA
ATOM     10  C   UNL     1      42.963   6.129  11.329  0.00  0.00    +0.000 A 
ATOM     11  N   UNL     1      42.903   4.940  12.004  0.00  0.00    +0.000 N 
ATOM     12  C   UNL     1      43.913   4.501  12.824  0.00  0.00    +0.000 A 
ATOM     13  O   UNL     1      43.810   3.452  13.455  0.00  0.00    +0.000 OA
ATOM     14  C   UNL     1      45.067   5.377  12.888  0.00  0.00    +0.000 A 
ATOM     15  H   UNL     1      42.088   4.357  11.945  0.00  0.00    +0.000 HD
ENDBRANCH   2   5
BRANCH   3  16
ATOM     16  C   UNL     1      47.146   3.412  16.770  0.00  0.00    +0.000 C 
BRANCH  16  17
ATOM     17  C   UNL     1      48.612   3.420  17.095  0.00  0.00    +0.000 A 
ATOM     18  C   UNL     1      49.378   2.257  17.016  0.00  0.00    +0.000 A 
ATOM     19  C   UNL     1      50.750   2.310  17.264  0.00  0.00    +0.000 A 
ATOM     20  C   UNL     1      51.338   3.531  17.588  0.00  0.00    +0.000 A 
ATOM     21  N   UNL     1      50.604   4.663  17.717  0.00  0.00    +0.000 NA
ATOM     22  C   UNL     1      49.270   4.580  17.481  0.00  0.00    +0.000 A 
BRANCH  20  23
ATOM     23  C   UNL     1      52.820   3.624  17.876  0.00  0.00    +0.000 C 
BRANCH  23  24
ATOM     24  C   UNL     1      53.552   2.351  18.343  0.00  0.00    +0.000 C 
ATOM     25  C   UNL     1      54.344   2.469  19.644  0.00  0.00    +0.000 C 
ATOM     26  C   UNL     1      55.766   2.088  19.278  0.00  0.00    +0.000 C 
ATOM     27  N   UNL     1      55.644   1.208  18.112  0.00  0.00    +0.000 NA
ATOM     28  C   UNL     1      54.529   1.754  17.333  0.00  0.00    +0.000 C 
ATOM     29  H   UNL     1      55.403   0.271  18.432  0.00  0.00    +0.000 HD
ENDBRANCH  23  24
ENDBRANCH  20  23
ENDBRANCH  16  17
ENDBRANCH   3  16
TORSDOF 5
ENDMDL
MODEL 6
REMARK VINA RESULT:    -7.152      3.001      3.639
REMARK INTER + INTRA:          -9.873
REMARK INTER:                  -9.077
REMARK INTRA:                  -0.796
REMARK UNBOUND:                -0.629
REMARK  Name = 
REMARK  5 active torsions:
REMARK  status: ('A' for Active; 'I' for Inactive)
REMARK    1  A    between atoms: C_2  and  C_17
REMARK    2  A    between atoms: N_3  and  C_4
REMARK    3  A    between atoms: C_4  and  C_5
REMARK    4  A    between atoms: C_8  and  C_9
REMARK    5  A    between atoms: C_9  and  C_10
REMARK                            x       y       z     vdW  Elec       q    Type
REMARK                         _______ _______ _______ _____ _____    ______ ____
ROOT
ATOM      1  O   UNL     1      45.837   8.815  12.792  0.00  0.00    +0.000 OA
ATOM      2  C   UNL     1      46.575   7.988  13.322  0.00  0.00    +0.000 C 
ATOM      3  N   UNL     1      46.287   6.644  13.322  0.00  0.00    +0.000 N 
ATOM      4  H   UNL     1      46.789   6.034  13.956  0.00  0.00    +0.000 HD
ENDROOT
BRANCH   2   5
ATOM      5  C   UNL     1      47.840   8.388  13.954  0.00  0.00    +0.000 A 
ATOM      6  C   UNL     1      47.840   8.866  15.258  0.00  0.00    +0.000 A 
ATOM      7  S   UNL     1      49.388   9.305  15.823  0.00  0.00    +0.000 S 
ATOM      8  C   UNL     1      50.119   8.821  14.366  0.00  0.00    +0.000 A 
ATOM      9  N   UNL     1      51.468   8.904  14.197  0.00  0.00    +0.000 NA
ATOM     10  C   UNL     1      51.884   8.472  13.053  0.00  0.00    +0.000 A 
ATOM     11  N   UNL     1      51.084   7.972  12.061  0.00  0.00    +0.000 N 
ATOM     12  C   UNL     1      49.718   7.901  12.177  0.00  0.00    +0.000 A 
ATOM     13  O   UNL     1      49.021   7.493  11.251  0.00  0.00    +0.000 OA
ATOM     14  C   UNL     1      49.191   8.358  13.449  0.00  0.00    +0.000 A 
ATOM     15  H   UNL     1      51.477   7.668  11.189  0.00  0.00    +0.000 HD
ENDBRANCH   2   5
BRANCH   3  16
ATOM     16  C   UNL     1      45.025   6.171  12.815  0.00  0.00    +0.000 C 
BRANCH  16  17
ATOM     17  C   UNL     1      45.177   5.342  11.573  0.00  0.00    +0.000 A 
ATOM     18  C   UNL     1      44.805   3.998  11.547  0.00  0.00    +0.000 A 
ATOM     19  C   UNL     1      44.901   3.272  10.360  0.00  0.00    +0.000 A 
ATOM     20  C   UNL     1      45.371   3.904   9.210  0.00  0.00    +0.000 A 
ATOM     21  N   UNL     1      45.783   5.194   9.225  0.00  0.00    +0.000 NA
ATOM     22  C   UNL     1      45.689   5.874  10.396  0.00  0.00    +0.000 A 
BRANCH  20  23
ATOM     23  C   UNL     1      45.501   3.144   7.908  0.00  0.00    +0.000 C 
BRANCH  23  24
ATOM     24  C   UNL     1      46.880   3.106   7.223  0.00  0.00    +0.000 C 
ATOM     25  C   UNL     1      46.917   3.544   5.760  0.00  0.00    +0.000 C 
ATOM     26  C   UNL     1      47.493   2.358   5.007  0.00  0.00    +0.000 C 
ATOM     27  N   UNL     1      48.312   1.638   5.986  0.00  0.00    +0.000 NA
ATOM     28  C   UNL     1      47.586   1.753   7.255  0.00  0.00    +0.000 C 
ATOM     29  H   UNL     1      49.212   2.108   6.071  0.00  0.00    +0.000 HD
ENDBRANCH  23  24
ENDBRANCH  20  23
ENDBRANCH  16  17
ENDBRANCH   3  16
TORSDOF 5
ENDMDL
MODEL 7
REMARK VINA RESULT:    -7.126      1.798      2.670
REMARK INTER + INTRA:          -9.838
REMARK INTER:                  -9.942
REMARK INTRA:                   0.103
REMARK UNBOUND:                -0.629
REMARK  Name = 
REMARK  5 active torsions:
REMARK  status: ('A' for Active; 'I' for Inactive)
REMARK    1  A    between atoms: C_2  and  C_17
REMARK    2  A    between atoms: N_3  and  C_4
REMARK    3  A    between atoms: C_4  and  C_5
REMARK    4  A    between atoms: C_8  and  C_9
REMARK    5  A    between atoms: C_9  and  C_10
REMARK                            x       y       z     vdW  Elec       q    Type
REMARK                         _______ _______ _______ _____ _____    ______ ____
ROOT
ATOM      1  O   UNL     1      49.069   6.507  13.223  0.00  0.00    +0.000 OA
ATOM      2  C   UNL     1      48.356   6.547  14.223  0.00  0.00    +0.000 C 
ATOM      3  N   UNL     1      47.008   6.806  14.151  0.00  0.00    +0.000 N 
ATOM      4  H   UNL     1      46.510   7.054  14.997  0.00  0.00    +0.000 HD
ENDROOT
BRANCH   2   5
ATOM      5  C   UNL     1      48.901   6.275  15.560  0.00  0.00    +0.000 A 
ATOM      6  C   UNL     1      49.916   7.076  16.069  0.00  0.00    +0.000 A 
ATOM      7  S   UNL     1      50.444   6.603  17.620  0.00  0.00    +0.000 S 
ATOM      8  C   UNL     1      49.300   5.347  17.690  0.00  0.00    +0.000 A 
ATOM      9  N   UNL     1      49.194   4.555  18.792  0.00  0.00    +0.000 NA
ATOM     10  C   UNL     1      48.262   3.664  18.715  0.00  0.00    +0.000 A 
ATOM     11  N   UNL     1      47.431   3.486  17.643  0.00  0.00    +0.000 N 
ATOM     12  C   UNL     1      47.522   4.240  16.500  0.00  0.00    +0.000 A 
ATOM     13  O   UNL     1      46.794   4.025  15.534  0.00  0.00    +0.000 OA
ATOM     14  C   UNL     1      48.544   5.270  16.532  0.00  0.00    +0.000 A 
ATOM     15  H   UNL     1      46.736   2.760  17.647  0.00  0.00    +0.000 HD
ENDBRANCH   2   5
BRANCH   3  16
ATOM     16  C   UNL     1      46.406   7.181  12.898  0.00  0.00    +0.000 C 
BRANCH  16  17
ATOM     17  C   UNL     1      45.805   6.010  12.175  0.00  0.00    +0.000 A 
ATOM     18  C   UNL     1      45.333   6.130  10.868  0.00  0.00    +0.000 A 
ATOM     19  C   UNL     1      44.837   5.009  10.201  0.00  0.00    +0.000 A 
ATOM     20  C   UNL     1      44.821   3.779  10.855  0.00  0.00    +0.000 A 
ATOM     21  N   UNL     1      45.230   3.650  12.141  0.00  0.00    +0.000 NA
ATOM     22  C   UNL     1      45.697   4.759  12.769  0.00  0.00    +0.000 A 
BRANCH  20  23
ATOM     23  C   UNL     1      44.279   2.544  10.169  0.00  0.00    +0.000 C 
BRANCH  23  24
ATOM     24  C   UNL     1      44.652   2.309   8.693  0.00  0.00    +0.000 C 
ATOM     25  C   UNL     1      45.906   1.473   8.441  0.00  0.00    +0.000 C 
ATOM     26  C   UNL     1      46.814   2.362   7.611  0.00  0.00    +0.000 C 
ATOM     27  N   UNL     1      45.917   3.283   6.908  0.00  0.00    +0.000 NA
ATOM     28  C   UNL     1      44.841   3.574   7.860  0.00  0.00    +0.000 C 
ATOM     29  H   UNL     1      45.528   2.807   6.096  0.00  0.00    +0.000 HD
ENDBRANCH  23  24
ENDBRANCH  20  23
ENDBRANCH  16  17
ENDBRANCH   3  16
TORSDOF 5
ENDMDL
MODEL 8
REMARK VINA RESULT:    -7.114      3.697      6.356
REMARK INTER + INTRA:          -9.823
REMARK INTER:                  -8.831
REMARK INTRA:                  -0.992
REMARK UNBOUND:                -0.629
REMARK  Name = 
REMARK  5 active torsions:
REMARK  status: ('A' for Active; 'I' for Inactive)
REMARK    1  A    between atoms: C_2  and  C_17
REMARK    2  A    between atoms: N_3  and  C_4
REMARK    3  A    between atoms: C_4  and  C_5
REMARK    4  A    between atoms: C_8  and  C_9
REMARK    5  A    between atoms: C_9  and  C_10
REMARK                            x       y       z     vdW  Elec       q    Type
REMARK                         _______ _______ _______ _____ _____    ______ ____
ROOT
ATOM      1  O   UNL     1      51.654   6.230  16.612  0.00  0.00    +0.000 OA
ATOM      2  C   UNL     1      51.301   5.317  17.354  0.00  0.00    +0.000 C 
ATOM      3  N   UNL     1      49.986   5.126  17.704  0.00  0.00    +0.000 N 
ATOM      4  H   UNL     1      49.769   4.518  18.485  0.00  0.00    +0.000 HD
ENDROOT
BRANCH   2   5
ATOM      5  C   UNL     1      52.268   4.343  17.879  0.00  0.00    +0.000 A 
ATOM      6  C   UNL     1      53.393   4.786  18.563  0.00  0.00    +0.000 A 
ATOM      7  S   UNL     1      54.417   3.524  19.080  0.00  0.00    +0.000 S 
ATOM      8  C   UNL     1      53.367   2.340  18.458  0.00  0.00    +0.000 A 
ATOM      9  N   UNL     1      53.643   1.014  18.598  0.00  0.00    +0.000 NA
ATOM     10  C   UNL     1      52.741   0.232  18.105  0.00  0.00    +0.000 A 
ATOM     11  N   UNL     1      51.596   0.646  17.480  0.00  0.00    +0.000 N 
ATOM     12  C   UNL     1      51.293   1.971  17.289  0.00  0.00    +0.000 A 
ATOM     13  O   UNL     1      50.282   2.313  16.682  0.00  0.00    +0.000 OA
ATOM     14  C   UNL     1      52.263   2.901  17.837  0.00  0.00    +0.000 A 
ATOM     15  H   UNL     1      50.945  -0.021  17.106  0.00  0.00    +0.000 HD
ENDBRANCH   2   5
BRANCH   3  16
ATOM     16  C   UNL     1      48.984   6.086  17.319  0.00  0.00    +0.000 C 
BRANCH  16  17
ATOM     17  C   UNL     1      48.183   5.637  16.132  0.00  0.00    +0.000 A 
ATOM     18  C   UNL     1      48.212   6.341  14.928  0.00  0.00    +0.000 A 
ATOM     19  C   UNL     1      47.505   5.863  13.824  0.00  0.00    +0.000 A 
ATOM     20  C   UNL     1      46.776   4.681  13.941  0.00  0.00    +0.000 A 
ATOM     21  N   UNL     1      46.696   4.007  15.114  0.00  0.00    +0.000 NA
ATOM     22  C   UNL     1      47.384   4.501  16.175  0.00  0.00    +0.000 A 
BRANCH  20  23
ATOM     23  C   UNL     1      45.987   4.139  12.770  0.00  0.00    +0.000 C 
BRANCH  23  24
ATOM     24  C   UNL     1      45.118   5.122  11.962  0.00  0.00    +0.000 C 
ATOM     25  C   UNL     1      43.841   5.609  12.644  0.00  0.00    +0.000 C 
ATOM     26  C   UNL     1      42.716   5.219  11.702  0.00  0.00    +0.000 C 
ATOM     27  N   UNL     1      43.327   5.159  10.372  0.00  0.00    +0.000 NA
ATOM     28  C   UNL     1      44.673   4.620  10.590  0.00  0.00    +0.000 C 
ATOM     29  H   UNL     1      43.401   6.105  10.001  0.00  0.00    +0.000 HD
ENDBRANCH  23  24
ENDBRANCH  20  23
ENDBRANCH  16  17
ENDBRANCH   3  16
TORSDOF 5
ENDMDL
MODEL 9
REMARK VINA RESULT:    -6.999      3.637      5.126
REMARK INTER + INTRA:          -9.674
REMARK INTER:                  -8.404
REMARK INTRA:                  -1.270
REMARK UNBOUND:                -0.629
REMARK  Name = 
REMARK  5 active torsions:
REMARK  status: ('A' for Active; 'I' for Inactive)
REMARK    1  A    between atoms: C_2  and  C_17
REMARK    2  A    between atoms: N_3  and  C_4
REMARK    3  A    between atoms: C_4  and  C_5
REMARK    4  A    between atoms: C_8  and  C_9
REMARK    5  A    between atoms: C_9  and  C_10
REMARK                            x       y       z     vdW  Elec       q    Type
REMARK                         _______ _______ _______ _____ _____    ______ ____
ROOT
ATOM      1  O   UNL     1      48.537   8.581  15.962  0.00  0.00    +0.000 OA
ATOM      2  C   UNL     1      48.862   7.429  15.690  0.00  0.00    +0.000 C 
ATOM      3  N   UNL     1      49.086   7.017  14.398  0.00  0.00    +0.000 N 
ATOM      4  H   UNL     1      49.125   6.025  14.198  0.00  0.00    +0.000 HD
ENDROOT
BRANCH   2   5
ATOM      5  C   UNL     1      49.073   6.426  16.743  0.00  0.00    +0.000 A 
ATOM      6  C   UNL     1      49.951   6.694  17.786  0.00  0.00    +0.000 A 
ATOM      7  S   UNL     1      50.093   5.413  18.904  0.00  0.00    +0.000 S 
ATOM      8  C   UNL     1      48.947   4.478  18.064  0.00  0.00    +0.000 A 
ATOM      9  N   UNL     1      48.575   3.251  18.519  0.00  0.00    +0.000 NA
ATOM     10  C   UNL     1      47.674   2.670  17.798  0.00  0.00    +0.000 A 
ATOM     11  N   UNL     1      47.116   3.195  16.664  0.00  0.00    +0.000 N 
ATOM     12  C   UNL     1      47.485   4.414  16.152  0.00  0.00    +0.000 A 
ATOM     13  O   UNL     1      47.001   4.837  15.105  0.00  0.00    +0.000 OA
ATOM     14  C   UNL     1      48.484   5.123  16.929  0.00  0.00    +0.000 A 
ATOM     15  H   UNL     1      46.430   2.678  16.143  0.00  0.00    +0.000 HD
ENDBRANCH   2   5
BRANCH   3  16
ATOM     16  C   UNL     1      48.809   7.901  13.295  0.00  0.00    +0.000 C 
BRANCH  16  17
ATOM     17  C   UNL     1      47.456   7.660  12.691  0.00  0.00    +0.000 A 
ATOM     18  C   UNL     1      47.245   6.637  11.766  0.00  0.00    +0.000 A 
ATOM     19  C   UNL     1      45.963   6.400  11.270  0.00  0.00    +0.000 A 
ATOM     20  C   UNL     1      44.905   7.193  11.709  0.00  0.00    +0.000 A 
ATOM     21  N   UNL     1      45.095   8.222  12.570  0.00  0.00    +0.000 NA
ATOM     22  C   UNL     1      46.355   8.437  13.028  0.00  0.00    +0.000 A 
BRANCH  20  23
ATOM     23  C   UNL     1      43.503   6.973  11.183  0.00  0.00    +0.000 C 
BRANCH  23  24
ATOM     24  C   UNL     1      42.784   5.663  11.555  0.00  0.00    +0.000 C 
ATOM     25  C   UNL     1      42.957   5.186  12.996  0.00  0.00    +0.000 C 
ATOM     26  C   UNL     1      43.550   3.793  12.883  0.00  0.00    +0.000 C 
ATOM     27  N   UNL     1      43.114   3.291  11.577  0.00  0.00    +0.000 NA
ATOM     28  C   UNL     1      43.137   4.457  10.688  0.00  0.00    +0.000 C 
ATOM     29  H   UNL     1      42.157   2.951  11.659  0.00  0.00    +0.000 HD
ENDBRANCH  23  24
ENDBRANCH  20  23
ENDBRANCH  16  17
ENDBRANCH   3  16
TORSDOF 5
ENDMDL
