MODEL 1
REMARK VINA RESULT:    -6.800      0.000      0.000
REMARK INTER + INTRA:         -11.915
REMARK INTER:                 -10.378
REMARK INTRA:                  -1.537
REMARK UNBOUND:                -1.537
REMARK  Name = 
REMARK  10 active torsions:
REMARK  status: ('A' for Active; 'I' for Inactive)
REMARK    1  A    between atoms: C_1  and  C_2
REMARK    2  A    between atoms: C_2  and  C_3
REMARK    3  A    between atoms: C_3  and  N_4
REMARK    4  A    between atoms: C_3  and  C_20
REMARK    5  A    between atoms: N_4  and  C_5
REMARK    6  A    between atoms: C_5  and  C_6
REMARK    7  A    between atoms: C_9  and  C_10
REMARK    8  A    between atoms: C_10  and  N_11
REMARK    9  A    between atoms: N_11  and  C_12
REMARK   10  A    between atoms: C_12  and  C_13
REMARK                            x       y       z     vdW  Elec       q    Type
REMARK                         _______ _______ _______ _____ _____    ______ ____
ROOT
ATOM      1  C   UNL     1      49.670   7.004  15.049  0.00  0.00    +0.000 C 
ENDROOT
BRANCH   1   2
ATOM      2  C   UNL     1      48.431   7.186  14.203  0.00  0.00    +0.000 A 
ATOM      3  C   UNL     1      47.702   8.380  14.240  0.00  0.00    +0.000 A 
ATOM      4  C   UNL     1      46.572   8.542  13.438  0.00  0.00    +0.000 A 
ATOM      5  C   UNL     1      46.161   7.523  12.566  0.00  0.00    +0.000 A 
ATOM      6  C   UNL     1      46.902   6.337  12.513  0.00  0.00    +0.000 A 
ATOM      7  C   UNL     1      48.023   6.169  13.327  0.00  0.00    +0.000 A 
BRANCH   5   8
ATOM      8  C   UNL     1      44.951   7.719  11.688  0.00  0.00    +0.000 C 
BRANCH   8   9
ATOM      9  N   UNL     1      44.781   6.564  10.810  0.00  0.00    +0.000 NA
ATOM     10  H   UNL     1      45.595   5.963  10.928  0.00  0.00    +0.000 HD
BRANCH   9  11
ATOM     11  C   UNL     1      43.560   5.824  11.118  0.00  0.00    +0.000 C 
BRANCH  11  12
ATOM     12  C   UNL     1      43.611   4.370  10.579  0.00  0.00    +0.000 C 
ATOM     13  C   UNL     1      44.979   3.702  10.672  0.00  0.00    +0.000 C 
ATOM     14  C   UNL     1      45.062   3.289  12.128  0.00  0.00    +0.000 C 
ATOM     15  C   UNL     1      43.617   2.998  12.511  0.00  0.00    +0.000 C 
ATOM     16  N   UNL     1      42.790   3.453  11.389  0.00  0.00    +0.000 NA
ATOM     17  H   UNL     1      41.937   3.903  11.716  0.00  0.00    +0.000 HD
ENDBRANCH  11  12
ENDBRANCH   9  11
ENDBRANCH   8   9
ENDBRANCH   5   8
ENDBRANCH   1   2
BRANCH   1  18
ATOM     18  N   UNL     1      49.349   6.579  16.411  0.00  0.00    +0.000 NA
ATOM     19  H   UNL     1      50.070   6.925  17.041  0.00  0.00    +0.000 HD
BRANCH  18  20
ATOM     20  C   UNL     1      49.219   5.126  16.604  0.00  0.00    +0.000 C 
BRANCH  20  21
ATOM     21  C   UNL     1      50.375   4.639  17.475  0.00  0.00    +0.000 A 
ATOM     22  C   UNL     1      51.080   5.460  18.345  0.00  0.00    +0.000 A 
ATOM     23  S   UNL     1      52.403   4.703  19.099  0.00  0.00    +0.000 S 
ATOM     24  C   UNL     1      52.071   3.231  18.321  0.00  0.00    +0.000 A 
ATOM     25  N   UNL     1      52.873   2.151  18.525  0.00  0.00    +0.000 NA
ATOM     26  C   UNL     1      52.516   1.097  17.874  0.00  0.00    +0.000 A 
ATOM     27  N   UNL     1      51.422   1.021  17.055  0.00  0.00    +0.000 N 
ATOM     28  C   UNL     1      50.538   2.071  16.863  0.00  0.00    +0.000 A 
ATOM     29  O   UNL     1      49.490   1.915  16.243  0.00  0.00    +0.000 OA
ATOM     30  C   UNL     1      50.940   3.301  17.521  0.00  0.00    +0.000 A 
ATOM     31  H   UNL     1      51.166   0.147  16.618  0.00  0.00    +0.000 HD
ENDBRANCH  20  21
BRANCH  20  33
ATOM     32  C   UNL     1      46.881   4.081  16.114  0.00  0.00    +0.000 C 
ATOM     33  C   UNL     1      47.835   4.672  17.144  0.00  0.00    +0.000 C 
ENDBRANCH  20  33
ENDBRANCH  18  20
ENDBRANCH   1  18
TORSDOF 9
ENDMDL
MODEL 2
REMARK VINA RESULT:    -6.675      1.968      2.665
REMARK INTER + INTRA:         -11.723
REMARK INTER:                 -10.706
REMARK INTRA:                  -1.017
REMARK UNBOUND:                -1.537
REMARK  Name = 
REMARK  10 active torsions:
REMARK  status: ('A' for Active; 'I' for Inactive)
REMARK    1  A    between atoms: C_1  and  C_2
REMARK    2  A    between atoms: C_2  and  C_3
REMARK    3  A    between atoms: C_3  and  N_4
REMARK    4  A    between atoms: C_3  and  C_20
REMARK    5  A    between atoms: N_4  and  C_5
REMARK    6  A    between atoms: C_5  and  C_6
REMARK    7  A    between atoms: C_9  and  C_10
REMARK    8  A    between atoms: C_10  and  N_11
REMARK    9  A    between atoms: N_11  and  C_12
REMARK   10  A    between atoms: C_12  and  C_13
REMARK                            x       y       z     vdW  Elec       q    Type
REMARK                         _______ _______ _______ _____ _____    ______ ____
ROOT
ATOM      1  C   UNL     1      48.355   6.533  14.610  0.00  0.00    +0.000 C 
ENDROOT
BRANCH   1   2
ATOM      2  C   UNL     1      47.272   6.166  13.622  0.00  0.00    +0.000 A 
ATOM      3  C   UNL     1      47.215   6.767  12.359  0.00  0.00    +0.000 A 
ATOM      4  C   UNL     1      46.222   6.404  11.449  0.00  0.00    +0.000 A 
ATOM      5  C   UNL     1      45.280   5.417  11.773  0.00  0.00    +0.000 A 
ATOM      6  C   UNL     1      45.349   4.801  13.028  0.00  0.00    +0.000 A 
ATOM      7  C   UNL     1      46.332   5.176  13.944  0.00  0.00    +0.000 A 
BRANCH   5   8
ATOM      8  C   UNL     1      44.225   5.017  10.773  0.00  0.00    +0.000 C 
BRANCH   8   9
ATOM      9  N   UNL     1      44.022   3.571  10.814  0.00  0.00    +0.000 NA
ATOM     10  H   UNL     1      43.154   3.366  10.323  0.00  0.00    +0.000 HD
BRANCH   9  11
ATOM     11  C   UNL     1      45.133   2.850  10.198  0.00  0.00    +0.000 C 
BRANCH  11  12
ATOM     12  C   UNL     1      44.739   2.245   8.823  0.00  0.00    +0.000 C 
ATOM     13  C   UNL     1      44.887   3.196   7.640  0.00  0.00    +0.000 C 
ATOM     14  C   UNL     1      46.376   3.165   7.360  0.00  0.00    +0.000 C 
ATOM     15  C   UNL     1      46.797   1.756   7.756  0.00  0.00    +0.000 C 
ATOM     16  N   UNL     1      45.642   1.150   8.426  0.00  0.00    +0.000 NA
ATOM     17  H   UNL     1      45.929   0.590   9.226  0.00  0.00    +0.000 HD
ENDBRANCH  11  12
ENDBRANCH   9  11
ENDBRANCH   8   9
ENDBRANCH   5   8
ENDBRANCH   1   2
BRANCH   1  18
ATOM     18  N   UNL     1      48.629   5.451  15.554  0.00  0.00    +0.000 NA
ATOM     19  H   UNL     1      47.844   4.802  15.546  0.00  0.00    +0.000 HD
BRANCH  18  20
ATOM     20  C   UNL     1      48.871   5.872  16.944  0.00  0.00    +0.000 C 
BRANCH  20  21
ATOM     21  C   UNL     1      50.163   5.224  17.437  0.00  0.00    +0.000 A 
ATOM     22  C   UNL     1      51.248   5.943  17.916  0.00  0.00    +0.000 A 
ATOM     23  S   UNL     1      52.610   4.991  18.279  0.00  0.00    +0.000 S 
ATOM     24  C   UNL     1      51.794   3.567  17.843  0.00  0.00    +0.000 A 
ATOM     25  N   UNL     1      52.431   2.366  17.904  0.00  0.00    +0.000 NA
ATOM     26  C   UNL     1      51.705   1.364  17.543  0.00  0.00    +0.000 A 
ATOM     27  N   UNL     1      50.397   1.452  17.147  0.00  0.00    +0.000 N 
ATOM     28  C   UNL     1      49.685   2.640  17.130  0.00  0.00    +0.000 A 
ATOM     29  O   UNL     1      48.475   2.654  16.915  0.00  0.00    +0.000 OA
ATOM     30  C   UNL     1      50.483   3.807  17.459  0.00  0.00    +0.000 A 
ATOM     31  H   UNL     1      49.869   0.619  16.932  0.00  0.00    +0.000 HD
ENDBRANCH  20  21
BRANCH  20  33
ATOM     32  C   UNL     1      48.064   7.904  18.364  0.00  0.00    +0.000 C 
ATOM     33  C   UNL     1      48.855   7.409  17.159  0.00  0.00    +0.000 C 
ENDBRANCH  20  33
ENDBRANCH  18  20
ENDBRANCH   1  18
TORSDOF 9
ENDMDL
MODEL 3
REMARK VINA RESULT:    -6.367      2.187      2.849
REMARK INTER + INTRA:         -11.254
REMARK INTER:                  -9.517
REMARK INTRA:                  -1.737
REMARK UNBOUND:                -1.537
REMARK  Name = 
REMARK  10 active torsions:
REMARK  status: ('A' for Active; 'I' for Inactive)
REMARK    1  A    between atoms: C_1  and  C_2
REMARK    2  A    between atoms: C_2  and  C_3
REMARK    3  A    between atoms: C_3  and  N_4
REMARK    4  A    between atoms: C_3  and  C_20
REMARK    5  A    between atoms: N_4  and  C_5
REMARK    6  A    between atoms: C_5  and  C_6
REMARK    7  A    between atoms: C_9  and  C_10
REMARK    8  A    between atoms: C_10  and  N_11
REMARK    9  A    between atoms: N_11  and  C_12
REMARK   10  A    between atoms: C_12  and  C_13
REMARK                            x       y       z     vdW  Elec       q    Type
REMARK                         _______ _______ _______ _____ _____    ______ ____
ROOT
ATOM      1  C   UNL     1      49.969   7.744  13.936  0.00  0.00    +0.000 C 
ENDROOT
BRANCH   1   2
ATOM      2  C   UNL     1      48.602   7.749  13.292  0.00  0.00    +0.000 A 
ATOM      3  C   UNL     1      48.189   6.694  12.469  0.00  0.00    +0.000 A 
ATOM      4  C   UNL     1      46.917   6.702  11.897  0.00  0.00    +0.000 A 
ATOM      5  C   UNL     1      46.022   7.751  12.155  0.00  0.00    +0.000 A 
ATOM      6  C   UNL     1      46.427   8.795  12.993  0.00  0.00    +0.000 A 
ATOM      7  C   UNL     1      47.706   8.796  13.552  0.00  0.00    +0.000 A 
BRANCH   5   8
ATOM      8  C   UNL     1      44.642   7.736  11.549  0.00  0.00    +0.000 C 
BRANCH   8   9
ATOM      9  N   UNL     1      44.496   6.576  10.672  0.00  0.00    +0.000 NA
ATOM     10  H   UNL     1      45.380   6.072  10.676  0.00  0.00    +0.000 HD
BRANCH   9  11
ATOM     11  C   UNL     1      43.413   5.699  11.111  0.00  0.00    +0.000 C 
BRANCH  11  12
ATOM     12  C   UNL     1      43.600   4.246  10.598  0.00  0.00    +0.000 C 
ATOM     13  C   UNL     1      45.023   3.708  10.707  0.00  0.00    +0.000 C 
ATOM     14  C   UNL     1      45.134   3.330  12.171  0.00  0.00    +0.000 C 
ATOM     15  C   UNL     1      43.720   2.914  12.554  0.00  0.00    +0.000 C 
ATOM     16  N   UNL     1      42.861   3.273  11.421  0.00  0.00    +0.000 NA
ATOM     17  H   UNL     1      41.968   3.648  11.736  0.00  0.00    +0.000 HD
ENDBRANCH  11  12
ENDBRANCH   9  11
ENDBRANCH   8   9
ENDBRANCH   5   8
ENDBRANCH   1   2
BRANCH   1  18
ATOM     18  N   UNL     1      49.985   6.986  15.187  0.00  0.00    +0.000 NA
ATOM     19  H   UNL     1      49.718   6.023  14.990  0.00  0.00    +0.000 HD
BRANCH  18  20
ATOM     20  C   UNL     1      49.111   7.506  16.251  0.00  0.00    +0.000 C 
BRANCH  20  21
ATOM     21  C   UNL     1      49.023   6.467  17.367  0.00  0.00    +0.000 A 
ATOM     22  C   UNL     1      49.560   6.652  18.632  0.00  0.00    +0.000 A 
ATOM     23  S   UNL     1      49.439   5.292  19.646  0.00  0.00    +0.000 S 
ATOM     24  C   UNL     1      48.629   4.405  18.447  0.00  0.00    +0.000 A 
ATOM     25  N   UNL     1      48.257   3.117  18.679  0.00  0.00    +0.000 NA
ATOM     26  C   UNL     1      47.656   2.553  17.689  0.00  0.00    +0.000 A 
ATOM     27  N   UNL     1      47.375   3.166  16.497  0.00  0.00    +0.000 N 
ATOM     28  C   UNL     1      47.675   4.493  16.233  0.00  0.00    +0.000 A 
ATOM     29  O   UNL     1      47.272   5.045  15.213  0.00  0.00    +0.000 OA
ATOM     30  C   UNL     1      48.418   5.147  17.294  0.00  0.00    +0.000 A 
ATOM     31  H   UNL     1      46.849   2.684  15.783  0.00  0.00    +0.000 HD
ENDBRANCH  20  21
BRANCH  20  33
ATOM     32  C   UNL     1      48.352   9.834  17.144  0.00  0.00    +0.000 C 
ATOM     33  C   UNL     1      49.508   8.912  16.776  0.00  0.00    +0.000 C 
ENDBRANCH  20  33
ENDBRANCH  18  20
ENDBRANCH   1  18
TORSDOF 9
ENDMDL
MODEL 4
REMARK VINA RESULT:    -6.056      3.422      8.025
REMARK INTER + INTRA:         -10.778
REMARK INTER:                  -9.290
REMARK INTRA:                  -1.488
REMARK UNBOUND:                -1.537
REMARK  Name = 
REMARK  10 active torsions:
REMARK  status: ('A' for Active; 'I' for Inactive)
REMARK    1  A    between atoms: C_1  and  C_2
REMARK    2  A    between atoms: C_2  and  C_3
REMARK    3  A    between atoms: C_3  and  N_4
REMARK    4  A    between atoms: C_3  and  C_20
REMARK    5  A    between atoms: N_4  and  C_5
REMARK    6  A    between atoms: C_5  and  C_6
REMARK    7  A    between atoms: C_9  and  C_10
REMARK    8  A    between atoms: C_10  and  N_11
REMARK    9  A    between atoms: N_11  and  C_12
REMARK   10  A    between atoms: C_12  and  C_13
REMARK                            x       y       z     vdW  Elec       q    Type
REMARK                         _______ _______ _______ _____ _____    ______ ____
ROOT
ATOM      1  C   UNL     1      48.076   8.005  12.161  0.00  0.00    +0.000 C 
ENDROOT
BRANCH   1   2
ATOM      2  C   UNL     1      48.756   7.762  13.489  0.00  0.00    +0.000 A 
ATOM      3  C   UNL     1      50.152   7.727  13.588  0.00  0.00    +0.000 A 
ATOM      4  C   UNL     1      50.767   7.522  14.823  0.00  0.00    +0.000 A 
ATOM      5  C   UNL     1      50.001   7.371  15.988  0.00  0.00    +0.000 A 
ATOM      6  C   UNL     1      48.606   7.426  15.893  0.00  0.00    +0.000 A 
ATOM      7  C   UNL     1      47.991   7.615  14.655  0.00  0.00    +0.000 A 
BRANCH   5   8
ATOM      8  C   UNL     1      50.678   7.172  17.320  0.00  0.00    +0.000 C 
BRANCH   8   9
ATOM      9  N   UNL     1      49.692   6.786  18.327  0.00  0.00    +0.000 NA
ATOM     10  H   UNL     1      48.768   6.953  17.934  0.00  0.00    +0.000 HD
BRANCH   9  11
ATOM     11  C   UNL     1      49.831   5.385  18.713  0.00  0.00    +0.000 C 
BRANCH  11  12
ATOM     12  C   UNL     1      48.505   4.803  19.271  0.00  0.00    +0.000 C 
ATOM     13  C   UNL     1      47.257   5.190  18.485  0.00  0.00    +0.000 C 
ATOM     14  C   UNL     1      47.300   4.256  17.292  0.00  0.00    +0.000 C 
ATOM     15  C   UNL     1      47.971   2.999  17.831  0.00  0.00    +0.000 C 
ATOM     16  N   UNL     1      48.464   3.334  19.171  0.00  0.00    +0.000 NA
ATOM     17  H   UNL     1      49.377   2.919  19.344  0.00  0.00    +0.000 HD
ENDBRANCH  11  12
ENDBRANCH   9  11
ENDBRANCH   8   9
ENDBRANCH   5   8
ENDBRANCH   1   2
BRANCH   1  18
ATOM     18  N   UNL     1      47.217   6.889  11.770  0.00  0.00    +0.000 NA
ATOM     19  H   UNL     1      47.608   6.449  10.939  0.00  0.00    +0.000 HD
BRANCH  18  20
ATOM     20  C   UNL     1      45.814   7.239  11.495  0.00  0.00    +0.000 C 
BRANCH  20  21
ATOM     21  C   UNL     1      44.954   5.986  11.652  0.00  0.00    +0.000 A 
ATOM     22  C   UNL     1      44.164   5.731  12.763  0.00  0.00    +0.000 A 
ATOM     23  S   UNL     1      43.408   4.208  12.747  0.00  0.00    +0.000 S 
ATOM     24  C   UNL     1      44.078   3.834  11.233  0.00  0.00    +0.000 A 
ATOM     25  N   UNL     1      43.833   2.628  10.652  0.00  0.00    +0.000 NA
ATOM     26  C   UNL     1      44.403   2.467   9.508  0.00  0.00    +0.000 A 
ATOM     27  N   UNL     1      45.177   3.407   8.883  0.00  0.00    +0.000 N 
ATOM     28  C   UNL     1      45.405   4.672   9.400  0.00  0.00    +0.000 A 
ATOM     29  O   UNL     1      45.977   5.536   8.741  0.00  0.00    +0.000 OA
ATOM     30  C   UNL     1      44.842   4.874  10.723  0.00  0.00    +0.000 A 
ATOM     31  H   UNL     1      45.547   3.237   7.959  0.00  0.00    +0.000 HD
ENDBRANCH  20  21
BRANCH  20  33
ATOM     32  C   UNL     1      44.711   9.601  11.522  0.00  0.00    +0.000 C 
ATOM     33  C   UNL     1      45.277   8.437  12.325  0.00  0.00    +0.000 C 
ENDBRANCH  20  33
ENDBRANCH  18  20
ENDBRANCH   1  18
TORSDOF 9
ENDMDL
MODEL 5
REMARK VINA RESULT:    -6.053      2.227      3.140
REMARK INTER + INTRA:         -10.775
REMARK INTER:                  -9.458
REMARK INTRA:                  -1.317
REMARK UNBOUND:                -1.537
REMARK  Name = 
REMARK  10 active torsions:
REMARK  status: ('A' for Active; 'I' for Inactive)
REMARK    1  A    between atoms: C_1  and  C_2
REMARK    2  A    between atoms: C_2  and  C_3
REMARK    3  A    between atoms: C_3  and  N_4
REMARK    4  A    between atoms: C_3  and  C_20
REMARK    5  A    between atoms: N_4  and  C_5
REMARK    6  A    between atoms: C_5  and  C_6
REMARK    7  A    between atoms: C_9  and  C_10
REMARK    8  A    between atoms: C_10  and  N_11
REMARK    9  A    between atoms: N_11  and  C_12
REMARK   10  A    between atoms: C_12  and  C_13
REMARK                            x       y       z     vdW  Elec       q    Type
REMARK                         _______ _______ _______ _____ _____    ______ ____
ROOT
ATOM      1  C   UNL     1      48.692   8.269  15.724  0.00  0.00    +0.000 C 
ENDROOT
BRANCH   1   2
ATOM      2  C   UNL     1      48.016   7.703  14.497  0.00  0.00    +0.000 A 
ATOM      3  C   UNL     1      48.009   6.324  14.251  0.00  0.00    +0.000 A 
ATOM      4  C   UNL     1      47.365   5.813  13.124  0.00  0.00    +0.000 A 
ATOM      5  C   UNL     1      46.694   6.664  12.235  0.00  0.00    +0.000 A 
ATOM      6  C   UNL     1      46.684   8.040  12.491  0.00  0.00    +0.000 A 
ATOM      7  C   UNL     1      47.342   8.553  13.609  0.00  0.00    +0.000 A 
BRANCH   5   8
ATOM      8  C   UNL     1      45.982   6.096  11.033  0.00  0.00    +0.000 C 
BRANCH   8   9
ATOM      9  N   UNL     1      44.948   5.158  11.465  0.00  0.00    +0.000 NA
ATOM     10  H   UNL     1      44.066   5.460  11.057  0.00  0.00    +0.000 HD
BRANCH   9  11
ATOM     11  C   UNL     1      45.252   3.790  11.053  0.00  0.00    +0.000 C 
BRANCH  11  12
ATOM     12  C   UNL     1      44.306   3.301   9.924  0.00  0.00    +0.000 C 
ATOM     13  C   UNL     1      44.543   3.952   8.565  0.00  0.00    +0.000 C 
ATOM     14  C   UNL     1      45.751   3.207   8.034  0.00  0.00    +0.000 C 
ATOM     15  C   UNL     1      45.614   1.811   8.627  0.00  0.00    +0.000 C 
ATOM     16  N   UNL     1      44.521   1.880   9.602  0.00  0.00    +0.000 NA
ATOM     17  H   UNL     1      44.733   1.334  10.435  0.00  0.00    +0.000 HD
ENDBRANCH  11  12
ENDBRANCH   9  11
ENDBRANCH   8   9
ENDBRANCH   5   8
ENDBRANCH   1   2
BRANCH   1  18
ATOM     18  N   UNL     1      47.930   8.004  16.944  0.00  0.00    +0.000 NA
ATOM     19  H   UNL     1      47.330   8.804  17.136  0.00  0.00    +0.000 HD
BRANCH  18  20
ATOM     20  C   UNL     1      48.737   7.727  18.144  0.00  0.00    +0.000 C 
BRANCH  20  21
ATOM     21  C   UNL     1      49.559   6.463  17.904  0.00  0.00    +0.000 A 
ATOM     22  C   UNL     1      50.945   6.450  17.838  0.00  0.00    +0.000 A 
ATOM     23  S   UNL     1      51.609   4.938  17.432  0.00  0.00    +0.000 S 
ATOM     24  C   UNL     1      50.070   4.224  17.360  0.00  0.00    +0.000 A 
ATOM     25  N   UNL     1      49.938   2.911  17.027  0.00  0.00    +0.000 NA
ATOM     26  C   UNL     1      48.720   2.492  17.003  0.00  0.00    +0.000 A 
ATOM     27  N   UNL     1      47.626   3.259  17.301  0.00  0.00    +0.000 N 
ATOM     28  C   UNL     1      47.710   4.581  17.707  0.00  0.00    +0.000 A 
ATOM     29  O   UNL     1      46.721   5.188  18.109  0.00  0.00    +0.000 OA
ATOM     30  C   UNL     1      49.059   5.118  17.678  0.00  0.00    +0.000 A 
ATOM     31  H   UNL     1      46.702   2.853  17.318  0.00  0.00    +0.000 HD
ENDBRANCH  20  21
BRANCH  20  33
ATOM     32  C   UNL     1      49.842   9.014  20.123  0.00  0.00    +0.000 C 
ATOM     33  C   UNL     1      49.606   8.922  18.621  0.00  0.00    +0.000 C 
ENDBRANCH  20  33
ENDBRANCH  18  20
ENDBRANCH   1  18
TORSDOF 9
ENDMDL
MODEL 6
REMARK VINA RESULT:    -5.965      3.192      8.722
REMARK INTER + INTRA:         -10.640
REMARK INTER:                  -9.717
REMARK INTRA:                  -0.923
REMARK UNBOUND:                -1.537
REMARK  Name = 
REMARK  10 active torsions:
REMARK  status: ('A' for Active; 'I' for Inactive)
REMARK    1  A    between atoms: C_1  and  C_2
REMARK    2  A    between atoms: C_2  and  C_3
REMARK    3  A    between atoms: C_3  and  N_4
REMARK    4  A    between atoms: C_3  and  C_20
REMARK    5  A    between atoms: N_4  and  C_5
REMARK    6  A    between atoms: C_5  and  C_6
REMARK    7  A    between atoms: C_9  and  C_10
REMARK    8  A    between atoms: C_10  and  N_11
REMARK    9  A    between atoms: N_11  and  C_12
REMARK   10  A    between atoms: C_12  and  C_13
REMARK                            x       y       z     vdW  Elec       q    Type
REMARK                         _______ _______ _______ _____ _____    ______ ____
ROOT
ATOM      1  C   UNL     1      47.387   6.030  13.182  0.00  0.00    +0.000 C 
ENDROOT
BRANCH   1   2
ATOM      2  C   UNL     1      47.695   5.633  14.607  0.00  0.00    +0.000 A 
ATOM      3  C   UNL     1      47.112   4.497  15.181  0.00  0.00    +0.000 A 
ATOM      4  C   UNL     1      47.421   4.131  16.491  0.00  0.00    +0.000 A 
ATOM      5  C   UNL     1      48.337   4.878  17.246  0.00  0.00    +0.000 A 
ATOM      6  C   UNL     1      48.936   6.002  16.666  0.00  0.00    +0.000 A 
ATOM      7  C   UNL     1      48.614   6.378  15.361  0.00  0.00    +0.000 A 
BRANCH   5   8
ATOM      8  C   UNL     1      48.680   4.459  18.653  0.00  0.00    +0.000 C 
BRANCH   8   9
ATOM      9  N   UNL     1      49.926   5.097  19.073  0.00  0.00    +0.000 NA
ATOM     10  H   UNL     1      49.759   5.540  19.975  0.00  0.00    +0.000 HD
BRANCH   9  11
ATOM     11  C   UNL     1      51.018   4.134  19.179  0.00  0.00    +0.000 C 
BRANCH  11  12
ATOM     12  C   UNL     1      51.730   3.913  17.817  0.00  0.00    +0.000 C 
ATOM     13  C   UNL     1      53.199   3.516  17.921  0.00  0.00    +0.000 C 
ATOM     14  C   UNL     1      53.133   2.040  18.259  0.00  0.00    +0.000 C 
ATOM     15  C   UNL     1      51.863   1.560  17.569  0.00  0.00    +0.000 C 
ATOM     16  N   UNL     1      51.173   2.761  17.087  0.00  0.00    +0.000 NA
ATOM     17  H   UNL     1      50.166   2.686  17.214  0.00  0.00    +0.000 HD
ENDBRANCH  11  12
ENDBRANCH   9  11
ENDBRANCH   8   9
ENDBRANCH   5   8
ENDBRANCH   1   2
BRANCH   1  18
ATOM     18  N   UNL     1      46.082   6.680  13.062  0.00  0.00    +0.000 NA
ATOM     19  H   UNL     1      45.431   6.230  13.702  0.00  0.00    +0.000 HD
BRANCH  18  20
ATOM     20  C   UNL     1      45.493   6.668  11.713  0.00  0.00    +0.000 C 
BRANCH  20  21
ATOM     21  C   UNL     1      44.775   5.337  11.501  0.00  0.00    +0.000 A 
ATOM     22  C   UNL     1      43.913   4.773  12.430  0.00  0.00    +0.000 A 
ATOM     23  S   UNL     1      43.348   3.226  12.007  0.00  0.00    +0.000 S 
ATOM     24  C   UNL     1      44.206   3.256  10.543  0.00  0.00    +0.000 A 
ATOM     25  N   UNL     1      44.165   2.187   9.701  0.00  0.00    +0.000 NA
ATOM     26  C   UNL     1      44.862   2.333   8.627  0.00  0.00    +0.000 A 
ATOM     27  N   UNL     1      45.579   3.455   8.310  0.00  0.00    +0.000 N 
ATOM     28  C   UNL     1      45.603   4.593   9.101  0.00  0.00    +0.000 A 
ATOM     29  O   UNL     1      46.134   5.629   8.709  0.00  0.00    +0.000 OA
ATOM     30  C   UNL     1      44.890   4.448  10.357  0.00  0.00    +0.000 A 
ATOM     31  H   UNL     1      46.058   3.526   7.424  0.00  0.00    +0.000 HD
ENDBRANCH  20  21
BRANCH  20  33
ATOM     32  C   UNL     1      45.100   9.239  11.884  0.00  0.00    +0.000 C 
ATOM     33  C   UNL     1      44.588   7.890  11.398  0.00  0.00    +0.000 C 
ENDBRANCH  20  33
ENDBRANCH  18  20
ENDBRANCH   1  18
TORSDOF 9
ENDMDL
MODEL 7
REMARK VINA RESULT:    -5.731      3.059      7.393
REMARK INTER + INTRA:         -10.284
REMARK INTER:                  -8.425
REMARK INTRA:                  -1.859
REMARK UNBOUND:                -1.537
REMARK  Name = 
REMARK  10 active torsions:
REMARK  status: ('A' for Active; 'I' for Inactive)
REMARK    1  A    between atoms: C_1  and  C_2
REMARK    2  A    between atoms: C_2  and  C_3
REMARK    3  A    between atoms: C_3  and  N_4
REMARK    4  A    between atoms: C_3  and  C_20
REMARK    5  A    between atoms: N_4  and  C_5
REMARK    6  A    between atoms: C_5  and  C_6
REMARK    7  A    between atoms: C_9  and  C_10
REMARK    8  A    between atoms: C_10  and  N_11
REMARK    9  A    between atoms: N_11  and  C_12
REMARK   10  A    between atoms: C_12  and  C_13
REMARK                            x       y       z     vdW  Elec       q    Type
REMARK                         _______ _______ _______ _____ _____    ______ ____
ROOT
ATOM      1  C   UNL     1      48.221   9.611  14.976  0.00  0.00    +0.000 C 
ENDROOT
BRANCH   1   2
ATOM      2  C   UNL     1      48.890   8.890  16.124  0.00  0.00    +0.000 A 
ATOM      3  C   UNL     1      48.245   8.749  17.359  0.00  0.00    +0.000 A 
ATOM      4  C   UNL     1      48.866   8.064  18.404  0.00  0.00    +0.000 A 
ATOM      5  C   UNL     1      50.132   7.487  18.229  0.00  0.00    +0.000 A 
ATOM      6  C   UNL     1      50.768   7.611  16.989  0.00  0.00    +0.000 A 
ATOM      7  C   UNL     1      50.154   8.310  15.949  0.00  0.00    +0.000 A 
BRANCH   5   8
ATOM      8  C   UNL     1      50.782   6.730  19.360  0.00  0.00    +0.000 C 
BRANCH   8   9
ATOM      9  N   UNL     1      50.933   5.324  18.995  0.00  0.00    +0.000 NA
ATOM     10  H   UNL     1      51.457   4.865  19.738  0.00  0.00    +0.000 HD
BRANCH   9  11
ATOM     11  C   UNL     1      49.640   4.670  18.812  0.00  0.00    +0.000 C 
BRANCH  11  12
ATOM     12  C   UNL     1      49.486   4.079  17.385  0.00  0.00    +0.000 C 
ATOM     13  C   UNL     1      48.961   2.648  17.339  0.00  0.00    +0.000 C 
ATOM     14  C   UNL     1      47.471   2.822  17.555  0.00  0.00    +0.000 C 
ATOM     15  C   UNL     1      47.163   4.176  16.929  0.00  0.00    +0.000 C 
ATOM     16  N   UNL     1      48.455   4.788  16.606  0.00  0.00    +0.000 NA
ATOM     17  H   UNL     1      48.453   5.786  16.805  0.00  0.00    +0.000 HD
ENDBRANCH  11  12
ENDBRANCH   9  11
ENDBRANCH   8   9
ENDBRANCH   5   8
ENDBRANCH   1   2
BRANCH   1  18
ATOM     18  N   UNL     1      47.154   8.813  14.373  0.00  0.00    +0.000 NA
ATOM     19  H   UNL     1      46.670   8.302  15.109  0.00  0.00    +0.000 HD
BRANCH  18  20
ATOM     20  C   UNL     1      47.589   7.852  13.346  0.00  0.00    +0.000 C 
BRANCH  20  21
ATOM     21  C   UNL     1      46.353   7.265  12.666  0.00  0.00    +0.000 A 
ATOM     22  C   UNL     1      45.428   8.025  11.966  0.00  0.00    +0.000 A 
ATOM     23  S   UNL     1      44.077   7.150  11.418  0.00  0.00    +0.000 S 
ATOM     24  C   UNL     1      44.688   5.703  12.064  0.00  0.00    +0.000 A 
ATOM     25  N   UNL     1      43.977   4.548  11.955  0.00  0.00    +0.000 NA
ATOM     26  C   UNL     1      44.547   3.524  12.490  0.00  0.00    +0.000 A 
ATOM     27  N   UNL     1      45.769   3.546  13.106  0.00  0.00    +0.000 N 
ATOM     28  C   UNL     1      46.561   4.680  13.188  0.00  0.00    +0.000 A 
ATOM     29  O   UNL     1      47.712   4.622  13.612  0.00  0.00    +0.000 OA
ATOM     30  C   UNL     1      45.928   5.875  12.661  0.00  0.00    +0.000 A 
ATOM     31  H   UNL     1      46.184   2.694  13.455  0.00  0.00    +0.000 HD
ENDBRANCH  20  21
BRANCH  20  33
ATOM     32  C   UNL     1      49.807   7.526  12.017  0.00  0.00    +0.000 C 
ATOM     33  C   UNL     1      48.614   8.421  12.328  0.00  0.00    +0.000 C 
ENDBRANCH  20  33
ENDBRANCH  18  20
ENDBRANCH   1  18
TORSDOF 9
ENDMDL
MODEL 8
REMARK VINA RESULT:    -5.660      3.497      7.709
REMARK INTER + INTRA:         -10.175
REMARK INTER:                  -8.527
REMARK INTRA:                  -1.647
REMARK UNBOUND:                -1.537
REMARK  Name = 
REMARK  10 active torsions:
REMARK  status: ('A' for Active; 'I' for Inactive)
REMARK    1  A    between atoms: C_1  and  C_2
REMARK    2  A    between atoms: C_2  and  C_3
REMARK    3  A    between atoms: C_3  and  N_4
REMARK    4  A    between atoms: C_3  and  C_20
REMARK    5  A    between atoms: N_4  and  C_5
REMARK    6  A    between atoms: C_5  and  C_6
REMARK    7  A    between atoms: C_9  and  C_10
REMARK    8  A    between atoms: C_10  and  N_11
REMARK    9  A    between atoms: N_11  and  C_12
REMARK   10  A    between atoms: C_12  and  C_13
REMARK                            x       y       z     vdW  Elec       q    Type
REMARK                         _______ _______ _______ _____ _____    ______ ____
ROOT
ATOM      1  C   UNL     1      48.399   9.911  14.374  0.00  0.00    +0.000 C 
ENDROOT
BRANCH   1   2
ATOM      2  C   UNL     1      48.763   9.277  15.697  0.00  0.00    +0.000 A 
ATOM      3  C   UNL     1      47.904   9.368  16.799  0.00  0.00    +0.000 A 
ATOM      4  C   UNL     1      48.243   8.761  18.008  0.00  0.00    +0.000 A 
ATOM      5  C   UNL     1      49.434   8.031  18.134  0.00  0.00    +0.000 A 
ATOM      6  C   UNL     1      50.283   7.924  17.027  0.00  0.00    +0.000 A 
ATOM      7  C   UNL     1      49.952   8.545  15.822  0.00  0.00    +0.000 A 
BRANCH   5   8
ATOM      8  C   UNL     1      49.778   7.361  19.440  0.00  0.00    +0.000 C 
BRANCH   8   9
ATOM      9  N   UNL     1      48.645   6.562  19.903  0.00  0.00    +0.000 NA
ATOM     10  H   UNL     1      47.792   7.052  19.639  0.00  0.00    +0.000 HD
BRANCH   9  11
ATOM     11  C   UNL     1      48.656   5.221  19.323  0.00  0.00    +0.000 C 
BRANCH  11  12
ATOM     12  C   UNL     1      47.805   5.143  18.027  0.00  0.00    +0.000 C 
ATOM     13  C   UNL     1      48.563   4.660  16.794  0.00  0.00    +0.000 C 
ATOM     14  C   UNL     1      48.614   3.158  16.990  0.00  0.00    +0.000 C 
ATOM     15  C   UNL     1      47.329   2.840  17.742  0.00  0.00    +0.000 C 
ATOM     16  N   UNL     1      46.743   4.127  18.127  0.00  0.00    +0.000 NA
ATOM     17  H   UNL     1      46.345   4.089  19.063  0.00  0.00    +0.000 HD
ENDBRANCH  11  12
ENDBRANCH   9  11
ENDBRANCH   8   9
ENDBRANCH   5   8
ENDBRANCH   1   2
BRANCH   1  18
ATOM     18  N   UNL     1      47.454   9.095  13.613  0.00  0.00    +0.000 NA
ATOM     19  H   UNL     1      46.690   8.819  14.228  0.00  0.00    +0.000 HD
BRANCH  18  20
ATOM     20  C   UNL     1      48.019   7.883  12.999  0.00  0.00    +0.000 C 
BRANCH  20  21
ATOM     21  C   UNL     1      46.959   6.783  13.013  0.00  0.00    +0.000 A 
ATOM     22  C   UNL     1      47.152   5.538  13.593  0.00  0.00    +0.000 A 
ATOM     23  S   UNL     1      45.865   4.452  13.358  0.00  0.00    +0.000 S 
ATOM     24  C   UNL     1      44.975   5.613  12.497  0.00  0.00    +0.000 A 
ATOM     25  N   UNL     1      43.754   5.300  11.983  0.00  0.00    +0.000 NA
ATOM     26  C   UNL     1      43.184   6.266  11.349  0.00  0.00    +0.000 A 
ATOM     27  N   UNL     1      43.714   7.519  11.199  0.00  0.00    +0.000 N 
ATOM     28  C   UNL     1      44.921   7.908  11.756  0.00  0.00    +0.000 A 
ATOM     29  O   UNL     1      45.287   9.080  11.727  0.00  0.00    +0.000 OA
ATOM     30  C   UNL     1      45.634   6.831  12.420  0.00  0.00    +0.000 A 
ATOM     31  H   UNL     1      43.188   8.248  10.738  0.00  0.00    +0.000 HD
ENDBRANCH  20  21
BRANCH  20  33
ATOM     32  C   UNL     1      50.107   7.767  11.443  0.00  0.00    +0.000 C 
ATOM     33  C   UNL     1      48.629   8.104  11.588  0.00  0.00    +0.000 C 
ENDBRANCH  20  33
ENDBRANCH  18  20
ENDBRANCH   1  18
TORSDOF 9
ENDMDL
MODEL 9
REMARK VINA RESULT:    -5.539      3.167      4.504
REMARK INTER + INTRA:          -9.990
REMARK INTER:                  -8.664
REMARK INTRA:                  -1.325
REMARK UNBOUND:                -1.537
REMARK  Name = 
REMARK  10 active torsions:
REMARK  status: ('A' for Active; 'I' for Inactive)
REMARK    1  A    between atoms: C_1  and  C_2
REMARK    2  A    between atoms: C_2  and  C_3
REMARK    3  A    between atoms: C_3  and  N_4
REMARK    4  A    between atoms: C_3  and  C_20
REMARK    5  A    between atoms: N_4  and  C_5
REMARK    6  A    between atoms: C_5  and  C_6
REMARK    7  A    between atoms: C_9  and  C_10
REMARK    8  A    between atoms: C_10  and  N_11
REMARK    9  A    between atoms: N_11  and  C_12
REMARK   10  A    between atoms: C_12  and  C_13
REMARK                            x       y       z     vdW  Elec       q    Type
REMARK                         _______ _______ _______ _____ _____    ______ ____
ROOT
ATOM      1  C   UNL     1      47.699   9.659  13.152  0.00  0.00    +0.000 C 
ENDROOT
BRANCH   1   2
ATOM      2  C   UNL     1      46.684   8.637  12.694  0.00  0.00    +0.000 A 
ATOM      3  C   UNL     1      45.618   9.003  11.863  0.00  0.00    +0.000 A 
ATOM      4  C   UNL     1      44.700   8.045  11.431  0.00  0.00    +0.000 A 
ATOM      5  C   UNL     1      44.842   6.700  11.800  0.00  0.00    +0.000 A 
ATOM      6  C   UNL     1      45.919   6.330  12.614  0.00  0.00    +0.000 A 
ATOM      7  C   UNL     1      46.827   7.291  13.059  0.00  0.00    +0.000 A 
BRANCH   5   8
ATOM      8  C   UNL     1      43.855   5.671  11.308  0.00  0.00    +0.000 C 
BRANCH   8   9
ATOM      9  N   UNL     1      44.565   4.470  10.872  0.00  0.00    +0.000 NA
ATOM     10  H   UNL     1      43.876   3.729  10.756  0.00  0.00    +0.000 HD
BRANCH   9  11
ATOM     11  C   UNL     1      45.285   4.691   9.621  0.00  0.00    +0.000 C 
BRANCH  11  12
ATOM     12  C   UNL     1      44.659   3.896   8.444  0.00  0.00    +0.000 C 
ATOM     13  C   UNL     1      45.646   3.477   7.359  0.00  0.00    +0.000 C 
ATOM     14  C   UNL     1      46.329   2.268   7.966  0.00  0.00    +0.000 C 
ATOM     15  C   UNL     1      45.254   1.637   8.842  0.00  0.00    +0.000 C 
ATOM     16  N   UNL     1      44.138   2.588   8.879  0.00  0.00    +0.000 NA
ATOM     17  H   UNL     1      43.724   2.638   9.807  0.00  0.00    +0.000 HD
ENDBRANCH  11  12
ENDBRANCH   9  11
ENDBRANCH   8   9
ENDBRANCH   5   8
ENDBRANCH   1   2
BRANCH   1  18
ATOM     18  N   UNL     1      48.954   9.038  13.573  0.00  0.00    +0.000 NA
ATOM     19  H   UNL     1      48.763   8.083  13.872  0.00  0.00    +0.000 HD
BRANCH  18  20
ATOM     20  C   UNL     1      49.668   9.731  14.658  0.00  0.00    +0.000 C 
BRANCH  20  21
ATOM     21  C   UNL     1      49.014   9.369  15.989  0.00  0.00    +0.000 A 
ATOM     22  C   UNL     1      48.483  10.305  16.864  0.00  0.00    +0.000 A 
ATOM     23  S   UNL     1      47.932   9.652  18.334  0.00  0.00    +0.000 S 
ATOM     24  C   UNL     1      48.347   8.079  17.851  0.00  0.00    +0.000 A 
ATOM     25  N   UNL     1      48.148   7.027  18.691  0.00  0.00    +0.000 NA
ATOM     26  C   UNL     1      48.510   5.889  18.208  0.00  0.00    +0.000 A 
ATOM     27  N   UNL     1      49.031   5.704  16.956  0.00  0.00    +0.000 N 
ATOM     28  C   UNL     1      49.194   6.730  16.039  0.00  0.00    +0.000 A 
ATOM     29  O   UNL     1      49.523   6.500  14.878  0.00  0.00    +0.000 OA
ATOM     30  C   UNL     1      48.868   8.043  16.566  0.00  0.00    +0.000 A 
ATOM     31  H   UNL     1      49.240   4.775  16.618  0.00  0.00    +0.000 HD
ENDBRANCH  20  21
BRANCH  20  33
ATOM     32  C   UNL     1      51.752   8.648  13.527  0.00  0.00    +0.000 C 
ATOM     33  C   UNL     1      51.204   9.498  14.666  0.00  0.00    +0.000 C 
ENDBRANCH  20  33
ENDBRANCH  18  20
ENDBRANCH   1  18
TORSDOF 9
ENDMDL
