MODEL 1
REMARK VINA RESULT:    -8.489      0.000      0.000
REMARK INTER + INTRA:         -11.744
REMARK INTER:                 -10.970
REMARK INTRA:                  -0.774
REMARK UNBOUND:                -0.774
REMARK  Name = 
REMARK  5 active torsions:
REMARK  status: ('A' for Active; 'I' for Inactive)
REMARK    1  A    between atoms: C_2  and  C_4
REMARK    2  A    between atoms: C_7  and  O_8
REMARK    3  A    between atoms: O_8  and  C_9
REMARK    4  A    between atoms: C_9  and  C_10
REMARK    5  A    between atoms: C_14  and  C_15
REMARK                            x       y       z     vdW  Elec       q    Type
REMARK                         _______ _______ _______ _____ _____    ______ ____
ROOT
ATOM      1  C   UNL     1      43.841   5.166  10.699  0.00  0.00    +0.000 C 
ENDROOT
BRANCH   1   2
ATOM      2  C   UNL     1      44.909   5.130  11.759  0.00  0.00    +0.000 A 
ATOM      3  C   UNL     1      44.763   4.308  12.868  0.00  0.00    +0.000 A 
ATOM      4  N   UNL     1      45.641   4.260  13.891  0.00  0.00    +0.000 NA
ATOM      5  C   UNL     1      46.717   5.081  13.808  0.00  0.00    +0.000 A 
ATOM      6  C   UNL     1      46.982   5.959  12.755  0.00  0.00    +0.000 A 
ATOM      7  C   UNL     1      46.033   5.965  11.721  0.00  0.00    +0.000 A 
BRANCH   6   8
ATOM      8  C   UNL     1      48.180   6.821  12.721  0.00  0.00    +0.000 A 
ATOM      9  C   UNL     1      48.560   7.534  11.575  0.00  0.00    +0.000 A 
ATOM     10  C   UNL     1      49.686   8.357  11.586  0.00  0.00    +0.000 A 
ATOM     11  C   UNL     1      50.415   8.456  12.758  0.00  0.00    +0.000 A 
ATOM     12  N   UNL     1      50.102   7.791  13.886  0.00  0.00    +0.000 NA
ATOM     13  C   UNL     1      49.005   6.994  13.836  0.00  0.00    +0.000 A 
ENDBRANCH   6   8
ENDBRANCH   1   2
BRANCH   1  14
ATOM     14  O   UNL     1      43.588   3.849  10.195  0.00  0.00    +0.000 OA
BRANCH  14  18
ATOM     15  C   UNL     1      46.436   2.570   7.514  0.00  0.00    +0.000 A 
ATOM     16  C   UNL     1      45.903   1.668   8.436  0.00  0.00    +0.000 A 
ATOM     17  C   UNL     1      44.942   2.114   9.344  0.00  0.00    +0.000 A 
ATOM     18  C   UNL     1      44.552   3.444   9.293  0.00  0.00    +0.000 A 
ATOM     19  N   UNL     1      45.061   4.339   8.422  0.00  0.00    +0.000 NA
ATOM     20  C   UNL     1      45.999   3.886   7.558  0.00  0.00    +0.000 A 
BRANCH  15  22
ATOM     21  N   UNL     1      47.436   2.895   5.324  0.00  0.00    +0.000 N 
ATOM     22  C   UNL     1      47.449   2.204   6.503  0.00  0.00    +0.000 C 
ATOM     23  O   UNL     1      48.294   1.350   6.729  0.00  0.00    +0.000 OA
ATOM     24  H   UNL     1      48.212   2.715   4.697  0.00  0.00    +0.000 HD
ATOM     25  H   UNL     1      46.934   3.763   5.205  0.00  0.00    +0.000 HD
ENDBRANCH  15  22
ENDBRANCH  14  18
ENDBRANCH   1  14
TORSDOF 5
ENDMDL
MODEL 2
REMARK VINA RESULT:    -8.444      1.268      1.375
REMARK INTER + INTRA:         -11.687
REMARK INTER:                 -11.122
REMARK INTRA:                  -0.564
REMARK UNBOUND:                -0.774
REMARK  Name = 
REMARK  5 active torsions:
REMARK  status: ('A' for Active; 'I' for Inactive)
REMARK    1  A    between atoms: C_2  and  C_4
REMARK    2  A    between atoms: C_7  and  O_8
REMARK    3  A    between atoms: O_8  and  C_9
REMARK    4  A    between atoms: C_9  and  C_10
REMARK    5  A    between atoms: C_14  and  C_15
REMARK                            x       y       z     vdW  Elec       q    Type
REMARK                         _______ _______ _______ _____ _____    ______ ____
ROOT
ATOM      1  C   UNL     1      43.625   4.225  11.211  0.00  0.00    +0.000 C 
ENDROOT
BRANCH   1   2
ATOM      2  C   UNL     1      44.883   4.610  11.942  0.00  0.00    +0.000 A 
ATOM      3  C   UNL     1      45.423   3.760  12.898  0.00  0.00    +0.000 A 
ATOM      4  N   UNL     1      46.510   4.054  13.640  0.00  0.00    +0.000 NA
ATOM      5  C   UNL     1      47.086   5.262  13.424  0.00  0.00    +0.000 A 
ATOM      6  C   UNL     1      46.644   6.213  12.500  0.00  0.00    +0.000 A 
ATOM      7  C   UNL     1      45.508   5.851  11.760  0.00  0.00    +0.000 A 
BRANCH   6   8
ATOM      8  C   UNL     1      47.322   7.509  12.307  0.00  0.00    +0.000 A 
ATOM      9  C   UNL     1      48.626   7.607  11.800  0.00  0.00    +0.000 A 
ATOM     10  C   UNL     1      49.227   8.851  11.611  0.00  0.00    +0.000 A 
ATOM     11  C   UNL     1      48.503   9.986  11.929  0.00  0.00    +0.000 A 
ATOM     12  N   UNL     1      47.251   9.953  12.423  0.00  0.00    +0.000 NA
ATOM     13  C   UNL     1      46.701   8.726  12.602  0.00  0.00    +0.000 A 
ENDBRANCH   6   8
ENDBRANCH   1   2
BRANCH   1  14
ATOM     14  O   UNL     1      43.684   4.658   9.847  0.00  0.00    +0.000 OA
BRANCH  14  18
ATOM     15  C   UNL     1      46.434   2.492   7.684  0.00  0.00    +0.000 A 
ATOM     16  C   UNL     1      45.586   1.834   8.575  0.00  0.00    +0.000 A 
ATOM     17  C   UNL     1      44.661   2.579   9.308  0.00  0.00    +0.000 A 
ATOM     18  C   UNL     1      44.621   3.953   9.119  0.00  0.00    +0.000 A 
ATOM     19  N   UNL     1      45.438   4.615   8.276  0.00  0.00    +0.000 NA
ATOM     20  C   UNL     1      46.334   3.873   7.584  0.00  0.00    +0.000 A 
BRANCH  15  22
ATOM     21  N   UNL     1      48.517   2.535   6.434  0.00  0.00    +0.000 N 
ATOM     22  C   UNL     1      47.442   1.803   6.853  0.00  0.00    +0.000 C 
ATOM     23  O   UNL     1      47.342   0.613   6.587  0.00  0.00    +0.000 OA
ATOM     24  H   UNL     1      49.254   2.015   5.971  0.00  0.00    +0.000 HD
ATOM     25  H   UNL     1      48.762   3.427   6.840  0.00  0.00    +0.000 HD
ENDBRANCH  15  22
ENDBRANCH  14  18
ENDBRANCH   1  14
TORSDOF 5
ENDMDL
MODEL 3
REMARK VINA RESULT:    -8.242      1.316      1.738
REMARK INTER + INTRA:         -11.425
REMARK INTER:                 -10.727
REMARK INTRA:                  -0.698
REMARK UNBOUND:                -0.774
REMARK  Name = 
REMARK  5 active torsions:
REMARK  status: ('A' for Active; 'I' for Inactive)
REMARK    1  A    between atoms: C_2  and  C_4
REMARK    2  A    between atoms: C_7  and  O_8
REMARK    3  A    between atoms: O_8  and  C_9
REMARK    4  A    between atoms: C_9  and  C_10
REMARK    5  A    between atoms: C_14  and  C_15
REMARK                            x       y       z     vdW  Elec       q    Type
REMARK                         _______ _______ _______ _____ _____    ______ ____
ROOT
ATOM      1  C   UNL     1      44.112   3.429  11.499  0.00  0.00    +0.000 C 
ENDROOT
BRANCH   1   2
ATOM      2  C   UNL     1      44.541   4.859  11.686  0.00  0.00    +0.000 A 
ATOM      3  C   UNL     1      43.662   5.894  11.393  0.00  0.00    +0.000 A 
ATOM      4  N   UNL     1      43.985   7.202  11.476  0.00  0.00    +0.000 NA
ATOM      5  C   UNL     1      45.252   7.493  11.861  0.00  0.00    +0.000 A 
ATOM      6  C   UNL     1      46.235   6.553  12.178  0.00  0.00    +0.000 A 
ATOM      7  C   UNL     1      45.840   5.210  12.073  0.00  0.00    +0.000 A 
BRANCH   6   8
ATOM      8  C   UNL     1      47.595   6.937  12.601  0.00  0.00    +0.000 A 
ATOM      9  C   UNL     1      48.464   7.661  11.771  0.00  0.00    +0.000 A 
ATOM     10  C   UNL     1      49.736   8.025  12.213  0.00  0.00    +0.000 A 
ATOM     11  C   UNL     1      50.116   7.659  13.492  0.00  0.00    +0.000 A 
ATOM     12  N   UNL     1      49.328   6.959  14.330  0.00  0.00    +0.000 NA
ATOM     13  C   UNL     1      48.102   6.615  13.864  0.00  0.00    +0.000 A 
ENDBRANCH   6   8
ENDBRANCH   1   2
BRANCH   1  14
ATOM     14  O   UNL     1      43.571   3.233  10.187  0.00  0.00    +0.000 OA
BRANCH  14  18
ATOM     15  C   UNL     1      46.520   2.569   7.395  0.00  0.00    +0.000 A 
ATOM     16  C   UNL     1      45.916   3.825   7.474  0.00  0.00    +0.000 A 
ATOM     17  C   UNL     1      44.913   4.037   8.421  0.00  0.00    +0.000 A 
ATOM     18  C   UNL     1      44.555   2.985   9.251  0.00  0.00    +0.000 A 
ATOM     19  N   UNL     1      45.113   1.759   9.187  0.00  0.00    +0.000 NA
ATOM     20  C   UNL     1      46.075   1.574   8.254  0.00  0.00    +0.000 A 
BRANCH  15  22
ATOM     21  N   UNL     1      47.756   3.062   5.363  0.00  0.00    +0.000 N 
ATOM     22  C   UNL     1      47.596   2.238   6.440  0.00  0.00    +0.000 C 
ATOM     23  O   UNL     1      48.345   1.289   6.630  0.00  0.00    +0.000 OA
ATOM     24  H   UNL     1      48.574   2.889   4.789  0.00  0.00    +0.000 HD
ATOM     25  H   UNL     1      47.338   3.980   5.311  0.00  0.00    +0.000 HD
ENDBRANCH  15  22
ENDBRANCH  14  18
ENDBRANCH   1  14
TORSDOF 5
ENDMDL
MODEL 4
REMARK VINA RESULT:    -8.201      2.137      2.363
REMARK INTER + INTRA:         -11.371
REMARK INTER:                 -10.577
REMARK INTRA:                  -0.795
REMARK UNBOUND:                -0.774
REMARK  Name = 
REMARK  5 active torsions:
REMARK  status: ('A' for Active; 'I' for Inactive)
REMARK    1  A    between atoms: C_2  and  C_4
REMARK    2  A    between atoms: C_7  and  O_8
REMARK    3  A    between atoms: O_8  and  C_9
REMARK    4  A    between atoms: C_9  and  C_10
REMARK    5  A    between atoms: C_14  and  C_15
REMARK                            x       y       z     vdW  Elec       q    Type
REMARK                         _______ _______ _______ _____ _____    ______ ____
ROOT
ATOM      1  C   UNL     1      43.813   4.249  11.361  0.00  0.00    +0.000 C 
ENDROOT
BRANCH   1   2
ATOM      2  C   UNL     1      44.897   5.104  11.958  0.00  0.00    +0.000 A 
ATOM      3  C   UNL     1      45.822   4.549  12.832  0.00  0.00    +0.000 A 
ATOM      4  N   UNL     1      46.787   5.255  13.456  0.00  0.00    +0.000 NA
ATOM      5  C   UNL     1      46.827   6.587  13.204  0.00  0.00    +0.000 A 
ATOM      6  C   UNL     1      45.956   7.273  12.354  0.00  0.00    +0.000 A 
ATOM      7  C   UNL     1      44.974   6.485  11.734  0.00  0.00    +0.000 A 
BRANCH   6   8
ATOM      8  C   UNL     1      46.059   8.725  12.114  0.00  0.00    +0.000 A 
ATOM      9  C   UNL     1      44.944   9.517  11.802  0.00  0.00    +0.000 A 
ATOM     10  C   UNL     1      45.076  10.891  11.604  0.00  0.00    +0.000 A 
ATOM     11  C   UNL     1      46.334  11.454  11.727  0.00  0.00    +0.000 A 
ATOM     12  N   UNL     1      47.440  10.744  12.018  0.00  0.00    +0.000 NA
ATOM     13  C   UNL     1      47.276   9.410  12.197  0.00  0.00    +0.000 A 
ENDBRANCH   6   8
ENDBRANCH   1   2
BRANCH   1  14
ATOM     14  O   UNL     1      43.667   4.525   9.964  0.00  0.00    +0.000 OA
BRANCH  14  18
ATOM     15  C   UNL     1      46.410   2.457   7.700  0.00  0.00    +0.000 A 
ATOM     16  C   UNL     1      45.626   1.771   8.629  0.00  0.00    +0.000 A 
ATOM     17  C   UNL     1      44.703   2.484   9.395  0.00  0.00    +0.000 A 
ATOM     18  C   UNL     1      44.601   3.853   9.201  0.00  0.00    +0.000 A 
ATOM     19  N   UNL     1      45.355   4.542   8.321  0.00  0.00    +0.000 NA
ATOM     20  C   UNL     1      46.251   3.832   7.596  0.00  0.00    +0.000 A 
BRANCH  15  22
ATOM     21  N   UNL     1      48.502   2.538   6.466  0.00  0.00    +0.000 N 
ATOM     22  C   UNL     1      47.409   1.803   6.830  0.00  0.00    +0.000 C 
ATOM     23  O   UNL     1      47.288   0.635   6.488  0.00  0.00    +0.000 OA
ATOM     24  H   UNL     1      49.231   2.034   5.975  0.00  0.00    +0.000 HD
ATOM     25  H   UNL     1      48.762   3.396   6.931  0.00  0.00    +0.000 HD
ENDBRANCH  15  22
ENDBRANCH  14  18
ENDBRANCH   1  14
TORSDOF 5
ENDMDL
MODEL 5
REMARK VINA RESULT:    -8.071      1.753      2.569
REMARK INTER + INTRA:         -11.203
REMARK INTER:                 -10.632
REMARK INTRA:                  -0.572
REMARK UNBOUND:                -0.774
REMARK  Name = 
REMARK  5 active torsions:
REMARK  status: ('A' for Active; 'I' for Inactive)
REMARK    1  A    between atoms: C_2  and  C_4
REMARK    2  A    between atoms: C_7  and  O_8
REMARK    3  A    between atoms: O_8  and  C_9
REMARK    4  A    between atoms: C_9  and  C_10
REMARK    5  A    between atoms: C_14  and  C_15
REMARK                            x       y       z     vdW  Elec       q    Type
REMARK                         _______ _______ _______ _____ _____    ______ ____
ROOT
ATOM      1  C   UNL     1      43.916   3.566  11.334  0.00  0.00    +0.000 C 
ENDROOT
BRANCH   1   2
ATOM      2  C   UNL     1      44.719   4.684  11.941  0.00  0.00    +0.000 A 
ATOM      3  C   UNL     1      44.685   5.953  11.379  0.00  0.00    +0.000 A 
ATOM      4  N   UNL     1      45.419   6.994  11.824  0.00  0.00    +0.000 NA
ATOM      5  C   UNL     1      46.237   6.755  12.878  0.00  0.00    +0.000 A 
ATOM      6  C   UNL     1      46.372   5.528  13.533  0.00  0.00    +0.000 A 
ATOM      7  C   UNL     1      45.585   4.484  13.025  0.00  0.00    +0.000 A 
BRANCH   6   8
ATOM      8  C   UNL     1      47.276   5.337  14.684  0.00  0.00    +0.000 A 
ATOM      9  C   UNL     1      47.145   4.259  15.571  0.00  0.00    +0.000 A 
ATOM     10  C   UNL     1      48.031   4.098  16.636  0.00  0.00    +0.000 A 
ATOM     11  C   UNL     1      49.047   5.025  16.791  0.00  0.00    +0.000 A 
ATOM     12  N   UNL     1      49.218   6.082  15.974  0.00  0.00    +0.000 NA
ATOM     13  C   UNL     1      48.333   6.211  14.955  0.00  0.00    +0.000 A 
ENDBRANCH   6   8
ENDBRANCH   1   2
BRANCH   1  14
ATOM     14  O   UNL     1      43.603   3.856   9.967  0.00  0.00    +0.000 OA
BRANCH  14  18
ATOM     15  C   UNL     1      46.553   2.560   7.408  0.00  0.00    +0.000 A 
ATOM     16  C   UNL     1      45.944   1.651   8.274  0.00  0.00    +0.000 A 
ATOM     17  C   UNL     1      44.948   2.103   9.141  0.00  0.00    +0.000 A 
ATOM     18  C   UNL     1      44.602   3.446   9.107  0.00  0.00    +0.000 A 
ATOM     19  N   UNL     1      45.184   4.347   8.291  0.00  0.00    +0.000 NA
ATOM     20  C   UNL     1      46.154   3.888   7.466  0.00  0.00    +0.000 A 
BRANCH  15  22
ATOM     21  N   UNL     1      47.737   2.966   5.326  0.00  0.00    +0.000 N 
ATOM     22  C   UNL     1      47.608   2.190   6.443  0.00  0.00    +0.000 C 
ATOM     23  O   UNL     1      48.366   1.254   6.656  0.00  0.00    +0.000 OA
ATOM     24  H   UNL     1      48.542   2.770   4.741  0.00  0.00    +0.000 HD
ATOM     25  H   UNL     1      47.313   3.878   5.243  0.00  0.00    +0.000 HD
ENDBRANCH  15  22
ENDBRANCH  14  18
ENDBRANCH   1  14
TORSDOF 5
ENDMDL
MODEL 6
REMARK VINA RESULT:    -7.869      2.572      6.529
REMARK INTER + INTRA:         -10.942
REMARK INTER:                 -10.120
REMARK INTRA:                  -0.823
REMARK UNBOUND:                -0.774
REMARK  Name = 
REMARK  5 active torsions:
REMARK  status: ('A' for Active; 'I' for Inactive)
REMARK    1  A    between atoms: C_2  and  C_4
REMARK    2  A    between atoms: C_7  and  O_8
REMARK    3  A    between atoms: O_8  and  C_9
REMARK    4  A    between atoms: C_9  and  C_10
REMARK    5  A    between atoms: C_14  and  C_15
REMARK                            x       y       z     vdW  Elec       q    Type
REMARK                         _______ _______ _______ _____ _____    ______ ____
ROOT
ATOM      1  C   UNL     1      43.513   5.987  11.328  0.00  0.00    +0.000 C 
ENDROOT
BRANCH   1   2
ATOM      2  C   UNL     1      43.733   4.589  10.818  0.00  0.00    +0.000 A 
ATOM      3  C   UNL     1      43.140   3.510  11.460  0.00  0.00    +0.000 A 
ATOM      4  N   UNL     1      43.332   2.223  11.105  0.00  0.00    +0.000 NA
ATOM      5  C   UNL     1      44.166   1.998  10.060  0.00  0.00    +0.000 A 
ATOM      6  C   UNL     1      44.830   2.988   9.331  0.00  0.00    +0.000 A 
ATOM      7  C   UNL     1      44.592   4.307   9.748  0.00  0.00    +0.000 A 
BRANCH   6   8
ATOM      8  C   UNL     1      45.719   2.676   8.195  0.00  0.00    +0.000 A 
ATOM      9  C   UNL     1      45.989   3.601   7.176  0.00  0.00    +0.000 A 
ATOM     10  C   UNL     1      46.852   3.278   6.129  0.00  0.00    +0.000 A 
ATOM     11  C   UNL     1      47.440   2.026   6.124  0.00  0.00    +0.000 A 
ATOM     12  N   UNL     1      47.215   1.096   7.072  0.00  0.00    +0.000 NA
ATOM     13  C   UNL     1      46.364   1.441   8.070  0.00  0.00    +0.000 A 
ENDBRANCH   6   8
ENDBRANCH   1   2
BRANCH   1  14
ATOM     14  O   UNL     1      43.828   6.068  12.723  0.00  0.00    +0.000 OA
BRANCH  14  18
ATOM     15  C   UNL     1      47.851   6.648  13.366  0.00  0.00    +0.000 A 
ATOM     16  C   UNL     1      47.264   5.434  13.724  0.00  0.00    +0.000 A 
ATOM     17  C   UNL     1      45.898   5.250  13.507  0.00  0.00    +0.000 A 
ATOM     18  C   UNL     1      45.174   6.289  12.939  0.00  0.00    +0.000 A 
ATOM     19  N   UNL     1      45.713   7.476  12.597  0.00  0.00    +0.000 NA
ATOM     20  C   UNL     1      47.037   7.635  12.827  0.00  0.00    +0.000 A 
BRANCH  15  22
ATOM     21  N   UNL     1      50.008   7.243  12.419  0.00  0.00    +0.000 N 
ATOM     22  C   UNL     1      49.287   6.947  13.541  0.00  0.00    +0.000 C 
ATOM     23  O   UNL     1      49.801   6.973  14.651  0.00  0.00    +0.000 OA
ATOM     24  H   UNL     1      50.957   7.564  12.574  0.00  0.00    +0.000 HD
ATOM     25  H   UNL     1      49.575   7.482  11.539  0.00  0.00    +0.000 HD
ENDBRANCH  15  22
ENDBRANCH  14  18
ENDBRANCH   1  14
TORSDOF 5
ENDMDL
MODEL 7
REMARK VINA RESULT:    -7.516      2.581      7.195
REMARK INTER + INTRA:         -10.487
REMARK INTER:                 -10.187
REMARK INTRA:                  -0.301
REMARK UNBOUND:                -0.774
REMARK  Name = 
REMARK  5 active torsions:
REMARK  status: ('A' for Active; 'I' for Inactive)
REMARK    1  A    between atoms: C_2  and  C_4
REMARK    2  A    between atoms: C_7  and  O_8
REMARK    3  A    between atoms: O_8  and  C_9
REMARK    4  A    between atoms: C_9  and  C_10
REMARK    5  A    between atoms: C_14  and  C_15
REMARK                            x       y       z     vdW  Elec       q    Type
REMARK                         _______ _______ _______ _____ _____    ______ ____
ROOT
ATOM      1  C   UNL     1      44.917   6.412  11.386  0.00  0.00    +0.000 C 
ENDROOT
BRANCH   1   2
ATOM      2  C   UNL     1      44.657   5.068  10.761  0.00  0.00    +0.000 A 
ATOM      3  C   UNL     1      43.698   4.221  11.301  0.00  0.00    +0.000 A 
ATOM      4  N   UNL     1      43.445   2.979  10.840  0.00  0.00    +0.000 NA
ATOM      5  C   UNL     1      44.193   2.554   9.792  0.00  0.00    +0.000 A 
ATOM      6  C   UNL     1      45.191   3.299   9.160  0.00  0.00    +0.000 A 
ATOM      7  C   UNL     1      45.410   4.583   9.684  0.00  0.00    +0.000 A 
BRANCH   6   8
ATOM      8  C   UNL     1      45.965   2.781   8.015  0.00  0.00    +0.000 A 
ATOM      9  C   UNL     1      46.273   3.571   6.897  0.00  0.00    +0.000 A 
ATOM     10  C   UNL     1      47.026   3.053   5.843  0.00  0.00    +0.000 A 
ATOM     11  C   UNL     1      47.465   1.744   5.930  0.00  0.00    +0.000 A 
ATOM     12  N   UNL     1      47.195   0.938   6.974  0.00  0.00    +0.000 NA
ATOM     13  C   UNL     1      46.454   1.472   7.978  0.00  0.00    +0.000 A 
ENDBRANCH   6   8
ENDBRANCH   1   2
BRANCH   1  14
ATOM     14  O   UNL     1      46.324   6.646  11.510  0.00  0.00    +0.000 OA
BRANCH  14  18
ATOM     15  C   UNL     1      47.791   5.545  15.194  0.00  0.00    +0.000 A 
ATOM     16  C   UNL     1      48.263   6.708  14.584  0.00  0.00    +0.000 A 
ATOM     17  C   UNL     1      47.762   7.069  13.332  0.00  0.00    +0.000 A 
ATOM     18  C   UNL     1      46.810   6.252  12.740  0.00  0.00    +0.000 A 
ATOM     19  N   UNL     1      46.347   5.116  13.301  0.00  0.00    +0.000 NA
ATOM     20  C   UNL     1      46.854   4.781  14.510  0.00  0.00    +0.000 A 
BRANCH  15  22
ATOM     21  N   UNL     1      47.611   5.588  17.616  0.00  0.00    +0.000 N 
ATOM     22  C   UNL     1      48.242   5.074  16.519  0.00  0.00    +0.000 C 
ATOM     23  O   UNL     1      49.114   4.224  16.629  0.00  0.00    +0.000 OA
ATOM     24  H   UNL     1      47.850   5.163  18.504  0.00  0.00    +0.000 HD
ATOM     25  H   UNL     1      46.732   6.083  17.558  0.00  0.00    +0.000 HD
ENDBRANCH  15  22
ENDBRANCH  14  18
ENDBRANCH   1  14
TORSDOF 5
ENDMDL
MODEL 8
REMARK VINA RESULT:    -6.806      2.492      6.728
REMARK INTER + INTRA:          -9.569
REMARK INTER:                  -8.825
REMARK INTRA:                  -0.744
REMARK UNBOUND:                -0.774
REMARK  Name = 
REMARK  5 active torsions:
REMARK  status: ('A' for Active; 'I' for Inactive)
REMARK    1  A    between atoms: C_2  and  C_4
REMARK    2  A    between atoms: C_7  and  O_8
REMARK    3  A    between atoms: O_8  and  C_9
REMARK    4  A    between atoms: C_9  and  C_10
REMARK    5  A    between atoms: C_14  and  C_15
REMARK                            x       y       z     vdW  Elec       q    Type
REMARK                         _______ _______ _______ _____ _____    ______ ____
ROOT
ATOM      1  C   UNL     1      45.651   4.455  13.439  0.00  0.00    +0.000 C 
ENDROOT
BRANCH   1   2
ATOM      2  C   UNL     1      45.012   3.786  12.253  0.00  0.00    +0.000 A 
ATOM      3  C   UNL     1      43.753   3.210  12.371  0.00  0.00    +0.000 A 
ATOM      4  N   UNL     1      43.135   2.540  11.377  0.00  0.00    +0.000 NA
ATOM      5  C   UNL     1      43.810   2.429  10.206  0.00  0.00    +0.000 A 
ATOM      6  C   UNL     1      45.080   2.953   9.954  0.00  0.00    +0.000 A 
ATOM      7  C   UNL     1      45.672   3.639  11.026  0.00  0.00    +0.000 A 
BRANCH   6   8
ATOM      8  C   UNL     1      45.757   2.806   8.651  0.00  0.00    +0.000 A 
ATOM      9  C   UNL     1      46.288   1.583   8.214  0.00  0.00    +0.000 A 
ATOM     10  C   UNL     1      46.902   1.477   6.967  0.00  0.00    +0.000 A 
ATOM     11  C   UNL     1      46.969   2.605   6.169  0.00  0.00    +0.000 A 
ATOM     12  N   UNL     1      46.483   3.805   6.538  0.00  0.00    +0.000 NA
ATOM     13  C   UNL     1      45.900   3.874   7.761  0.00  0.00    +0.000 A 
ENDBRANCH   6   8
ENDBRANCH   1   2
BRANCH   1  14
ATOM     14  O   UNL     1      45.599   5.880  13.300  0.00  0.00    +0.000 OA
BRANCH  14  18
ATOM     15  C   UNL     1      49.285   7.550  12.551  0.00  0.00    +0.000 A 
ATOM     16  C   UNL     1      48.306   7.565  11.556  0.00  0.00    +0.000 A 
ATOM     17  C   UNL     1      47.062   6.990  11.819  0.00  0.00    +0.000 A 
ATOM     18  C   UNL     1      46.846   6.425  13.067  0.00  0.00    +0.000 A 
ATOM     19  N   UNL     1      47.778   6.385  14.041  0.00  0.00    +0.000 NA
ATOM     20  C   UNL     1      48.980   6.938  13.759  0.00  0.00    +0.000 A 
BRANCH  15  22
ATOM     21  N   UNL     1      51.472   8.089  13.460  0.00  0.00    +0.000 N 
ATOM     22  C   UNL     1      50.630   8.136  12.385  0.00  0.00    +0.000 C 
ATOM     23  O   UNL     1      50.993   8.604  11.315  0.00  0.00    +0.000 OA
ATOM     24  H   UNL     1      52.427   8.383  13.288  0.00  0.00    +0.000 HD
ATOM     25  H   UNL     1      51.306   7.492  14.258  0.00  0.00    +0.000 HD
ENDBRANCH  15  22
ENDBRANCH  14  18
ENDBRANCH   1  14
TORSDOF 5
ENDMDL
MODEL 9
REMARK VINA RESULT:    -6.673      3.538      8.023
REMARK INTER + INTRA:          -9.397
REMARK INTER:                  -8.927
REMARK INTRA:                  -0.470
REMARK UNBOUND:                -0.774
REMARK  Name = 
REMARK  5 active torsions:
REMARK  status: ('A' for Active; 'I' for Inactive)
REMARK    1  A    between atoms: C_2  and  C_4
REMARK    2  A    between atoms: C_7  and  O_8
REMARK    3  A    between atoms: O_8  and  C_9
REMARK    4  A    between atoms: C_9  and  C_10
REMARK    5  A    between atoms: C_14  and  C_15
REMARK                            x       y       z     vdW  Elec       q    Type
REMARK                         _______ _______ _______ _____ _____    ______ ____
ROOT
ATOM      1  C   UNL     1      45.309   4.567  13.568  0.00  0.00    +0.000 C 
ENDROOT
BRANCH   1   2
ATOM      2  C   UNL     1      44.820   4.578  12.145  0.00  0.00    +0.000 A 
ATOM      3  C   UNL     1      43.635   5.225  11.820  0.00  0.00    +0.000 A 
ATOM      4  N   UNL     1      43.096   5.232  10.583  0.00  0.00    +0.000 NA
ATOM      5  C   UNL     1      43.768   4.551   9.622  0.00  0.00    +0.000 A 
ATOM      6  C   UNL     1      44.964   3.854   9.814  0.00  0.00    +0.000 A 
ATOM      7  C   UNL     1      45.475   3.882  11.121  0.00  0.00    +0.000 A 
BRANCH   6   8
ATOM      8  C   UNL     1      45.651   3.140   8.721  0.00  0.00    +0.000 A 
ATOM      9  C   UNL     1      46.211   3.807   7.622  0.00  0.00    +0.000 A 
ATOM     10  C   UNL     1      46.873   3.099   6.619  0.00  0.00    +0.000 A 
ATOM     11  C   UNL     1      46.969   1.724   6.738  0.00  0.00    +0.000 A 
ATOM     12  N   UNL     1      46.447   1.030   7.767  0.00  0.00    +0.000 NA
ATOM     13  C   UNL     1      45.803   1.749   8.720  0.00  0.00    +0.000 A 
ENDBRANCH   6   8
ENDBRANCH   1   2
BRANCH   1  14
ATOM     14  O   UNL     1      46.739   4.637  13.609  0.00  0.00    +0.000 OA
BRANCH  14  18
ATOM     15  C   UNL     1      48.184   4.916  17.452  0.00  0.00    +0.000 A 
ATOM     16  C   UNL     1      48.615   5.827  16.486  0.00  0.00    +0.000 A 
ATOM     17  C   UNL     1      48.122   5.719  15.184  0.00  0.00    +0.000 A 
ATOM     18  C   UNL     1      47.218   4.705  14.902  0.00  0.00    +0.000 A 
ATOM     19  N   UNL     1      46.797   3.805  15.813  0.00  0.00    +0.000 NA
ATOM     20  C   UNL     1      47.296   3.922  17.065  0.00  0.00    +0.000 A 
BRANCH  15  22
ATOM     21  N   UNL     1      49.258   3.829  19.340  0.00  0.00    +0.000 N 
ATOM     22  C   UNL     1      48.631   4.943  18.859  0.00  0.00    +0.000 C 
ATOM     23  O   UNL     1      48.489   5.940  19.553  0.00  0.00    +0.000 OA
ATOM     24  H   UNL     1      49.665   3.913  20.265  0.00  0.00    +0.000 HD
ATOM     25  H   UNL     1      49.620   3.103  18.738  0.00  0.00    +0.000 HD
ENDBRANCH  15  22
ENDBRANCH  14  18
ENDBRANCH   1  14
TORSDOF 5
ENDMDL
