MODEL 1
REMARK VINA RESULT:    -6.977      0.000      0.000
REMARK INTER + INTRA:         -11.152
REMARK INTER:                 -10.240
REMARK INTRA:                  -0.912
REMARK UNBOUND:                -0.912
REMARK  Name = 
REMARK  12 active torsions:
REMARK  status: ('A' for Active; 'I' for Inactive)
REMARK    1  A    between atoms: C_1  and  C_2
REMARK    2  A    between atoms: C_2  and  N_3
REMARK    3  A    between atoms: N_3  and  C_4
REMARK    4  A    between atoms: C_4  and  C_5
REMARK    5  A    between atoms: C_6  and  C_8
REMARK    6  A    between atoms: C_11  and  O_12
REMARK    7  A    between atoms: O_12  and  C_13
REMARK    8  A    between atoms: C_13  and  C_14
REMARK    9  A    between atoms: C_14  and  C_15
REMARK   10  A    between atoms: C_14  and  C_16
REMARK   11  A    between atoms: C_14  and  C_17
REMARK   12  A    between atoms: C_21  and  C_22
REMARK                            x       y       z     vdW  Elec       q    Type
REMARK                         _______ _______ _______ _____ _____    ______ ____
ROOT
ATOM      1  C   UNL     1      48.253   5.334  15.833  0.00  0.00    +0.000 A 
ATOM      2  C   UNL     1      48.324   6.261  14.787  0.00  0.00    +0.000 A 
ATOM      3  C   UNL     1      47.461   6.180  13.696  0.00  0.00    +0.000 A 
ATOM      4  C   UNL     1      46.591   5.120  13.639  0.00  0.00    +0.000 A 
ATOM      5  N   UNL     1      46.501   4.177  14.603  0.00  0.00    +0.000 NA
ATOM      6  C   UNL     1      47.330   4.306  15.670  0.00  0.00    +0.000 A 
ENDROOT
BRANCH   1   8
ATOM      7  N   UNL     1      48.796   6.008  18.230  0.00  0.00    +0.000 N 
ATOM      8  C   UNL     1      49.121   5.306  17.052  0.00  0.00    +0.000 C 
ATOM      9  O   UNL     1      50.143   4.617  16.974  0.00  0.00    +0.000 OA
BRANCH   7  11
ATOM     10  C   UNL     1      49.470   4.969  20.415  0.00  0.00    +0.000 C 
ATOM     11  C   UNL     1      49.782   5.986  19.323  0.00  0.00    +0.000 C 
ENDBRANCH   7  11
BRANCH   7  12
ATOM     12  C   UNL     1      47.553   6.769  18.380  0.00  0.00    +0.000 C 
ATOM     13  C   UNL     1      47.486   7.966  19.300  0.00  0.00    +0.000 C 
ENDBRANCH   7  12
ENDBRANCH   1   8
BRANCH   4  14
ATOM     14  O   UNL     1      45.818   5.022  12.502  0.00  0.00    +0.000 OA
BRANCH  14  15
ATOM     15  C   UNL     1      45.010   3.843  12.519  0.00  0.00    +0.000 C 
BRANCH  15  16
ATOM     16  C   UNL     1      44.109   3.748  11.260  0.00  0.00    +0.000 C 
ATOM     17  C   UNL     1      43.157   2.545  11.438  0.00  0.00    +0.000 C 
ATOM     18  C   UNL     1      43.274   5.045  11.158  0.00  0.00    +0.000 C 
BRANCH  16  19
ATOM     19  C   UNL     1      44.936   3.574   9.969  0.00  0.00    +0.000 A 
ATOM     20  C   UNL     1      45.340   4.669   9.180  0.00  0.00    +0.000 A 
ATOM     21  C   UNL     1      46.054   4.488   7.994  0.00  0.00    +0.000 A 
ATOM     22  C   UNL     1      46.397   3.207   7.576  0.00  0.00    +0.000 A 
ATOM     23  C   UNL     1      46.040   2.103   8.349  0.00  0.00    +0.000 A 
ATOM     24  C   UNL     1      45.307   2.288   9.532  0.00  0.00    +0.000 A 
BRANCH  23  25
ATOM     25  C   UNL     1      46.422   0.790   7.947  0.00  0.00    +0.000 C 
ATOM     26  N   UNL     1      46.738  -0.285   7.620  0.00  0.00    +0.000 NA
ENDBRANCH  23  25
ENDBRANCH  16  19
ENDBRANCH  15  16
ENDBRANCH  14  15
ENDBRANCH   4  14
TORSDOF 8
ENDMDL
MODEL 2
REMARK VINA RESULT:    -6.752      1.329      2.078
REMARK INTER + INTRA:         -10.822
REMARK INTER:                  -9.734
REMARK INTRA:                  -1.089
REMARK UNBOUND:                -0.912
REMARK  Name = 
REMARK  12 active torsions:
REMARK  status: ('A' for Active; 'I' for Inactive)
REMARK    1  A    between atoms: C_1  and  C_2
REMARK    2  A    between atoms: C_2  and  N_3
REMARK    3  A    between atoms: N_3  and  C_4
REMARK    4  A    between atoms: C_4  and  C_5
REMARK    5  A    between atoms: C_6  and  C_8
REMARK    6  A    between atoms: C_11  and  O_12
REMARK    7  A    between atoms: O_12  and  C_13
REMARK    8  A    between atoms: C_13  and  C_14
REMARK    9  A    between atoms: C_14  and  C_15
REMARK   10  A    between atoms: C_14  and  C_16
REMARK   11  A    between atoms: C_14  and  C_17
REMARK   12  A    between atoms: C_21  and  C_22
REMARK                            x       y       z     vdW  Elec       q    Type
REMARK                         _______ _______ _______ _____ _____    ______ ____
ROOT
ATOM      1  C   UNL     1      48.196   5.155  16.437  0.00  0.00    +0.000 A 
ATOM      2  C   UNL     1      47.310   4.124  16.106  0.00  0.00    +0.000 A 
ATOM      3  C   UNL     1      46.767   4.027  14.827  0.00  0.00    +0.000 A 
ATOM      4  C   UNL     1      47.065   5.016  13.924  0.00  0.00    +0.000 A 
ATOM      5  N   UNL     1      47.887   6.053  14.198  0.00  0.00    +0.000 NA
ATOM      6  C   UNL     1      48.429   6.098  15.441  0.00  0.00    +0.000 A 
ENDROOT
BRANCH   1   8
ATOM      7  N   UNL     1      49.990   4.671  18.180  0.00  0.00    +0.000 N 
ATOM      8  C   UNL     1      48.841   5.375  17.771  0.00  0.00    +0.000 C 
ATOM      9  O   UNL     1      48.314   6.225  18.495  0.00  0.00    +0.000 OA
BRANCH   7  11
ATOM     10  C   UNL     1      51.982   5.034  19.666  0.00  0.00    +0.000 C 
ATOM     11  C   UNL     1      50.468   4.900  19.554  0.00  0.00    +0.000 C 
ENDBRANCH   7  11
BRANCH   7  12
ATOM     12  C   UNL     1      50.684   3.714  17.314  0.00  0.00    +0.000 C 
ATOM     13  C   UNL     1      50.301   2.253  17.313  0.00  0.00    +0.000 C 
ENDBRANCH   7  12
ENDBRANCH   1   8
BRANCH   4  14
ATOM     14  O   UNL     1      46.437   4.937  12.698  0.00  0.00    +0.000 OA
BRANCH  14  15
ATOM     15  C   UNL     1      45.529   3.834  12.646  0.00  0.00    +0.000 C 
BRANCH  15  16
ATOM     16  C   UNL     1      44.507   3.988  11.490  0.00  0.00    +0.000 C 
ATOM     17  C   UNL     1      43.383   2.951  11.700  0.00  0.00    +0.000 C 
ATOM     18  C   UNL     1      43.904   5.410  11.558  0.00  0.00    +0.000 C 
BRANCH  16  19
ATOM     19  C   UNL     1      45.161   3.779  10.109  0.00  0.00    +0.000 A 
ATOM     20  C   UNL     1      45.452   4.851   9.243  0.00  0.00    +0.000 A 
ATOM     21  C   UNL     1      46.007   4.638   7.980  0.00  0.00    +0.000 A 
ATOM     22  C   UNL     1      46.301   3.346   7.558  0.00  0.00    +0.000 A 
ATOM     23  C   UNL     1      46.054   2.264   8.402  0.00  0.00    +0.000 A 
ATOM     24  C   UNL     1      45.479   2.482   9.664  0.00  0.00    +0.000 A 
BRANCH  23  25
ATOM     25  C   UNL     1      46.389   0.940   7.990  0.00  0.00    +0.000 C 
ATOM     26  N   UNL     1      46.666  -0.142   7.655  0.00  0.00    +0.000 NA
ENDBRANCH  23  25
ENDBRANCH  16  19
ENDBRANCH  15  16
ENDBRANCH  14  15
ENDBRANCH   4  14
TORSDOF 8
ENDMDL
MODEL 3
REMARK VINA RESULT:    -6.505      1.761      2.623
REMARK INTER + INTRA:         -10.460
REMARK INTER:                  -9.420
REMARK INTRA:                  -1.040
REMARK UNBOUND:                -0.912
REMARK  Name = 
REMARK  12 active torsions:
REMARK  status: ('A' for Active; 'I' for Inactive)
REMARK    1  A    between atoms: C_1  and  C_2
REMARK    2  A    between atoms: C_2  and  N_3
REMARK    3  A    between atoms: N_3  and  C_4
REMARK    4  A    between atoms: C_4  and  C_5
REMARK    5  A    between atoms: C_6  and  C_8
REMARK    6  A    between atoms: C_11  and  O_12
REMARK    7  A    between atoms: O_12  and  C_13
REMARK    8  A    between atoms: C_13  and  C_14
REMARK    9  A    between atoms: C_14  and  C_15
REMARK   10  A    between atoms: C_14  and  C_16
REMARK   11  A    between atoms: C_14  and  C_17
REMARK   12  A    between atoms: C_21  and  C_22
REMARK                            x       y       z     vdW  Elec       q    Type
REMARK                         _______ _______ _______ _____ _____    ______ ____
ROOT
ATOM      1  C   UNL     1      48.219   5.291  16.767  0.00  0.00    +0.000 A 
ATOM      2  C   UNL     1      48.505   6.112  15.670  0.00  0.00    +0.000 A 
ATOM      3  C   UNL     1      47.872   5.918  14.444  0.00  0.00    +0.000 A 
ATOM      4  C   UNL     1      47.017   4.851  14.322  0.00  0.00    +0.000 A 
ATOM      5  N   UNL     1      46.730   4.006  15.336  0.00  0.00    +0.000 NA
ATOM      6  C   UNL     1      47.334   4.244  16.527  0.00  0.00    +0.000 A 
ENDROOT
BRANCH   1   8
ATOM      7  N   UNL     1      50.024   4.721  18.473  0.00  0.00    +0.000 N 
ATOM      8  C   UNL     1      48.832   5.388  18.130  0.00  0.00    +0.000 C 
ATOM      9  O   UNL     1      48.235   6.101  18.943  0.00  0.00    +0.000 OA
BRANCH   7  11
ATOM     10  C   UNL     1      51.983   4.802  20.043  0.00  0.00    +0.000 C 
ATOM     11  C   UNL     1      50.468   4.811  19.874  0.00  0.00    +0.000 C 
ENDBRANCH   7  11
BRANCH   7  12
ATOM     12  C   UNL     1      50.796   3.932  17.510  0.00  0.00    +0.000 C 
ATOM     13  C   UNL     1      50.562   2.448  17.362  0.00  0.00    +0.000 C 
ENDBRANCH   7  12
ENDBRANCH   1   8
BRANCH   4  14
ATOM     14  O   UNL     1      46.480   4.637  13.069  0.00  0.00    +0.000 OA
BRANCH  14  15
ATOM     15  C   UNL     1      45.136   5.116  12.988  0.00  0.00    +0.000 C 
BRANCH  15  16
ATOM     16  C   UNL     1      44.778   5.572  11.549  0.00  0.00    +0.000 C 
ATOM     17  C   UNL     1      43.374   6.214  11.584  0.00  0.00    +0.000 C 
ATOM     18  C   UNL     1      45.810   6.632  11.101  0.00  0.00    +0.000 C 
BRANCH  16  19
ATOM     19  C   UNL     1      44.791   4.396  10.550  0.00  0.00    +0.000 A 
ATOM     20  C   UNL     1      44.169   3.164  10.829  0.00  0.00    +0.000 A 
ATOM     21  C   UNL     1      44.226   2.098   9.929  0.00  0.00    +0.000 A 
ATOM     22  C   UNL     1      44.893   2.244   8.719  0.00  0.00    +0.000 A 
ATOM     23  C   UNL     1      45.494   3.461   8.397  0.00  0.00    +0.000 A 
ATOM     24  C   UNL     1      45.450   4.524   9.313  0.00  0.00    +0.000 A 
BRANCH  23  25
ATOM     25  C   UNL     1      46.148   3.630   7.140  0.00  0.00    +0.000 C 
ATOM     26  N   UNL     1      46.680   3.772   6.112  0.00  0.00    +0.000 NA
ENDBRANCH  23  25
ENDBRANCH  16  19
ENDBRANCH  15  16
ENDBRANCH  14  15
ENDBRANCH   4  14
TORSDOF 8
ENDMDL
MODEL 4
REMARK VINA RESULT:    -6.472      1.279      1.869
REMARK INTER + INTRA:         -10.410
REMARK INTER:                  -9.428
REMARK INTRA:                  -0.982
REMARK UNBOUND:                -0.912
REMARK  Name = 
REMARK  12 active torsions:
REMARK  status: ('A' for Active; 'I' for Inactive)
REMARK    1  A    between atoms: C_1  and  C_2
REMARK    2  A    between atoms: C_2  and  N_3
REMARK    3  A    between atoms: N_3  and  C_4
REMARK    4  A    between atoms: C_4  and  C_5
REMARK    5  A    between atoms: C_6  and  C_8
REMARK    6  A    between atoms: C_11  and  O_12
REMARK    7  A    between atoms: O_12  and  C_13
REMARK    8  A    between atoms: C_13  and  C_14
REMARK    9  A    between atoms: C_14  and  C_15
REMARK   10  A    between atoms: C_14  and  C_16
REMARK   11  A    between atoms: C_14  and  C_17
REMARK   12  A    between atoms: C_21  and  C_22
REMARK                            x       y       z     vdW  Elec       q    Type
REMARK                         _______ _______ _______ _____ _____    ______ ____
ROOT
ATOM      1  C   UNL     1      48.309   5.127  16.490  0.00  0.00    +0.000 A 
ATOM      2  C   UNL     1      48.433   6.105  15.496  0.00  0.00    +0.000 A 
ATOM      3  C   UNL     1      47.708   6.020  14.310  0.00  0.00    +0.000 A 
ATOM      4  C   UNL     1      46.927   4.908  14.111  0.00  0.00    +0.000 A 
ATOM      5  N   UNL     1      46.795   3.917  15.019  0.00  0.00    +0.000 NA
ATOM      6  C   UNL     1      47.486   4.049  16.180  0.00  0.00    +0.000 A 
ENDROOT
BRANCH   1   8
ATOM      7  N   UNL     1      48.628   5.871  18.906  0.00  0.00    +0.000 N 
ATOM      8  C   UNL     1      49.033   5.099  17.800  0.00  0.00    +0.000 C 
ATOM      9  O   UNL     1      50.009   4.344  17.864  0.00  0.00    +0.000 OA
BRANCH   7  11
ATOM     10  C   UNL     1      49.076   4.776  21.121  0.00  0.00    +0.000 C 
ATOM     11  C   UNL     1      49.483   5.836  20.104  0.00  0.00    +0.000 C 
ENDBRANCH   7  11
BRANCH   7  12
ATOM     12  C   UNL     1      47.430   6.716  18.886  0.00  0.00    +0.000 C 
ATOM     13  C   UNL     1      47.471   8.128  19.420  0.00  0.00    +0.000 C 
ENDBRANCH   7  12
ENDBRANCH   1   8
BRANCH   4  14
ATOM     14  O   UNL     1      46.297   4.813  12.888  0.00  0.00    +0.000 OA
BRANCH  14  15
ATOM     15  C   UNL     1      44.926   5.209  12.974  0.00  0.00    +0.000 C 
BRANCH  15  16
ATOM     16  C   UNL     1      44.331   5.520  11.576  0.00  0.00    +0.000 C 
ATOM     17  C   UNL     1      42.826   5.820  11.749  0.00  0.00    +0.000 C 
ATOM     18  C   UNL     1      45.038   6.774  11.012  0.00  0.00    +0.000 C 
BRANCH  16  19
ATOM     19  C   UNL     1      44.521   4.345  10.594  0.00  0.00    +0.000 A 
ATOM     20  C   UNL     1      44.003   3.060  10.847  0.00  0.00    +0.000 A 
ATOM     21  C   UNL     1      44.219   2.000   9.966  0.00  0.00    +0.000 A 
ATOM     22  C   UNL     1      44.945   2.203   8.797  0.00  0.00    +0.000 A 
ATOM     23  C   UNL     1      45.446   3.469   8.500  0.00  0.00    +0.000 A 
ATOM     24  C   UNL     1      45.242   4.529   9.398  0.00  0.00    +0.000 A 
BRANCH  23  25
ATOM     25  C   UNL     1      46.159   3.693   7.285  0.00  0.00    +0.000 C 
ATOM     26  N   UNL     1      46.743   3.880   6.293  0.00  0.00    +0.000 NA
ENDBRANCH  23  25
ENDBRANCH  16  19
ENDBRANCH  15  16
ENDBRANCH  14  15
ENDBRANCH   4  14
TORSDOF 8
ENDMDL
MODEL 5
REMARK VINA RESULT:    -6.135      2.555      8.047
REMARK INTER + INTRA:          -9.917
REMARK INTER:                  -8.665
REMARK INTRA:                  -1.252
REMARK UNBOUND:                -0.912
REMARK  Name = 
REMARK  12 active torsions:
REMARK  status: ('A' for Active; 'I' for Inactive)
REMARK    1  A    between atoms: C_1  and  C_2
REMARK    2  A    between atoms: C_2  and  N_3
REMARK    3  A    between atoms: N_3  and  C_4
REMARK    4  A    between atoms: C_4  and  C_5
REMARK    5  A    between atoms: C_6  and  C_8
REMARK    6  A    between atoms: C_11  and  O_12
REMARK    7  A    between atoms: O_12  and  C_13
REMARK    8  A    between atoms: C_13  and  C_14
REMARK    9  A    between atoms: C_14  and  C_15
REMARK   10  A    between atoms: C_14  and  C_16
REMARK   11  A    between atoms: C_14  and  C_17
REMARK   12  A    between atoms: C_21  and  C_22
REMARK                            x       y       z     vdW  Elec       q    Type
REMARK                         _______ _______ _______ _____ _____    ______ ____
ROOT
ATOM      1  C   UNL     1      46.570   6.454  12.163  0.00  0.00    +0.000 A 
ATOM      2  C   UNL     1      46.276   7.734  12.646  0.00  0.00    +0.000 A 
ATOM      3  C   UNL     1      47.031   8.306  13.668  0.00  0.00    +0.000 A 
ATOM      4  C   UNL     1      48.021   7.548  14.240  0.00  0.00    +0.000 A 
ATOM      5  N   UNL     1      48.328   6.295  13.837  0.00  0.00    +0.000 NA
ATOM      6  C   UNL     1      47.599   5.780  12.815  0.00  0.00    +0.000 A 
ENDROOT
BRANCH   1   8
ATOM      7  N   UNL     1      44.806   4.805  11.349  0.00  0.00    +0.000 N 
ATOM      8  C   UNL     1      45.837   5.726  11.079  0.00  0.00    +0.000 C 
ATOM      9  O   UNL     1      46.180   5.987   9.922  0.00  0.00    +0.000 OA
BRANCH   7  11
ATOM     10  C   UNL     1      44.919   2.745   9.917  0.00  0.00    +0.000 C 
ATOM     11  C   UNL     1      44.235   4.077  10.204  0.00  0.00    +0.000 C 
ENDBRANCH   7  11
BRANCH   7  12
ATOM     12  C   UNL     1      44.323   4.532  12.705  0.00  0.00    +0.000 C 
ATOM     13  C   UNL     1      42.975   5.038  13.163  0.00  0.00    +0.000 C 
ENDBRANCH   7  12
ENDBRANCH   1   8
BRANCH   4  14
ATOM     14  O   UNL     1      48.685   8.113  15.309  0.00  0.00    +0.000 OA
BRANCH  14  15
ATOM     15  C   UNL     1      49.744   7.270  15.770  0.00  0.00    +0.000 C 
BRANCH  15  16
ATOM     16  C   UNL     1      49.488   6.770  17.216  0.00  0.00    +0.000 C 
ATOM     17  C   UNL     1      50.797   6.928  18.019  0.00  0.00    +0.000 C 
ATOM     18  C   UNL     1      48.391   7.655  17.852  0.00  0.00    +0.000 C 
BRANCH  16  19
ATOM     19  C   UNL     1      49.032   5.296  17.244  0.00  0.00    +0.000 A 
ATOM     20  C   UNL     1      47.672   4.929  17.269  0.00  0.00    +0.000 A 
ATOM     21  C   UNL     1      47.280   3.591  17.335  0.00  0.00    +0.000 A 
ATOM     22  C   UNL     1      48.239   2.585  17.362  0.00  0.00    +0.000 A 
ATOM     23  C   UNL     1      49.593   2.912  17.308  0.00  0.00    +0.000 A 
ATOM     24  C   UNL     1      49.984   4.259  17.259  0.00  0.00    +0.000 A 
BRANCH  23  25
ATOM     25  C   UNL     1      50.581   1.883  17.295  0.00  0.00    +0.000 C 
ATOM     26  N   UNL     1      51.391   1.043  17.282  0.00  0.00    +0.000 NA
ENDBRANCH  23  25
ENDBRANCH  16  19
ENDBRANCH  15  16
ENDBRANCH  14  15
ENDBRANCH   4  14
TORSDOF 8
ENDMDL
MODEL 6
REMARK VINA RESULT:    -5.927      2.585      8.315
REMARK INTER + INTRA:          -9.611
REMARK INTER:                  -8.236
REMARK INTRA:                  -1.375
REMARK UNBOUND:                -0.912
REMARK  Name = 
REMARK  12 active torsions:
REMARK  status: ('A' for Active; 'I' for Inactive)
REMARK    1  A    between atoms: C_1  and  C_2
REMARK    2  A    between atoms: C_2  and  N_3
REMARK    3  A    between atoms: N_3  and  C_4
REMARK    4  A    between atoms: C_4  and  C_5
REMARK    5  A    between atoms: C_6  and  C_8
REMARK    6  A    between atoms: C_11  and  O_12
REMARK    7  A    between atoms: O_12  and  C_13
REMARK    8  A    between atoms: C_13  and  C_14
REMARK    9  A    between atoms: C_14  and  C_15
REMARK   10  A    between atoms: C_14  and  C_16
REMARK   11  A    between atoms: C_14  and  C_17
REMARK   12  A    between atoms: C_21  and  C_22
REMARK                            x       y       z     vdW  Elec       q    Type
REMARK                         _______ _______ _______ _____ _____    ______ ____
ROOT
ATOM      1  C   UNL     1      46.267   6.336  11.901  0.00  0.00    +0.000 A 
ATOM      2  C   UNL     1      47.505   6.056  12.491  0.00  0.00    +0.000 A 
ATOM      3  C   UNL     1      48.036   6.889  13.473  0.00  0.00    +0.000 A 
ATOM      4  C   UNL     1      47.348   8.034  13.788  0.00  0.00    +0.000 A 
ATOM      5  N   UNL     1      46.167   8.373  13.227  0.00  0.00    +0.000 NA
ATOM      6  C   UNL     1      45.658   7.521  12.301  0.00  0.00    +0.000 A 
ENDROOT
BRANCH   1   8
ATOM      7  N   UNL     1      44.679   4.497  11.133  0.00  0.00    +0.000 N 
ATOM      8  C   UNL     1      45.591   5.529  10.836  0.00  0.00    +0.000 C 
ATOM      9  O   UNL     1      45.869   5.827   9.670  0.00  0.00    +0.000 OA
BRANCH   7  11
ATOM     10  C   UNL     1      45.117   2.623   9.519  0.00  0.00    +0.000 C 
ATOM     11  C   UNL     1      44.162   3.708  10.002  0.00  0.00    +0.000 C 
ENDBRANCH   7  11
BRANCH   7  12
ATOM     12  C   UNL     1      44.270   4.171  12.501  0.00  0.00    +0.000 C 
ATOM     13  C   UNL     1      43.023   4.777  13.100  0.00  0.00    +0.000 C 
ENDBRANCH   7  12
ENDBRANCH   1   8
BRANCH   4  14
ATOM     14  O   UNL     1      47.950   8.880  14.696  0.00  0.00    +0.000 OA
BRANCH  14  15
ATOM     15  C   UNL     1      49.294   8.480  14.974  0.00  0.00    +0.000 C 
BRANCH  15  16
ATOM     16  C   UNL     1      49.529   8.278  16.493  0.00  0.00    +0.000 C 
ATOM     17  C   UNL     1      50.767   9.105  16.903  0.00  0.00    +0.000 C 
ATOM     18  C   UNL     1      48.291   8.807  17.253  0.00  0.00    +0.000 C 
BRANCH  16  19
ATOM     19  C   UNL     1      49.749   6.794  16.852  0.00  0.00    +0.000 A 
ATOM     20  C   UNL     1      51.028   6.263  17.107  0.00  0.00    +0.000 A 
ATOM     21  C   UNL     1      51.212   4.908  17.391  0.00  0.00    +0.000 A 
ATOM     22  C   UNL     1      50.117   4.053  17.444  0.00  0.00    +0.000 A 
ATOM     23  C   UNL     1      48.833   4.552  17.226  0.00  0.00    +0.000 A 
ATOM     24  C   UNL     1      48.654   5.911  16.924  0.00  0.00    +0.000 A 
BRANCH  23  25
ATOM     25  C   UNL     1      47.701   3.688  17.317  0.00  0.00    +0.000 C 
ATOM     26  N   UNL     1      46.775   2.982  17.388  0.00  0.00    +0.000 NA
ENDBRANCH  23  25
ENDBRANCH  16  19
ENDBRANCH  15  16
ENDBRANCH  14  15
ENDBRANCH   4  14
TORSDOF 8
ENDMDL
MODEL 7
REMARK VINA RESULT:    -5.873      2.465      8.566
REMARK INTER + INTRA:          -9.531
REMARK INTER:                  -8.419
REMARK INTRA:                  -1.112
REMARK UNBOUND:                -0.912
REMARK  Name = 
REMARK  12 active torsions:
REMARK  status: ('A' for Active; 'I' for Inactive)
REMARK    1  A    between atoms: C_1  and  C_2
REMARK    2  A    between atoms: C_2  and  N_3
REMARK    3  A    between atoms: N_3  and  C_4
REMARK    4  A    between atoms: C_4  and  C_5
REMARK    5  A    between atoms: C_6  and  C_8
REMARK    6  A    between atoms: C_11  and  O_12
REMARK    7  A    between atoms: O_12  and  C_13
REMARK    8  A    between atoms: C_13  and  C_14
REMARK    9  A    between atoms: C_14  and  C_15
REMARK   10  A    between atoms: C_14  and  C_16
REMARK   11  A    between atoms: C_14  and  C_17
REMARK   12  A    between atoms: C_21  and  C_22
REMARK                            x       y       z     vdW  Elec       q    Type
REMARK                         _______ _______ _______ _____ _____    ______ ____
ROOT
ATOM      1  C   UNL     1      46.059   6.292  12.923  0.00  0.00    +0.000 A 
ATOM      2  C   UNL     1      46.154   7.687  12.966  0.00  0.00    +0.000 A 
ATOM      3  C   UNL     1      47.333   8.315  13.363  0.00  0.00    +0.000 A 
ATOM      4  C   UNL     1      48.373   7.525  13.785  0.00  0.00    +0.000 A 
ATOM      5  N   UNL     1      48.327   6.175  13.797  0.00  0.00    +0.000 NA
ATOM      6  C   UNL     1      47.177   5.593  13.368  0.00  0.00    +0.000 A 
ENDROOT
BRANCH   1   8
ATOM      7  N   UNL     1      44.630   5.080  11.196  0.00  0.00    +0.000 N 
ATOM      8  C   UNL     1      44.855   5.497  12.523  0.00  0.00    +0.000 C 
ATOM      9  O   UNL     1      44.066   5.214  13.430  0.00  0.00    +0.000 OA
BRANCH   7  11
ATOM     10  C   UNL     1      43.334   2.932  11.339  0.00  0.00    +0.000 C 
ATOM     11  C   UNL     1      43.358   4.396  10.911  0.00  0.00    +0.000 C 
ENDBRANCH   7  11
BRANCH   7  12
ATOM     12  C   UNL     1      45.584   5.333  10.114  0.00  0.00    +0.000 C 
ATOM     13  C   UNL     1      45.538   4.525   8.838  0.00  0.00    +0.000 C 
ENDBRANCH   7  12
ENDBRANCH   1   8
BRANCH   4  14
ATOM     14  O   UNL     1      49.489   8.183  14.257  0.00  0.00    +0.000 OA
BRANCH  14  15
ATOM     15  C   UNL     1      50.246   7.357  15.146  0.00  0.00    +0.000 C 
BRANCH  15  16
ATOM     16  C   UNL     1      50.251   7.925  16.589  0.00  0.00    +0.000 C 
ATOM     17  C   UNL     1      51.636   7.646  17.212  0.00  0.00    +0.000 C 
ATOM     18  C   UNL     1      50.028   9.453  16.513  0.00  0.00    +0.000 C 
BRANCH  16  19
ATOM     19  C   UNL     1      49.147   7.294  17.463  0.00  0.00    +0.000 A 
ATOM     20  C   UNL     1      48.598   7.955  18.578  0.00  0.00    +0.000 A 
ATOM     21  C   UNL     1      47.629   7.351  19.380  0.00  0.00    +0.000 A 
ATOM     22  C   UNL     1      47.171   6.074  19.076  0.00  0.00    +0.000 A 
ATOM     23  C   UNL     1      47.670   5.402  17.961  0.00  0.00    +0.000 A 
ATOM     24  C   UNL     1      48.658   6.007  17.167  0.00  0.00    +0.000 A 
BRANCH  23  25
ATOM     25  C   UNL     1      47.177   4.108  17.621  0.00  0.00    +0.000 C 
ATOM     26  N   UNL     1      46.773   3.050  17.339  0.00  0.00    +0.000 NA
ENDBRANCH  23  25
ENDBRANCH  16  19
ENDBRANCH  15  16
ENDBRANCH  14  15
ENDBRANCH   4  14
TORSDOF 8
ENDMDL
MODEL 8
REMARK VINA RESULT:    -5.362      2.106      3.721
REMARK INTER + INTRA:          -8.782
REMARK INTER:                  -7.707
REMARK INTRA:                  -1.075
REMARK UNBOUND:                -0.912
REMARK  Name = 
REMARK  12 active torsions:
REMARK  status: ('A' for Active; 'I' for Inactive)
REMARK    1  A    between atoms: C_1  and  C_2
REMARK    2  A    between atoms: C_2  and  N_3
REMARK    3  A    between atoms: N_3  and  C_4
REMARK    4  A    between atoms: C_4  and  C_5
REMARK    5  A    between atoms: C_6  and  C_8
REMARK    6  A    between atoms: C_11  and  O_12
REMARK    7  A    between atoms: O_12  and  C_13
REMARK    8  A    between atoms: C_13  and  C_14
REMARK    9  A    between atoms: C_14  and  C_15
REMARK   10  A    between atoms: C_14  and  C_16
REMARK   11  A    between atoms: C_14  and  C_17
REMARK   12  A    between atoms: C_21  and  C_22
REMARK                            x       y       z     vdW  Elec       q    Type
REMARK                         _______ _______ _______ _____ _____    ______ ____
ROOT
ATOM      1  C   UNL     1      49.148   5.397  17.861  0.00  0.00    +0.000 A 
ATOM      2  C   UNL     1      49.314   6.293  16.799  0.00  0.00    +0.000 A 
ATOM      3  C   UNL     1      48.533   6.197  15.649  0.00  0.00    +0.000 A 
ATOM      4  C   UNL     1      47.650   5.150  15.556  0.00  0.00    +0.000 A 
ATOM      5  N   UNL     1      47.470   4.236  16.535  0.00  0.00    +0.000 NA
ATOM      6  C   UNL     1      48.220   4.380  17.657  0.00  0.00    +0.000 A 
ENDROOT
BRANCH   1   8
ATOM      7  N   UNL     1      51.194   4.792  19.253  0.00  0.00    +0.000 N 
ATOM      8  C   UNL     1      49.922   5.388  19.142  0.00  0.00    +0.000 C 
ATOM      9  O   UNL     1      49.387   5.948  20.104  0.00  0.00    +0.000 OA
BRANCH   7  11
ATOM     10  C   UNL     1      52.815   5.873  20.838  0.00  0.00    +0.000 C 
ATOM     11  C   UNL     1      51.807   4.756  20.591  0.00  0.00    +0.000 C 
ENDBRANCH   7  11
BRANCH   7  12
ATOM     12  C   UNL     1      51.889   4.189  18.113  0.00  0.00    +0.000 C 
ATOM     13  C   UNL     1      51.631   2.754  17.721  0.00  0.00    +0.000 C 
ENDBRANCH   7  12
ENDBRANCH   1   8
BRANCH   4  14
ATOM     14  O   UNL     1      46.961   5.034  14.367  0.00  0.00    +0.000 OA
BRANCH  14  15
ATOM     15  C   UNL     1      47.572   5.806  13.330  0.00  0.00    +0.000 C 
BRANCH  15  16
ATOM     16  C   UNL     1      46.513   6.507  12.440  0.00  0.00    +0.000 C 
ATOM     17  C   UNL     1      46.035   7.780  13.173  0.00  0.00    +0.000 C 
ATOM     18  C   UNL     1      47.185   6.911  11.108  0.00  0.00    +0.000 C 
BRANCH  16  19
ATOM     19  C   UNL     1      45.308   5.590  12.144  0.00  0.00    +0.000 A 
ATOM     20  C   UNL     1      44.084   5.710  12.830  0.00  0.00    +0.000 A 
ATOM     21  C   UNL     1      43.019   4.845  12.576  0.00  0.00    +0.000 A 
ATOM     22  C   UNL     1      43.145   3.847  11.615  0.00  0.00    +0.000 A 
ATOM     23  C   UNL     1      44.333   3.720  10.896  0.00  0.00    +0.000 A 
ATOM     24  C   UNL     1      45.408   4.581  11.167  0.00  0.00    +0.000 A 
BRANCH  23  25
ATOM     25  C   UNL     1      44.456   2.724   9.882  0.00  0.00    +0.000 C 
ATOM     26  N   UNL     1      44.559   1.907   9.056  0.00  0.00    +0.000 NA
ENDBRANCH  23  25
ENDBRANCH  16  19
ENDBRANCH  15  16
ENDBRANCH  14  15
ENDBRANCH   4  14
TORSDOF 8
ENDMDL
MODEL 9
REMARK VINA RESULT:    -5.096      5.131      8.004
REMARK INTER + INTRA:          -8.392
REMARK INTER:                  -7.698
REMARK INTRA:                  -0.694
REMARK UNBOUND:                -0.912
REMARK  Name = 
REMARK  12 active torsions:
REMARK  status: ('A' for Active; 'I' for Inactive)
REMARK    1  A    between atoms: C_1  and  C_2
REMARK    2  A    between atoms: C_2  and  N_3
REMARK    3  A    between atoms: N_3  and  C_4
REMARK    4  A    between atoms: C_4  and  C_5
REMARK    5  A    between atoms: C_6  and  C_8
REMARK    6  A    between atoms: C_11  and  O_12
REMARK    7  A    between atoms: O_12  and  C_13
REMARK    8  A    between atoms: C_13  and  C_14
REMARK    9  A    between atoms: C_14  and  C_15
REMARK   10  A    between atoms: C_14  and  C_16
REMARK   11  A    between atoms: C_14  and  C_17
REMARK   12  A    between atoms: C_21  and  C_22
REMARK                            x       y       z     vdW  Elec       q    Type
REMARK                         _______ _______ _______ _____ _____    ______ ____
ROOT
ATOM      1  C   UNL     1      46.446   6.030  12.386  0.00  0.00    +0.000 A 
ATOM      2  C   UNL     1      46.690   7.240  11.726  0.00  0.00    +0.000 A 
ATOM      3  C   UNL     1      47.938   7.855  11.792  0.00  0.00    +0.000 A 
ATOM      4  C   UNL     1      48.898   7.281  12.587  0.00  0.00    +0.000 A 
ATOM      5  N   UNL     1      48.709   6.133  13.274  0.00  0.00    +0.000 NA
ATOM      6  C   UNL     1      47.494   5.539  13.158  0.00  0.00    +0.000 A 
ENDROOT
BRANCH   1   8
ATOM      7  N   UNL     1      44.540   4.803  11.223  0.00  0.00    +0.000 N 
ATOM      8  C   UNL     1      45.155   5.273  12.400  0.00  0.00    +0.000 C 
ATOM      9  O   UNL     1      44.657   5.070  13.512  0.00  0.00    +0.000 OA
BRANCH   7  11
ATOM     10  C   UNL     1      43.285   2.693  11.753  0.00  0.00    +0.000 C 
ATOM     11  C   UNL     1      43.221   4.164  11.359  0.00  0.00    +0.000 C 
ENDBRANCH   7  11
BRANCH   7  12
ATOM     12  C   UNL     1      45.144   4.959   9.897  0.00  0.00    +0.000 C 
ATOM     13  C   UNL     1      45.100   3.836   8.889  0.00  0.00    +0.000 C 
ENDBRANCH   7  12
ENDBRANCH   1   8
BRANCH   4  14
ATOM     14  O   UNL     1      50.089   7.967  12.702  0.00  0.00    +0.000 OA
BRANCH  14  15
ATOM     15  C   UNL     1      50.971   7.668  11.617  0.00  0.00    +0.000 C 
BRANCH  15  16
ATOM     16  C   UNL     1      51.823   8.900  11.217  0.00  0.00    +0.000 C 
ATOM     17  C   UNL     1      50.914  10.147  11.257  0.00  0.00    +0.000 C 
ATOM     18  C   UNL     1      52.959   9.066  12.253  0.00  0.00    +0.000 C 
BRANCH  16  19
ATOM     19  C   UNL     1      52.438   8.745   9.810  0.00  0.00    +0.000 A 
ATOM     20  C   UNL     1      53.057   9.816   9.137  0.00  0.00    +0.000 A 
ATOM     21  C   UNL     1      53.572   9.666   7.848  0.00  0.00    +0.000 A 
ATOM     22  C   UNL     1      53.495   8.436   7.206  0.00  0.00    +0.000 A 
ATOM     23  C   UNL     1      52.915   7.347   7.855  0.00  0.00    +0.000 A 
ATOM     24  C   UNL     1      52.383   7.506   9.144  0.00  0.00    +0.000 A 
BRANCH  23  25
ATOM     25  C   UNL     1      52.867   6.072   7.217  0.00  0.00    +0.000 C 
ATOM     26  N   UNL     1      52.825   5.030   6.693  0.00  0.00    +0.000 NA
ENDBRANCH  23  25
ENDBRANCH  16  19
ENDBRANCH  15  16
ENDBRANCH  14  15
ENDBRANCH   4  14
TORSDOF 8
ENDMDL
