MODEL 1
REMARK VINA RESULT:    -8.664      0.000      0.000
REMARK INTER + INTRA:         -14.464
REMARK INTER:                 -13.476
REMARK INTRA:                  -0.988
REMARK UNBOUND:                -0.988
REMARK  Name = 
REMARK  10 active torsions:
REMARK  status: ('A' for Active; 'I' for Inactive)
REMARK    1  A    between atoms: C_2  and  C_4
REMARK    2  A    between atoms: C_7  and  N_8
REMARK    3  A    between atoms: N_8  and  C_9
REMARK    4  A    between atoms: C_9  and  C_10
REMARK    5  A    between atoms: C_10  and  C_13
REMARK    6  A    between atoms: C_17  and  N_18
REMARK    7  A    between atoms: N_18  and  C_19
REMARK    8  A    between atoms: N_21  and  C_22
REMARK    9  A    between atoms: C_22  and  C_23
REMARK   10  A    between atoms: C_23  and  O_24
REMARK                            x       y       z     vdW  Elec       q    Type
REMARK                         _______ _______ _______ _____ _____    ______ ____
ROOT
ATOM      1  C   UNL     1      43.504   5.540  12.107  0.00  0.00    +0.000 C 
ATOM      2  F   UNL     1      43.166   6.704  11.474  0.00  0.00    +0.000 F 
ATOM      3  F   UNL     1      42.648   5.457  13.176  0.00  0.00    +0.000 F 
ENDROOT
BRANCH   1   4
ATOM      4  C   UNL     1      44.948   5.571  12.575  0.00  0.00    +0.000 A 
ATOM      5  C   UNL     1      45.850   6.427  11.932  0.00  0.00    +0.000 A 
ATOM      6  C   UNL     1      47.183   6.486  12.340  0.00  0.00    +0.000 A 
ATOM      7  C   UNL     1      47.640   5.676  13.384  0.00  0.00    +0.000 A 
ATOM      8  C   UNL     1      46.769   4.806  14.033  0.00  0.00    +0.000 A 
ATOM      9  C   UNL     1      45.432   4.772  13.628  0.00  0.00    +0.000 A 
BRANCH   8  10
ATOM     10  N   UNL     1      47.134   3.986  15.123  0.00  0.00    +0.000 N 
ATOM     11  H   UNL     1      46.310   3.499  15.471  0.00  0.00    +0.000 HD
BRANCH  10  12
ATOM     12  C   UNL     1      48.038   4.362  16.179  0.00  0.00    +0.000 C 
ATOM     13  C   UNL     1      48.491   3.153  17.028  0.00  0.00    +0.000 C 
ATOM     14  N   UNL     1      48.123   3.880  18.266  0.00  0.00    +0.000 NA
ATOM     15  C   UNL     1      47.378   4.880  17.465  0.00  0.00    +0.000 C 
BRANCH  14  16
ATOM     16  C   UNL     1      49.332   4.484  18.869  0.00  0.00    +0.000 C 
BRANCH  16  17
ATOM     17  C   UNL     1      49.149   4.689  20.380  0.00  0.00    +0.000 C 
BRANCH  17  18
ATOM     18  O   UNL     1      48.241   3.727  20.913  0.00  0.00    +0.000 OA
ATOM     19  H   UNL     1      48.460   2.889  20.462  0.00  0.00    +0.000 HD
ENDBRANCH  17  18
ENDBRANCH  16  17
ENDBRANCH  14  16
ENDBRANCH  10  12
ENDBRANCH   8  10
ENDBRANCH   1   4
BRANCH   1  20
ATOM     20  C   UNL     1      43.182   4.354  11.164  0.00  0.00    +0.000 C 
BRANCH  20  21
ATOM     21  N   UNL     1      43.520   4.595   9.759  0.00  0.00    +0.000 N 
ATOM     22  H   UNL     1      42.720   4.771   9.153  0.00  0.00    +0.000 HD
BRANCH  21  26
ATOM     23  C   UNL     1      46.448   2.306   7.780  0.00  0.00    +0.000 A 
ATOM     24  C   UNL     1      46.441   3.693   7.611  0.00  0.00    +0.000 A 
ATOM     25  C   UNL     1      45.491   4.469   8.282  0.00  0.00    +0.000 A 
ATOM     26  C   UNL     1      44.557   3.890   9.153  0.00  0.00    +0.000 A 
ATOM     27  C   UNL     1      44.579   2.499   9.304  0.00  0.00    +0.000 A 
ATOM     28  C   UNL     1      45.507   1.711   8.623  0.00  0.00    +0.000 A 
BRANCH  23  30
ATOM     29  N   UNL     1      48.509   2.019   6.521  0.00  0.00    +0.000 N 
ATOM     30  C   UNL     1      47.397   1.429   7.049  0.00  0.00    +0.000 C 
ATOM     31  O   UNL     1      47.213   0.222   6.949  0.00  0.00    +0.000 OA
ATOM     32  H   UNL     1      49.198   1.392   6.122  0.00  0.00    +0.000 HD
ATOM     33  H   UNL     1      48.817   2.939   6.798  0.00  0.00    +0.000 HD
ENDBRANCH  23  30
ENDBRANCH  21  26
ENDBRANCH  20  21
ENDBRANCH   1  20
TORSDOF 10
ENDMDL
MODEL 2
REMARK VINA RESULT:    -7.922      1.314      1.774
REMARK INTER + INTRA:         -13.310
REMARK INTER:                 -12.177
REMARK INTRA:                  -1.133
REMARK UNBOUND:                -0.988
REMARK  Name = 
REMARK  10 active torsions:
REMARK  status: ('A' for Active; 'I' for Inactive)
REMARK    1  A    between atoms: C_2  and  C_4
REMARK    2  A    between atoms: C_7  and  N_8
REMARK    3  A    between atoms: N_8  and  C_9
REMARK    4  A    between atoms: C_9  and  C_10
REMARK    5  A    between atoms: C_10  and  C_13
REMARK    6  A    between atoms: C_17  and  N_18
REMARK    7  A    between atoms: N_18  and  C_19
REMARK    8  A    between atoms: N_21  and  C_22
REMARK    9  A    between atoms: C_22  and  C_23
REMARK   10  A    between atoms: C_23  and  O_24
REMARK                            x       y       z     vdW  Elec       q    Type
REMARK                         _______ _______ _______ _____ _____    ______ ____
ROOT
ATOM      1  C   UNL     1      44.477   5.163  12.517  0.00  0.00    +0.000 C 
ATOM      2  F   UNL     1      43.589   5.793  13.346  0.00  0.00    +0.000 F 
ATOM      3  F   UNL     1      44.541   3.874  12.981  0.00  0.00    +0.000 F 
ENDROOT
BRANCH   1   4
ATOM      4  C   UNL     1      45.842   5.825  12.574  0.00  0.00    +0.000 A 
ATOM      5  C   UNL     1      46.288   6.553  11.464  0.00  0.00    +0.000 A 
ATOM      6  C   UNL     1      47.535   7.180  11.483  0.00  0.00    +0.000 A 
ATOM      7  C   UNL     1      48.362   7.073  12.605  0.00  0.00    +0.000 A 
ATOM      8  C   UNL     1      47.950   6.346  13.718  0.00  0.00    +0.000 A 
ATOM      9  C   UNL     1      46.691   5.740  13.693  0.00  0.00    +0.000 A 
BRANCH   8  10
ATOM     10  N   UNL     1      48.701   6.223  14.907  0.00  0.00    +0.000 N 
ATOM     11  H   UNL     1      49.533   5.664  14.726  0.00  0.00    +0.000 HD
BRANCH  10  12
ATOM     12  C   UNL     1      48.151   5.983  16.216  0.00  0.00    +0.000 C 
ATOM     13  C   UNL     1      48.994   6.630  17.339  0.00  0.00    +0.000 C 
ATOM     14  N   UNL     1      49.020   5.339  18.067  0.00  0.00    +0.000 NA
ATOM     15  C   UNL     1      48.526   4.639  16.858  0.00  0.00    +0.000 C 
BRANCH  14  16
ATOM     16  C   UNL     1      47.990   5.344  19.130  0.00  0.00    +0.000 C 
BRANCH  16  17
ATOM     17  C   UNL     1      48.562   4.807  20.451  0.00  0.00    +0.000 C 
BRANCH  17  18
ATOM     18  O   UNL     1      48.360   3.400  20.553  0.00  0.00    +0.000 OA
ATOM     19  H   UNL     1      47.442   3.249  20.253  0.00  0.00    +0.000 HD
ENDBRANCH  17  18
ENDBRANCH  16  17
ENDBRANCH  14  16
ENDBRANCH  10  12
ENDBRANCH   8  10
ENDBRANCH   1   4
BRANCH   1  20
ATOM     20  C   UNL     1      43.870   5.112  11.093  0.00  0.00    +0.000 C 
BRANCH  20  21
ATOM     21  N   UNL     1      43.749   3.761  10.540  0.00  0.00    +0.000 N 
ATOM     22  H   UNL     1      43.536   3.038  11.226  0.00  0.00    +0.000 HD
BRANCH  21  26
ATOM     23  C   UNL     1      46.494   2.666   7.541  0.00  0.00    +0.000 A 
ATOM     24  C   UNL     1      45.907   1.667   8.322  0.00  0.00    +0.000 A 
ATOM     25  C   UNL     1      44.974   2.013   9.305  0.00  0.00    +0.000 A 
ATOM     26  C   UNL     1      44.585   3.345   9.507  0.00  0.00    +0.000 A 
ATOM     27  C   UNL     1      45.189   4.329   8.716  0.00  0.00    +0.000 A 
ATOM     28  C   UNL     1      46.139   4.000   7.748  0.00  0.00    +0.000 A 
BRANCH  23  30
ATOM     29  N   UNL     1      47.499   3.081   5.365  0.00  0.00    +0.000 N 
ATOM     30  C   UNL     1      47.532   2.360   6.524  0.00  0.00    +0.000 C 
ATOM     31  O   UNL     1      48.403   1.523   6.723  0.00  0.00    +0.000 OA
ATOM     32  H   UNL     1      48.276   2.938   4.730  0.00  0.00    +0.000 HD
ATOM     33  H   UNL     1      46.970   3.936   5.274  0.00  0.00    +0.000 HD
ENDBRANCH  23  30
ENDBRANCH  21  26
ENDBRANCH  20  21
ENDBRANCH   1  20
TORSDOF 10
ENDMDL
MODEL 3
REMARK VINA RESULT:    -7.578      3.305      4.520
REMARK INTER + INTRA:         -12.774
REMARK INTER:                 -12.050
REMARK INTRA:                  -0.724
REMARK UNBOUND:                -0.988
REMARK  Name = 
REMARK  10 active torsions:
REMARK  status: ('A' for Active; 'I' for Inactive)
REMARK    1  A    between atoms: C_2  and  C_4
REMARK    2  A    between atoms: C_7  and  N_8
REMARK    3  A    between atoms: N_8  and  C_9
REMARK    4  A    between atoms: C_9  and  C_10
REMARK    5  A    between atoms: C_10  and  C_13
REMARK    6  A    between atoms: C_17  and  N_18
REMARK    7  A    between atoms: N_18  and  C_19
REMARK    8  A    between atoms: N_21  and  C_22
REMARK    9  A    between atoms: C_22  and  C_23
REMARK   10  A    between atoms: C_23  and  O_24
REMARK                            x       y       z     vdW  Elec       q    Type
REMARK                         _______ _______ _______ _____ _____    ______ ____
ROOT
ATOM      1  C   UNL     1      43.523   5.441  12.249  0.00  0.00    +0.000 C 
ATOM      2  F   UNL     1      43.227   6.657  11.696  0.00  0.00    +0.000 F 
ATOM      3  F   UNL     1      42.613   5.283  13.263  0.00  0.00    +0.000 F 
ENDROOT
BRANCH   1   4
ATOM      4  C   UNL     1      44.942   5.417  12.789  0.00  0.00    +0.000 A 
ATOM      5  C   UNL     1      45.483   4.197  13.212  0.00  0.00    +0.000 A 
ATOM      6  C   UNL     1      46.787   4.136  13.708  0.00  0.00    +0.000 A 
ATOM      7  C   UNL     1      47.561   5.296  13.806  0.00  0.00    +0.000 A 
ATOM      8  C   UNL     1      47.044   6.524  13.405  0.00  0.00    +0.000 A 
ATOM      9  C   UNL     1      45.745   6.567  12.891  0.00  0.00    +0.000 A 
BRANCH   8  10
ATOM     10  N   UNL     1      47.769   7.735  13.428  0.00  0.00    +0.000 N 
ATOM     11  H   UNL     1      47.201   8.478  13.025  0.00  0.00    +0.000 HD
BRANCH  10  12
ATOM     12  C   UNL     1      49.166   7.873  13.105  0.00  0.00    +0.000 C 
ATOM     13  C   UNL     1      49.541   9.319  12.710  0.00  0.00    +0.000 C 
ATOM     14  N   UNL     1      50.201   8.817  11.481  0.00  0.00    +0.000 NA
ATOM     15  C   UNL     1      49.555   7.496  11.668  0.00  0.00    +0.000 C 
BRANCH  14  16
ATOM     16  C   UNL     1      51.661   8.725  11.700  0.00  0.00    +0.000 C 
BRANCH  16  17
ATOM     17  C   UNL     1      52.371   8.189  10.448  0.00  0.00    +0.000 C 
BRANCH  17  18
ATOM     18  O   UNL     1      52.564   6.780  10.541  0.00  0.00    +0.000 OA
ATOM     19  H   UNL     1      52.484   6.448   9.625  0.00  0.00    +0.000 HD
ENDBRANCH  17  18
ENDBRANCH  16  17
ENDBRANCH  14  16
ENDBRANCH  10  12
ENDBRANCH   8  10
ENDBRANCH   1   4
BRANCH   1  20
ATOM     20  C   UNL     1      43.239   4.340  11.197  0.00  0.00    +0.000 C 
BRANCH  20  21
ATOM     21  N   UNL     1      43.653   4.689   9.836  0.00  0.00    +0.000 N 
ATOM     22  H   UNL     1      42.894   4.989   9.224  0.00  0.00    +0.000 HD
BRANCH  21  26
ATOM     23  C   UNL     1      46.468   2.329   7.778  0.00  0.00    +0.000 A 
ATOM     24  C   UNL     1      46.430   3.705   7.538  0.00  0.00    +0.000 A 
ATOM     25  C   UNL     1      45.518   4.506   8.232  0.00  0.00    +0.000 A 
ATOM     26  C   UNL     1      44.655   3.964   9.195  0.00  0.00    +0.000 A 
ATOM     27  C   UNL     1      44.707   2.583   9.417  0.00  0.00    +0.000 A 
ATOM     28  C   UNL     1      45.596   1.769   8.714  0.00  0.00    +0.000 A 
BRANCH  23  30
ATOM     29  N   UNL     1      48.528   1.967   6.537  0.00  0.00    +0.000 N 
ATOM     30  C   UNL     1      47.375   1.425   7.028  0.00  0.00    +0.000 C 
ATOM     31  O   UNL     1      47.124   0.235   6.882  0.00  0.00    +0.000 OA
ATOM     32  H   UNL     1      49.186   1.315   6.125  0.00  0.00    +0.000 HD
ATOM     33  H   UNL     1      48.884   2.857   6.851  0.00  0.00    +0.000 HD
ENDBRANCH  23  30
ENDBRANCH  21  26
ENDBRANCH  20  21
ENDBRANCH   1  20
TORSDOF 10
ENDMDL
MODEL 4
REMARK VINA RESULT:    -7.422      3.081      3.861
REMARK INTER + INTRA:         -12.532
REMARK INTER:                 -11.695
REMARK INTRA:                  -0.838
REMARK UNBOUND:                -0.988
REMARK  Name = 
REMARK  10 active torsions:
REMARK  status: ('A' for Active; 'I' for Inactive)
REMARK    1  A    between atoms: C_2  and  C_4
REMARK    2  A    between atoms: C_7  and  N_8
REMARK    3  A    between atoms: N_8  and  C_9
REMARK    4  A    between atoms: C_9  and  C_10
REMARK    5  A    between atoms: C_10  and  C_13
REMARK    6  A    between atoms: C_17  and  N_18
REMARK    7  A    between atoms: N_18  and  C_19
REMARK    8  A    between atoms: N_21  and  C_22
REMARK    9  A    between atoms: C_22  and  C_23
REMARK   10  A    between atoms: C_23  and  O_24
REMARK                            x       y       z     vdW  Elec       q    Type
REMARK                         _______ _______ _______ _____ _____    ______ ____
ROOT
ATOM      1  C   UNL     1      43.508   5.556  12.143  0.00  0.00    +0.000 C 
ATOM      2  F   UNL     1      43.132   6.766  11.628  0.00  0.00    +0.000 F 
ATOM      3  F   UNL     1      42.717   5.380  13.250  0.00  0.00    +0.000 F 
ENDROOT
BRANCH   1   4
ATOM      4  C   UNL     1      44.977   5.557  12.526  0.00  0.00    +0.000 A 
ATOM      5  C   UNL     1      45.440   4.602  13.439  0.00  0.00    +0.000 A 
ATOM      6  C   UNL     1      46.786   4.570  13.808  0.00  0.00    +0.000 A 
ATOM      7  C   UNL     1      47.685   5.503  13.285  0.00  0.00    +0.000 A 
ATOM      8  C   UNL     1      47.251   6.472  12.384  0.00  0.00    +0.000 A 
ATOM      9  C   UNL     1      45.905   6.480  12.008  0.00  0.00    +0.000 A 
BRANCH   8  10
ATOM     10  N   UNL     1      48.097   7.423  11.774  0.00  0.00    +0.000 N 
ATOM     11  H   UNL     1      48.664   6.966  11.063  0.00  0.00    +0.000 HD
BRANCH  10  12
ATOM     12  C   UNL     1      48.815   8.461  12.467  0.00  0.00    +0.000 C 
ATOM     13  C   UNL     1      48.567   8.437  13.992  0.00  0.00    +0.000 C 
ATOM     14  N   UNL     1      48.241   9.883  13.965  0.00  0.00    +0.000 NA
ATOM     15  C   UNL     1      48.136   9.839  12.488  0.00  0.00    +0.000 C 
BRANCH  14  16
ATOM     16  C   UNL     1      49.421  10.669  14.387  0.00  0.00    +0.000 C 
BRANCH  16  17
ATOM     17  C   UNL     1      49.103  11.516  15.628  0.00  0.00    +0.000 C 
BRANCH  17  18
ATOM     18  O   UNL     1      48.242  10.806  16.515  0.00  0.00    +0.000 OA
ATOM     19  H   UNL     1      47.713  10.216  15.944  0.00  0.00    +0.000 HD
ENDBRANCH  17  18
ENDBRANCH  16  17
ENDBRANCH  14  16
ENDBRANCH  10  12
ENDBRANCH   8  10
ENDBRANCH   1   4
BRANCH   1  20
ATOM     20  C   UNL     1      43.132   4.449  11.126  0.00  0.00    +0.000 C 
BRANCH  20  21
ATOM     21  N   UNL     1      43.572   4.719   9.755  0.00  0.00    +0.000 N 
ATOM     22  H   UNL     1      42.826   4.983   9.113  0.00  0.00    +0.000 HD
BRANCH  21  26
ATOM     23  C   UNL     1      46.422   2.258   7.870  0.00  0.00    +0.000 A 
ATOM     24  C   UNL     1      46.456   3.636   7.641  0.00  0.00    +0.000 A 
ATOM     25  C   UNL     1      45.532   4.470   8.280  0.00  0.00    +0.000 A 
ATOM     26  C   UNL     1      44.585   3.957   9.177  0.00  0.00    +0.000 A 
ATOM     27  C   UNL     1      44.566   2.574   9.389  0.00  0.00    +0.000 A 
ATOM     28  C   UNL     1      45.467   1.729   8.741  0.00  0.00    +0.000 A 
BRANCH  23  30
ATOM     29  N   UNL     1      48.338   1.874   6.422  0.00  0.00    +0.000 N 
ATOM     30  C   UNL     1      47.341   1.323   7.175  0.00  0.00    +0.000 C 
ATOM     31  O   UNL     1      47.237   0.108   7.295  0.00  0.00    +0.000 OA
ATOM     32  H   UNL     1      49.020   1.226   6.045  0.00  0.00    +0.000 HD
ATOM     33  H   UNL     1      48.607   2.843   6.506  0.00  0.00    +0.000 HD
ENDBRANCH  23  30
ENDBRANCH  21  26
ENDBRANCH  20  21
ENDBRANCH   1  20
TORSDOF 10
ENDMDL
MODEL 5
REMARK VINA RESULT:    -7.406      2.217      2.728
REMARK INTER + INTRA:         -12.508
REMARK INTER:                 -11.776
REMARK INTRA:                  -0.732
REMARK UNBOUND:                -0.988
REMARK  Name = 
REMARK  10 active torsions:
REMARK  status: ('A' for Active; 'I' for Inactive)
REMARK    1  A    between atoms: C_2  and  C_4
REMARK    2  A    between atoms: C_7  and  N_8
REMARK    3  A    between atoms: N_8  and  C_9
REMARK    4  A    between atoms: C_9  and  C_10
REMARK    5  A    between atoms: C_10  and  C_13
REMARK    6  A    between atoms: C_17  and  N_18
REMARK    7  A    between atoms: N_18  and  C_19
REMARK    8  A    between atoms: N_21  and  C_22
REMARK    9  A    between atoms: C_22  and  C_23
REMARK   10  A    between atoms: C_23  and  O_24
REMARK                            x       y       z     vdW  Elec       q    Type
REMARK                         _______ _______ _______ _____ _____    ______ ____
ROOT
ATOM      1  C   UNL     1      43.948   4.864  12.431  0.00  0.00    +0.000 C 
ATOM      2  F   UNL     1      43.054   5.095  13.441  0.00  0.00    +0.000 F 
ATOM      3  F   UNL     1      44.579   3.696  12.776  0.00  0.00    +0.000 F 
ENDROOT
BRANCH   1   4
ATOM      4  C   UNL     1      44.947   6.002  12.315  0.00  0.00    +0.000 A 
ATOM      5  C   UNL     1      44.497   7.257  11.887  0.00  0.00    +0.000 A 
ATOM      6  C   UNL     1      45.386   8.327  11.775  0.00  0.00    +0.000 A 
ATOM      7  C   UNL     1      46.741   8.154  12.071  0.00  0.00    +0.000 A 
ATOM      8  C   UNL     1      47.219   6.915  12.488  0.00  0.00    +0.000 A 
ATOM      9  C   UNL     1      46.314   5.858  12.615  0.00  0.00    +0.000 A 
BRANCH   8  10
ATOM     10  N   UNL     1      48.560   6.664  12.849  0.00  0.00    +0.000 N 
ATOM     11  H   UNL     1      48.797   5.699  12.624  0.00  0.00    +0.000 HD
BRANCH  10  12
ATOM     12  C   UNL     1      49.193   7.116  14.061  0.00  0.00    +0.000 C 
ATOM     13  C   UNL     1      48.683   6.366  15.311  0.00  0.00    +0.000 C 
ATOM     14  N   UNL     1      48.431   7.660  15.990  0.00  0.00    +0.000 NA
ATOM     15  C   UNL     1      48.582   8.373  14.700  0.00  0.00    +0.000 C 
BRANCH  14  16
ATOM     16  C   UNL     1      49.554   7.973  16.900  0.00  0.00    +0.000 C 
BRANCH  16  17
ATOM     17  C   UNL     1      49.050   8.213  18.331  0.00  0.00    +0.000 C 
BRANCH  17  18
ATOM     18  O   UNL     1      47.626   8.252  18.365  0.00  0.00    +0.000 OA
ATOM     19  H   UNL     1      47.346   8.252  17.428  0.00  0.00    +0.000 HD
ENDBRANCH  17  18
ENDBRANCH  16  17
ENDBRANCH  14  16
ENDBRANCH  10  12
ENDBRANCH   8  10
ENDBRANCH   1   4
BRANCH   1  20
ATOM     20  C   UNL     1      43.159   4.595  11.126  0.00  0.00    +0.000 C 
BRANCH  20  21
ATOM     21  N   UNL     1      43.872   4.978   9.904  0.00  0.00    +0.000 N 
ATOM     22  H   UNL     1      43.383   5.655   9.320  0.00  0.00    +0.000 HD
BRANCH  21  26
ATOM     23  C   UNL     1      46.351   2.250   7.868  0.00  0.00    +0.000 A 
ATOM     24  C   UNL     1      45.408   1.763   8.778  0.00  0.00    +0.000 A 
ATOM     25  C   UNL     1      44.560   2.655   9.443  0.00  0.00    +0.000 A 
ATOM     26  C   UNL     1      44.610   4.034   9.194  0.00  0.00    +0.000 A 
ATOM     27  C   UNL     1      45.565   4.500   8.283  0.00  0.00    +0.000 A 
ATOM     28  C   UNL     1      46.432   3.623   7.630  0.00  0.00    +0.000 A 
BRANCH  23  30
ATOM     29  N   UNL     1      48.340   1.947   6.501  0.00  0.00    +0.000 N 
ATOM     30  C   UNL     1      47.313   1.354   7.179  0.00  0.00    +0.000 C 
ATOM     31  O   UNL     1      47.216   0.135   7.239  0.00  0.00    +0.000 OA
ATOM     32  H   UNL     1      49.047   1.322   6.130  0.00  0.00    +0.000 HD
ATOM     33  H   UNL     1      48.594   2.913   6.642  0.00  0.00    +0.000 HD
ENDBRANCH  23  30
ENDBRANCH  21  26
ENDBRANCH  20  21
ENDBRANCH   1  20
TORSDOF 10
ENDMDL
MODEL 6
REMARK VINA RESULT:    -7.175      3.962      4.969
REMARK INTER + INTRA:         -12.148
REMARK INTER:                 -11.546
REMARK INTRA:                  -0.602
REMARK UNBOUND:                -0.988
REMARK  Name = 
REMARK  10 active torsions:
REMARK  status: ('A' for Active; 'I' for Inactive)
REMARK    1  A    between atoms: C_2  and  C_4
REMARK    2  A    between atoms: C_7  and  N_8
REMARK    3  A    between atoms: N_8  and  C_9
REMARK    4  A    between atoms: C_9  and  C_10
REMARK    5  A    between atoms: C_10  and  C_13
REMARK    6  A    between atoms: C_17  and  N_18
REMARK    7  A    between atoms: N_18  and  C_19
REMARK    8  A    between atoms: N_21  and  C_22
REMARK    9  A    between atoms: C_22  and  C_23
REMARK   10  A    between atoms: C_23  and  O_24
REMARK                            x       y       z     vdW  Elec       q    Type
REMARK                         _______ _______ _______ _____ _____    ______ ____
ROOT
ATOM      1  C   UNL     1      44.503   4.676  12.368  0.00  0.00    +0.000 C 
ATOM      2  F   UNL     1      44.001   4.376  13.605  0.00  0.00    +0.000 F 
ATOM      3  F   UNL     1      45.460   3.722  12.134  0.00  0.00    +0.000 F 
ENDROOT
BRANCH   1   4
ATOM      4  C   UNL     1      45.112   6.067  12.348  0.00  0.00    +0.000 A 
ATOM      5  C   UNL     1      44.440   7.091  11.671  0.00  0.00    +0.000 A 
ATOM      6  C   UNL     1      44.967   8.383  11.637  0.00  0.00    +0.000 A 
ATOM      7  C   UNL     1      46.183   8.666  12.264  0.00  0.00    +0.000 A 
ATOM      8  C   UNL     1      46.881   7.665  12.934  0.00  0.00    +0.000 A 
ATOM      9  C   UNL     1      46.331   6.381  12.977  0.00  0.00    +0.000 A 
BRANCH   8  10
ATOM     10  N   UNL     1      48.091   7.872  13.630  0.00  0.00    +0.000 N 
ATOM     11  H   UNL     1      48.007   8.699  14.218  0.00  0.00    +0.000 HD
BRANCH  10  12
ATOM     12  C   UNL     1      49.409   7.729  13.067  0.00  0.00    +0.000 C 
ATOM     13  C   UNL     1      50.085   9.091  12.790  0.00  0.00    +0.000 C 
ATOM     14  N   UNL     1      50.393   8.661  11.406  0.00  0.00    +0.000 NA
ATOM     15  C   UNL     1      49.461   7.517  11.547  0.00  0.00    +0.000 C 
BRANCH  14  16
ATOM     16  C   UNL     1      51.795   8.192  11.329  0.00  0.00    +0.000 C 
BRANCH  16  17
ATOM     17  C   UNL     1      52.534   8.861  10.161  0.00  0.00    +0.000 C 
BRANCH  17  18
ATOM     18  O   UNL     1      52.681   7.955   9.071  0.00  0.00    +0.000 OA
ATOM     19  H   UNL     1      51.814   7.512   8.986  0.00  0.00    +0.000 HD
ENDBRANCH  17  18
ENDBRANCH  16  17
ENDBRANCH  14  16
ENDBRANCH  10  12
ENDBRANCH   8  10
ENDBRANCH   1   4
BRANCH   1  20
ATOM     20  C   UNL     1      43.382   4.474  11.318  0.00  0.00    +0.000 C 
BRANCH  20  21
ATOM     21  N   UNL     1      43.774   4.816   9.949  0.00  0.00    +0.000 N 
ATOM     22  H   UNL     1      43.064   5.315   9.415  0.00  0.00    +0.000 HD
BRANCH  21  26
ATOM     23  C   UNL     1      46.344   2.273   7.790  0.00  0.00    +0.000 A 
ATOM     24  C   UNL     1      45.408   1.711   8.663  0.00  0.00    +0.000 A 
ATOM     25  C   UNL     1      44.530   2.542   9.367  0.00  0.00    +0.000 A 
ATOM     26  C   UNL     1      44.544   3.933   9.195  0.00  0.00    +0.000 A 
ATOM     27  C   UNL     1      45.492   4.474   8.320  0.00  0.00    +0.000 A 
ATOM     28  C   UNL     1      46.389   3.659   7.628  0.00  0.00    +0.000 A 
BRANCH  23  30
ATOM     29  N   UNL     1      48.444   2.079   6.578  0.00  0.00    +0.000 N 
ATOM     30  C   UNL     1      47.336   1.443   7.062  0.00  0.00    +0.000 C 
ATOM     31  O   UNL     1      47.191   0.235   6.927  0.00  0.00    +0.000 OA
ATOM     32  H   UNL     1      49.161   1.482   6.181  0.00  0.00    +0.000 HD
ATOM     33  H   UNL     1      48.717   3.000   6.886  0.00  0.00    +0.000 HD
ENDBRANCH  23  30
ENDBRANCH  21  26
ENDBRANCH  20  21
ENDBRANCH   1  20
TORSDOF 10
ENDMDL
MODEL 7
REMARK VINA RESULT:    -7.142      2.388      8.969
REMARK INTER + INTRA:         -12.097
REMARK INTER:                 -11.414
REMARK INTRA:                  -0.684
REMARK UNBOUND:                -0.988
REMARK  Name = 
REMARK  10 active torsions:
REMARK  status: ('A' for Active; 'I' for Inactive)
REMARK    1  A    between atoms: C_2  and  C_4
REMARK    2  A    between atoms: C_7  and  N_8
REMARK    3  A    between atoms: N_8  and  C_9
REMARK    4  A    between atoms: C_9  and  C_10
REMARK    5  A    between atoms: C_10  and  C_13
REMARK    6  A    between atoms: C_17  and  N_18
REMARK    7  A    between atoms: N_18  and  C_19
REMARK    8  A    between atoms: N_21  and  C_22
REMARK    9  A    between atoms: C_22  and  C_23
REMARK   10  A    between atoms: C_23  and  O_24
REMARK                            x       y       z     vdW  Elec       q    Type
REMARK                         _______ _______ _______ _____ _____    ______ ____
ROOT
ATOM      1  C   UNL     1      46.662   5.219  13.664  0.00  0.00    +0.000 C 
ATOM      2  F   UNL     1      46.635   6.504  14.133  0.00  0.00    +0.000 F 
ATOM      3  F   UNL     1      47.805   5.140  12.911  0.00  0.00    +0.000 F 
ENDROOT
BRANCH   1   4
ATOM      4  C   UNL     1      45.437   4.919  12.819  0.00  0.00    +0.000 A 
ATOM      5  C   UNL     1      44.318   5.754  12.928  0.00  0.00    +0.000 A 
ATOM      6  C   UNL     1      43.177   5.513  12.161  0.00  0.00    +0.000 A 
ATOM      7  C   UNL     1      43.130   4.423  11.288  0.00  0.00    +0.000 A 
ATOM      8  C   UNL     1      44.223   3.568  11.168  0.00  0.00    +0.000 A 
ATOM      9  C   UNL     1      45.366   3.834  11.927  0.00  0.00    +0.000 A 
BRANCH   8  10
ATOM     10  N   UNL     1      44.277   2.471  10.281  0.00  0.00    +0.000 N 
ATOM     11  H   UNL     1      44.724   1.682  10.744  0.00  0.00    +0.000 HD
BRANCH  10  12
ATOM     12  C   UNL     1      44.613   2.550   8.882  0.00  0.00    +0.000 C 
ATOM     13  C   UNL     1      45.873   1.728   8.529  0.00  0.00    +0.000 C 
ATOM     14  N   UNL     1      46.453   2.906   7.842  0.00  0.00    +0.000 NA
ATOM     15  C   UNL     1      45.431   3.780   8.464  0.00  0.00    +0.000 C 
BRANCH  14  16
ATOM     16  C   UNL     1      46.232   2.793   6.383  0.00  0.00    +0.000 C 
BRANCH  16  17
ATOM     17  C   UNL     1      47.553   2.525   5.647  0.00  0.00    +0.000 C 
BRANCH  17  18
ATOM     18  O   UNL     1      48.608   2.285   6.574  0.00  0.00    +0.000 OA
ATOM     19  H   UNL     1      48.344   1.481   7.062  0.00  0.00    +0.000 HD
ENDBRANCH  17  18
ENDBRANCH  16  17
ENDBRANCH  14  16
ENDBRANCH  10  12
ENDBRANCH   8  10
ENDBRANCH   1   4
BRANCH   1  20
ATOM     20  C   UNL     1      46.835   4.259  14.868  0.00  0.00    +0.000 C 
BRANCH  20  21
ATOM     21  N   UNL     1      47.262   4.918  16.105  0.00  0.00    +0.000 N 
ATOM     22  H   UNL     1      47.026   5.908  16.162  0.00  0.00    +0.000 HD
BRANCH  21  26
ATOM     23  C   UNL     1      50.975   3.711  17.681  0.00  0.00    +0.000 A 
ATOM     24  C   UNL     1      50.765   5.063  17.394  0.00  0.00    +0.000 A 
ATOM     25  C   UNL     1      49.528   5.483  16.894  0.00  0.00    +0.000 A 
ATOM     26  C   UNL     1      48.473   4.580  16.702  0.00  0.00    +0.000 A 
ATOM     27  C   UNL     1      48.707   3.230  16.991  0.00  0.00    +0.000 A 
ATOM     28  C   UNL     1      49.943   2.795  17.469  0.00  0.00    +0.000 A 
BRANCH  23  30
ATOM     29  N   UNL     1      52.400   1.855  18.345  0.00  0.00    +0.000 N 
ATOM     30  C   UNL     1      52.285   3.203  18.158  0.00  0.00    +0.000 C 
ATOM     31  O   UNL     1      53.237   3.950  18.347  0.00  0.00    +0.000 OA
ATOM     32  H   UNL     1      53.329   1.514  18.564  0.00  0.00    +0.000 HD
ATOM     33  H   UNL     1      51.737   1.198  17.962  0.00  0.00    +0.000 HD
ENDBRANCH  23  30
ENDBRANCH  21  26
ENDBRANCH  20  21
ENDBRANCH   1  20
TORSDOF 10
ENDMDL
MODEL 8
REMARK VINA RESULT:    -7.011      1.751      8.965
REMARK INTER + INTRA:         -11.892
REMARK INTER:                 -11.522
REMARK INTRA:                  -0.370
REMARK UNBOUND:                -0.988
REMARK  Name = 
REMARK  10 active torsions:
REMARK  status: ('A' for Active; 'I' for Inactive)
REMARK    1  A    between atoms: C_2  and  C_4
REMARK    2  A    between atoms: C_7  and  N_8
REMARK    3  A    between atoms: N_8  and  C_9
REMARK    4  A    between atoms: C_9  and  C_10
REMARK    5  A    between atoms: C_10  and  C_13
REMARK    6  A    between atoms: C_17  and  N_18
REMARK    7  A    between atoms: N_18  and  C_19
REMARK    8  A    between atoms: N_21  and  C_22
REMARK    9  A    between atoms: C_22  and  C_23
REMARK   10  A    between atoms: C_23  and  O_24
REMARK                            x       y       z     vdW  Elec       q    Type
REMARK                         _______ _______ _______ _____ _____    ______ ____
ROOT
ATOM      1  C   UNL     1      46.385   6.838  12.117  0.00  0.00    +0.000 C 
ATOM      2  F   UNL     1      45.945   8.129  12.019  0.00  0.00    +0.000 F 
ATOM      3  F   UNL     1      47.371   6.727  11.170  0.00  0.00    +0.000 F 
ENDROOT
BRANCH   1   4
ATOM      4  C   UNL     1      45.261   5.855  11.843  0.00  0.00    +0.000 A 
ATOM      5  C   UNL     1      43.977   6.144  12.320  0.00  0.00    +0.000 A 
ATOM      6  C   UNL     1      42.918   5.267  12.081  0.00  0.00    +0.000 A 
ATOM      7  C   UNL     1      43.131   4.077  11.379  0.00  0.00    +0.000 A 
ATOM      8  C   UNL     1      44.400   3.756  10.904  0.00  0.00    +0.000 A 
ATOM      9  C   UNL     1      45.446   4.655  11.132  0.00  0.00    +0.000 A 
BRANCH   8  10
ATOM     10  N   UNL     1      44.695   2.601  10.149  0.00  0.00    +0.000 N 
ATOM     11  H   UNL     1      45.364   2.026  10.658  0.00  0.00    +0.000 HD
BRANCH  10  12
ATOM     12  C   UNL     1      44.913   2.571   8.726  0.00  0.00    +0.000 C 
ATOM     13  C   UNL     1      46.055   1.611   8.322  0.00  0.00    +0.000 C 
ATOM     14  N   UNL     1      46.681   2.689   7.518  0.00  0.00    +0.000 NA
ATOM     15  C   UNL     1      45.803   3.691   8.167  0.00  0.00    +0.000 C 
BRANCH  14  16
ATOM     16  C   UNL     1      46.324   2.519   6.093  0.00  0.00    +0.000 C 
BRANCH  16  17
ATOM     17  C   UNL     1      47.574   2.577   5.203  0.00  0.00    +0.000 C 
BRANCH  17  18
ATOM     18  O   UNL     1      48.583   1.698   5.693  0.00  0.00    +0.000 OA
ATOM     19  H   UNL     1      49.378   1.896   5.160  0.00  0.00    +0.000 HD
ENDBRANCH  17  18
ENDBRANCH  16  17
ENDBRANCH  14  16
ENDBRANCH  10  12
ENDBRANCH   8  10
ENDBRANCH   1   4
BRANCH   1  20
ATOM     20  C   UNL     1      47.052   6.648  13.502  0.00  0.00    +0.000 C 
BRANCH  20  21
ATOM     21  N   UNL     1      46.886   5.308  14.070  0.00  0.00    +0.000 N 
ATOM     22  H   UNL     1      45.973   4.886  13.905  0.00  0.00    +0.000 HD
BRANCH  21  26
ATOM     23  C   UNL     1      48.490   4.598  17.898  0.00  0.00    +0.000 A 
ATOM     24  C   UNL     1      47.590   3.676  17.357  0.00  0.00    +0.000 A 
ATOM     25  C   UNL     1      47.069   3.885  16.076  0.00  0.00    +0.000 A 
ATOM     26  C   UNL     1      47.453   4.988  15.301  0.00  0.00    +0.000 A 
ATOM     27  C   UNL     1      48.352   5.901  15.865  0.00  0.00    +0.000 A 
ATOM     28  C   UNL     1      48.862   5.717  17.151  0.00  0.00    +0.000 A 
BRANCH  23  30
ATOM     29  N   UNL     1      48.439   3.525  20.081  0.00  0.00    +0.000 N 
ATOM     30  C   UNL     1      49.029   4.456  19.274  0.00  0.00    +0.000 C 
ATOM     31  O   UNL     1      49.983   5.117  19.664  0.00  0.00    +0.000 OA
ATOM     32  H   UNL     1      48.888   3.364  20.975  0.00  0.00    +0.000 HD
ATOM     33  H   UNL     1      47.837   2.800  19.720  0.00  0.00    +0.000 HD
ENDBRANCH  23  30
ENDBRANCH  21  26
ENDBRANCH  20  21
ENDBRANCH   1  20
TORSDOF 10
ENDMDL
MODEL 9
REMARK VINA RESULT:    -6.779      4.528      6.722
REMARK INTER + INTRA:         -11.533
REMARK INTER:                 -11.572
REMARK INTRA:                   0.039
REMARK UNBOUND:                -0.988
REMARK  Name = 
REMARK  10 active torsions:
REMARK  status: ('A' for Active; 'I' for Inactive)
REMARK    1  A    between atoms: C_2  and  C_4
REMARK    2  A    between atoms: C_7  and  N_8
REMARK    3  A    between atoms: N_8  and  C_9
REMARK    4  A    between atoms: C_9  and  C_10
REMARK    5  A    between atoms: C_10  and  C_13
REMARK    6  A    between atoms: C_17  and  N_18
REMARK    7  A    between atoms: N_18  and  C_19
REMARK    8  A    between atoms: N_21  and  C_22
REMARK    9  A    between atoms: C_22  and  C_23
REMARK   10  A    between atoms: C_23  and  O_24
REMARK                            x       y       z     vdW  Elec       q    Type
REMARK                         _______ _______ _______ _____ _____    ______ ____
ROOT
ATOM      1  C   UNL     1      44.619   4.808  12.190  0.00  0.00    +0.000 C 
ATOM      2  F   UNL     1      44.217   4.437  13.443  0.00  0.00    +0.000 F 
ATOM      3  F   UNL     1      45.499   3.832  11.796  0.00  0.00    +0.000 F 
ENDROOT
BRANCH   1   4
ATOM      4  C   UNL     1      45.297   6.167  12.213  0.00  0.00    +0.000 A 
ATOM      5  C   UNL     1      46.577   6.275  12.768  0.00  0.00    +0.000 A 
ATOM      6  C   UNL     1      47.232   7.507  12.801  0.00  0.00    +0.000 A 
ATOM      7  C   UNL     1      46.610   8.652  12.296  0.00  0.00    +0.000 A 
ATOM      8  C   UNL     1      45.332   8.577  11.750  0.00  0.00    +0.000 A 
ATOM      9  C   UNL     1      44.696   7.333  11.705  0.00  0.00    +0.000 A 
BRANCH   8  10
ATOM     10  N   UNL     1      44.648   9.672  11.179  0.00  0.00    +0.000 N 
ATOM     11  H   UNL     1      45.280  10.467  11.107  0.00  0.00    +0.000 HD
BRANCH  10  12
ATOM     12  C   UNL     1      43.300  10.068  11.499  0.00  0.00    +0.000 C 
ATOM     13  C   UNL     1      42.284   9.637  10.418  0.00  0.00    +0.000 C 
ATOM     14  N   UNL     1      41.751  11.019  10.362  0.00  0.00    +0.000 NA
ATOM     15  C   UNL     1      42.925  11.509  11.122  0.00  0.00    +0.000 C 
BRANCH  14  16
ATOM     16  C   UNL     1      40.520  11.113  11.177  0.00  0.00    +0.000 C 
BRANCH  16  17
ATOM     17  C   UNL     1      39.293  10.658  10.373  0.00  0.00    +0.000 C 
BRANCH  17  18
ATOM     18  O   UNL     1      38.088  11.071  11.013  0.00  0.00    +0.000 OA
ATOM     19  H   UNL     1      37.393  10.984  10.332  0.00  0.00    +0.000 HD
ENDBRANCH  17  18
ENDBRANCH  16  17
ENDBRANCH  14  16
ENDBRANCH  10  12
ENDBRANCH   8  10
ENDBRANCH   1   4
BRANCH   1  20
ATOM     20  C   UNL     1      43.398   4.739  11.240  0.00  0.00    +0.000 C 
BRANCH  20  21
ATOM     21  N   UNL     1      43.737   4.840   9.818  0.00  0.00    +0.000 N 
ATOM     22  H   UNL     1      42.954   5.077   9.210  0.00  0.00    +0.000 HD
BRANCH  21  26
ATOM     23  C   UNL     1      46.309   2.067   7.968  0.00  0.00    +0.000 A 
ATOM     24  C   UNL     1      46.487   3.430   7.718  0.00  0.00    +0.000 A 
ATOM     25  C   UNL     1      45.657   4.365   8.345  0.00  0.00    +0.000 A 
ATOM     26  C   UNL     1      44.663   3.968   9.251  0.00  0.00    +0.000 A 
ATOM     27  C   UNL     1      44.499   2.598   9.483  0.00  0.00    +0.000 A 
ATOM     28  C   UNL     1      45.305   1.653   8.846  0.00  0.00    +0.000 A 
BRANCH  23  30
ATOM     29  N   UNL     1      46.911  -0.269   7.651  0.00  0.00    +0.000 N 
ATOM     30  C   UNL     1      47.123   1.030   7.286  0.00  0.00    +0.000 C 
ATOM     31  O   UNL     1      47.928   1.316   6.408  0.00  0.00    +0.000 OA
ATOM     32  H   UNL     1      47.393  -0.969   7.101  0.00  0.00    +0.000 HD
ATOM     33  H   UNL     1      46.095  -0.558   8.169  0.00  0.00    +0.000 HD
ENDBRANCH  23  30
ENDBRANCH  21  26
ENDBRANCH  20  21
ENDBRANCH   1  20
TORSDOF 10
ENDMDL
