MODEL 1
REMARK VINA RESULT:    -7.489      0.000      0.000
REMARK INTER + INTRA:         -10.098
REMARK INTER:                  -9.460
REMARK INTRA:                  -0.639
REMARK UNBOUND:                -0.639
REMARK  Name = 
REMARK  5 active torsions:
REMARK  status: ('A' for Active; 'I' for Inactive)
REMARK    1  A    between atoms: N_1  and  C_2
REMARK    2  A    between atoms: C_2  and  C_3
REMARK    3  A    between atoms: C_3  and  C_4
REMARK    4  A    between atoms: N_6  and  C_7
REMARK    5  A    between atoms: C_7  and  C_8
REMARK                            x       y       z     vdW  Elec       q    Type
REMARK                         _______ _______ _______ _____ _____    ______ ____
ROOT
ATOM      1  C   UNL     1      43.795   4.855  10.076  0.00  0.00    +0.000 C 
ENDROOT
BRANCH   1   2
ATOM      2  C   UNL     1      44.585   3.824   9.320  0.00  0.00    +0.000 A 
ATOM      3  C   UNL     1      44.595   2.493   9.714  0.00  0.00    +0.000 A 
ATOM      4  N   UNL     1      45.317   1.545   9.085  0.00  0.00    +0.000 NA
ATOM      5  C   UNL     1      46.037   1.945   8.023  0.00  0.00    +0.000 A 
ATOM      6  C   UNL     1      46.833   1.025   7.354  0.00  0.00    +0.000 A 
ATOM      7  C   UNL     1      47.577   1.388   6.232  0.00  0.00    +0.000 A 
ATOM      8  C   UNL     1      47.522   2.696   5.770  0.00  0.00    +0.000 A 
ATOM      9  C   UNL     1      46.740   3.635   6.447  0.00  0.00    +0.000 A 
ATOM     10  C   UNL     1      46.003   3.289   7.576  0.00  0.00    +0.000 A 
ATOM     11  N   UNL     1      45.277   4.227   8.223  0.00  0.00    +0.000 NA
ENDBRANCH   1   2
BRANCH   1  14
ATOM     12  C   UNL     1      45.767   5.504  13.021  0.00  0.00    +0.000 A 
ATOM     13  C   UNL     1      45.674   5.474  11.645  0.00  0.00    +0.000 A 
ATOM     14  N   UNL     1      44.374   5.140  11.379  0.00  0.00    +0.000 N 
ATOM     15  C   UNL     1      43.727   5.022  12.576  0.00  0.00    +0.000 A 
ATOM     16  N   UNL     1      44.545   5.220  13.585  0.00  0.00    +0.000 NA
BRANCH  12  17
ATOM     17  C   UNL     1      46.963   5.770  13.871  0.00  0.00    +0.000 C 
BRANCH  17  18
ATOM     18  C   UNL     1      47.224   4.624  14.854  0.00  0.00    +0.000 C 
BRANCH  18  19
ATOM     19  N   UNL     1      47.199   3.316  14.194  0.00  0.00    +0.000 NA
ATOM     20  H   UNL     1      46.614   3.378  13.360  0.00  0.00    +0.000 HD
ATOM     21  H   UNL     1      46.736   2.643  14.806  0.00  0.00    +0.000 HD
ENDBRANCH  18  19
ENDBRANCH  17  18
ENDBRANCH  12  17
ENDBRANCH   1  14
TORSDOF 5
ENDMDL
MODEL 2
REMARK VINA RESULT:    -7.175      0.978      1.003
REMARK INTER + INTRA:          -9.701
REMARK INTER:                  -9.111
REMARK INTRA:                  -0.590
REMARK UNBOUND:                -0.639
REMARK  Name = 
REMARK  5 active torsions:
REMARK  status: ('A' for Active; 'I' for Inactive)
REMARK    1  A    between atoms: N_1  and  C_2
REMARK    2  A    between atoms: C_2  and  C_3
REMARK    3  A    between atoms: C_3  and  C_4
REMARK    4  A    between atoms: N_6  and  C_7
REMARK    5  A    between atoms: C_7  and  C_8
REMARK                            x       y       z     vdW  Elec       q    Type
REMARK                         _______ _______ _______ _____ _____    ______ ____
ROOT
ATOM      1  C   UNL     1      43.737   4.844  10.182  0.00  0.00    +0.000 C 
ENDROOT
BRANCH   1   2
ATOM      2  C   UNL     1      44.545   3.833   9.421  0.00  0.00    +0.000 A 
ATOM      3  C   UNL     1      44.559   2.495   9.791  0.00  0.00    +0.000 A 
ATOM      4  N   UNL     1      45.298   1.564   9.157  0.00  0.00    +0.000 NA
ATOM      5  C   UNL     1      46.032   1.988   8.114  0.00  0.00    +0.000 A 
ATOM      6  C   UNL     1      46.845   1.085   7.442  0.00  0.00    +0.000 A 
ATOM      7  C   UNL     1      47.606   1.474   6.339  0.00  0.00    +0.000 A 
ATOM      8  C   UNL     1      47.548   2.789   5.899  0.00  0.00    +0.000 A 
ATOM      9  C   UNL     1      46.748   3.711   6.581  0.00  0.00    +0.000 A 
ATOM     10  C   UNL     1      45.996   3.339   7.691  0.00  0.00    +0.000 A 
ATOM     11  N   UNL     1      45.252   4.260   8.343  0.00  0.00    +0.000 NA
ENDBRANCH   1   2
BRANCH   1  14
ATOM     12  C   UNL     1      45.863   6.427  12.623  0.00  0.00    +0.000 A 
ATOM     13  C   UNL     1      45.346   6.405  11.344  0.00  0.00    +0.000 A 
ATOM     14  N   UNL     1      44.455   5.366  11.333  0.00  0.00    +0.000 N 
ATOM     15  C   UNL     1      44.433   4.831  12.589  0.00  0.00    +0.000 A 
ATOM     16  N   UNL     1      45.283   5.440  13.385  0.00  0.00    +0.000 NA
BRANCH  12  17
ATOM     17  C   UNL     1      46.908   7.325  13.192  0.00  0.00    +0.000 C 
BRANCH  17  18
ATOM     18  C   UNL     1      48.121   6.534  13.693  0.00  0.00    +0.000 C 
BRANCH  18  19
ATOM     19  N   UNL     1      47.818   5.777  14.912  0.00  0.00    +0.000 NA
ATOM     20  H   UNL     1      47.831   6.415  15.708  0.00  0.00    +0.000 HD
ATOM     21  H   UNL     1      48.569   5.108  15.082  0.00  0.00    +0.000 HD
ENDBRANCH  18  19
ENDBRANCH  17  18
ENDBRANCH  12  17
ENDBRANCH   1  14
TORSDOF 5
ENDMDL
MODEL 3
REMARK VINA RESULT:    -6.747      1.839      6.575
REMARK INTER + INTRA:          -9.161
REMARK INTER:                  -8.777
REMARK INTRA:                  -0.384
REMARK UNBOUND:                -0.639
REMARK  Name = 
REMARK  5 active torsions:
REMARK  status: ('A' for Active; 'I' for Inactive)
REMARK    1  A    between atoms: N_1  and  C_2
REMARK    2  A    between atoms: C_2  and  C_3
REMARK    3  A    between atoms: C_3  and  C_4
REMARK    4  A    between atoms: N_6  and  C_7
REMARK    5  A    between atoms: C_7  and  C_8
REMARK                            x       y       z     vdW  Elec       q    Type
REMARK                         _______ _______ _______ _____ _____    ______ ____
ROOT
ATOM      1  C   UNL     1      43.702   4.653  10.649  0.00  0.00    +0.000 C 
ENDROOT
BRANCH   1   2
ATOM      2  C   UNL     1      44.527   5.654  11.407  0.00  0.00    +0.000 A 
ATOM      3  C   UNL     1      44.214   7.006  11.389  0.00  0.00    +0.000 A 
ATOM      4  N   UNL     1      44.948   7.940  12.026  0.00  0.00    +0.000 NA
ATOM      5  C   UNL     1      46.017   7.498  12.711  0.00  0.00    +0.000 A 
ATOM      6  C   UNL     1      46.837   8.414  13.357  0.00  0.00    +0.000 A 
ATOM      7  C   UNL     1      47.943   8.001  14.100  0.00  0.00    +0.000 A 
ATOM      8  C   UNL     1      48.231   6.647  14.200  0.00  0.00    +0.000 A 
ATOM      9  C   UNL     1      47.425   5.718  13.536  0.00  0.00    +0.000 A 
ATOM     10  C   UNL     1      46.327   6.118  12.781  0.00  0.00    +0.000 A 
ATOM     11  N   UNL     1      45.581   5.197  12.131  0.00  0.00    +0.000 NA
ENDBRANCH   1   2
BRANCH   1  14
ATOM     12  C   UNL     1      45.712   3.133   8.073  0.00  0.00    +0.000 A 
ATOM     13  C   UNL     1      45.241   4.278   8.683  0.00  0.00    +0.000 A 
ATOM     14  N   UNL     1      44.512   3.842   9.755  0.00  0.00    +0.000 N 
ATOM     15  C   UNL     1      44.597   2.478   9.783  0.00  0.00    +0.000 A 
ATOM     16  N   UNL     1      45.300   2.021   8.771  0.00  0.00    +0.000 NA
BRANCH  12  17
ATOM     17  C   UNL     1      46.528   3.004   6.832  0.00  0.00    +0.000 C 
BRANCH  17  18
ATOM     18  C   UNL     1      47.392   1.739   6.852  0.00  0.00    +0.000 C 
BRANCH  18  19
ATOM     19  N   UNL     1      48.443   1.775   5.832  0.00  0.00    +0.000 NA
ATOM     20  H   UNL     1      48.567   2.738   5.518  0.00  0.00    +0.000 HD
ATOM     21  H   UNL     1      48.128   1.256   5.012  0.00  0.00    +0.000 HD
ENDBRANCH  18  19
ENDBRANCH  17  18
ENDBRANCH  12  17
ENDBRANCH   1  14
TORSDOF 5
ENDMDL
MODEL 4
REMARK VINA RESULT:    -6.204      4.084      7.015
REMARK INTER + INTRA:          -8.475
REMARK INTER:                  -7.888
REMARK INTRA:                  -0.587
REMARK UNBOUND:                -0.639
REMARK  Name = 
REMARK  5 active torsions:
REMARK  status: ('A' for Active; 'I' for Inactive)
REMARK    1  A    between atoms: N_1  and  C_2
REMARK    2  A    between atoms: C_2  and  C_3
REMARK    3  A    between atoms: C_3  and  C_4
REMARK    4  A    between atoms: N_6  and  C_7
REMARK    5  A    between atoms: C_7  and  C_8
REMARK                            x       y       z     vdW  Elec       q    Type
REMARK                         _______ _______ _______ _____ _____    ______ ____
ROOT
ATOM      1  C   UNL     1      47.541   4.233  16.902  0.00  0.00    +0.000 C 
ENDROOT
BRANCH   1   2
ATOM      2  C   UNL     1      47.401   4.819  15.525  0.00  0.00    +0.000 A 
ATOM      3  C   UNL     1      48.238   5.836  15.088  0.00  0.00    +0.000 A 
ATOM      4  N   UNL     1      48.123   6.413  13.875  0.00  0.00    +0.000 NA
ATOM      5  C   UNL     1      47.148   5.943  13.077  0.00  0.00    +0.000 A 
ATOM      6  C   UNL     1      46.952   6.521  11.830  0.00  0.00    +0.000 A 
ATOM      7  C   UNL     1      45.969   6.051  10.958  0.00  0.00    +0.000 A 
ATOM      8  C   UNL     1      45.171   4.982  11.341  0.00  0.00    +0.000 A 
ATOM      9  C   UNL     1      45.347   4.406  12.603  0.00  0.00    +0.000 A 
ATOM     10  C   UNL     1      46.314   4.875  13.487  0.00  0.00    +0.000 A 
ATOM     11  N   UNL     1      46.442   4.312  14.709  0.00  0.00    +0.000 NA
ENDBRANCH   1   2
BRANCH   1  14
ATOM     12  C   UNL     1      50.727   2.624  17.398  0.00  0.00    +0.000 A 
ATOM     13  C   UNL     1      49.867   3.660  17.699  0.00  0.00    +0.000 A 
ATOM     14  N   UNL     1      48.714   3.382  17.018  0.00  0.00    +0.000 N 
ATOM     15  C   UNL     1      48.895   2.191  16.373  0.00  0.00    +0.000 A 
ATOM     16  N   UNL     1      50.105   1.718  16.570  0.00  0.00    +0.000 NA
BRANCH  12  17
ATOM     17  C   UNL     1      52.140   2.428  17.829  0.00  0.00    +0.000 C 
BRANCH  17  18
ATOM     18  C   UNL     1      52.613   0.992  17.582  0.00  0.00    +0.000 C 
BRANCH  18  19
ATOM     19  N   UNL     1      51.753   0.008  18.246  0.00  0.00    +0.000 NA
ATOM     20  H   UNL     1      52.206  -0.906  18.206  0.00  0.00    +0.000 HD
ATOM     21  H   UNL     1      50.888  -0.089  17.715  0.00  0.00    +0.000 HD
ENDBRANCH  18  19
ENDBRANCH  17  18
ENDBRANCH  12  17
ENDBRANCH   1  14
TORSDOF 5
ENDMDL
MODEL 5
REMARK VINA RESULT:    -5.783      2.696      6.342
REMARK INTER + INTRA:          -7.943
REMARK INTER:                  -7.259
REMARK INTRA:                  -0.684
REMARK UNBOUND:                -0.639
REMARK  Name = 
REMARK  5 active torsions:
REMARK  status: ('A' for Active; 'I' for Inactive)
REMARK    1  A    between atoms: N_1  and  C_2
REMARK    2  A    between atoms: C_2  and  C_3
REMARK    3  A    between atoms: C_3  and  C_4
REMARK    4  A    between atoms: N_6  and  C_7
REMARK    5  A    between atoms: C_7  and  C_8
REMARK                            x       y       z     vdW  Elec       q    Type
REMARK                         _______ _______ _______ _____ _____    ______ ____
ROOT
ATOM      1  C   UNL     1      44.744   5.386  13.000  0.00  0.00    +0.000 C 
ENDROOT
BRANCH   1   2
ATOM      2  C   UNL     1      45.645   6.564  12.755  0.00  0.00    +0.000 A 
ATOM      3  C   UNL     1      45.163   7.864  12.821  0.00  0.00    +0.000 A 
ATOM      4  N   UNL     1      45.929   8.945  12.573  0.00  0.00    +0.000 NA
ATOM      5  C   UNL     1      47.216   8.711  12.266  0.00  0.00    +0.000 A 
ATOM      6  C   UNL     1      48.048   9.781  11.962  0.00  0.00    +0.000 A 
ATOM      7  C   UNL     1      49.397   9.589  11.661  0.00  0.00    +0.000 A 
ATOM      8  C   UNL     1      49.922   8.303  11.667  0.00  0.00    +0.000 A 
ATOM      9  C   UNL     1      49.088   7.218  11.951  0.00  0.00    +0.000 A 
ATOM     10  C   UNL     1      47.739   7.395  12.239  0.00  0.00    +0.000 A 
ATOM     11  N   UNL     1      46.953   6.323  12.486  0.00  0.00    +0.000 NA
ENDBRANCH   1   2
BRANCH   1  14
ATOM     12  C   UNL     1      44.451   3.324  10.060  0.00  0.00    +0.000 A 
ATOM     13  C   UNL     1      44.974   3.513  11.322  0.00  0.00    +0.000 A 
ATOM     14  N   UNL     1      44.419   4.681  11.771  0.00  0.00    +0.000 N 
ATOM     15  C   UNL     1      43.567   5.130  10.802  0.00  0.00    +0.000 A 
ATOM     16  N   UNL     1      43.577   4.341   9.752  0.00  0.00    +0.000 NA
BRANCH  12  17
ATOM     17  C   UNL     1      44.738   2.234   9.084  0.00  0.00    +0.000 C 
BRANCH  17  18
ATOM     18  C   UNL     1      45.805   2.651   8.067  0.00  0.00    +0.000 C 
BRANCH  18  19
ATOM     19  N   UNL     1      45.758   4.088   7.779  0.00  0.00    +0.000 NA
ATOM     20  H   UNL     1      46.184   4.256   6.867  0.00  0.00    +0.000 HD
ATOM     21  H   UNL     1      46.344   4.581   8.453  0.00  0.00    +0.000 HD
ENDBRANCH  18  19
ENDBRANCH  17  18
ENDBRANCH  12  17
ENDBRANCH   1  14
TORSDOF 5
ENDMDL
MODEL 6
REMARK VINA RESULT:    -5.710      2.165      3.039
REMARK INTER + INTRA:          -7.851
REMARK INTER:                  -7.159
REMARK INTRA:                  -0.692
REMARK UNBOUND:                -0.639
REMARK  Name = 
REMARK  5 active torsions:
REMARK  status: ('A' for Active; 'I' for Inactive)
REMARK    1  A    between atoms: N_1  and  C_2
REMARK    2  A    between atoms: C_2  and  C_3
REMARK    3  A    between atoms: C_3  and  C_4
REMARK    4  A    between atoms: N_6  and  C_7
REMARK    5  A    between atoms: C_7  and  C_8
REMARK                            x       y       z     vdW  Elec       q    Type
REMARK                         _______ _______ _______ _____ _____    ______ ____
ROOT
ATOM      1  C   UNL     1      44.555   6.048  12.729  0.00  0.00    +0.000 C 
ENDROOT
BRANCH   1   2
ATOM      2  C   UNL     1      44.614   5.011  11.644  0.00  0.00    +0.000 A 
ATOM      3  C   UNL     1      44.006   3.773  11.797  0.00  0.00    +0.000 A 
ATOM      4  N   UNL     1      44.067   2.803  10.863  0.00  0.00    +0.000 NA
ATOM      5  C   UNL     1      44.746   3.093   9.740  0.00  0.00    +0.000 A 
ATOM      6  C   UNL     1      44.878   2.123   8.755  0.00  0.00    +0.000 A 
ATOM      7  C   UNL     1      45.552   2.386   7.563  0.00  0.00    +0.000 A 
ATOM      8  C   UNL     1      46.101   3.644   7.351  0.00  0.00    +0.000 A 
ATOM      9  C   UNL     1      45.991   4.621   8.345  0.00  0.00    +0.000 A 
ATOM     10  C   UNL     1      45.334   4.366   9.544  0.00  0.00    +0.000 A 
ATOM     11  N   UNL     1      45.266   5.325  10.495  0.00  0.00    +0.000 NA
ENDBRANCH   1   2
BRANCH   1  14
ATOM     12  C   UNL     1      47.750   7.377  13.733  0.00  0.00    +0.000 A 
ATOM     13  C   UNL     1      46.465   7.603  13.285  0.00  0.00    +0.000 A 
ATOM     14  N   UNL     1      45.872   6.370  13.252  0.00  0.00    +0.000 N 
ATOM     15  C   UNL     1      46.785   5.463  13.711  0.00  0.00    +0.000 A 
ATOM     16  N   UNL     1      47.932   6.039  13.994  0.00  0.00    +0.000 NA
BRANCH  12  17
ATOM     17  C   UNL     1      48.858   8.356  13.922  0.00  0.00    +0.000 C 
BRANCH  17  18
ATOM     18  C   UNL     1      50.180   7.831  13.351  0.00  0.00    +0.000 C 
BRANCH  18  19
ATOM     19  N   UNL     1      49.992   7.149  12.067  0.00  0.00    +0.000 NA
ATOM     20  H   UNL     1      49.059   6.737  12.046  0.00  0.00    +0.000 HD
ATOM     21  H   UNL     1      50.642   6.365  12.009  0.00  0.00    +0.000 HD
ENDBRANCH  18  19
ENDBRANCH  17  18
ENDBRANCH  12  17
ENDBRANCH   1  14
TORSDOF 5
ENDMDL
MODEL 7
REMARK VINA RESULT:    -5.575      3.091      4.323
REMARK INTER + INTRA:          -7.680
REMARK INTER:                  -7.029
REMARK INTRA:                  -0.651
REMARK UNBOUND:                -0.639
REMARK  Name = 
REMARK  5 active torsions:
REMARK  status: ('A' for Active; 'I' for Inactive)
REMARK    1  A    between atoms: N_1  and  C_2
REMARK    2  A    between atoms: C_2  and  C_3
REMARK    3  A    between atoms: C_3  and  C_4
REMARK    4  A    between atoms: N_6  and  C_7
REMARK    5  A    between atoms: C_7  and  C_8
REMARK                            x       y       z     vdW  Elec       q    Type
REMARK                         _______ _______ _______ _____ _____    ______ ____
ROOT
ATOM      1  C   UNL     1      45.689   7.204  12.880  0.00  0.00    +0.000 C 
ENDROOT
BRANCH   1   2
ATOM      2  C   UNL     1      45.295   5.964  12.129  0.00  0.00    +0.000 A 
ATOM      3  C   UNL     1      44.652   4.911  12.765  0.00  0.00    +0.000 A 
ATOM      4  N   UNL     1      44.314   3.768  12.135  0.00  0.00    +0.000 NA
ATOM      5  C   UNL     1      44.618   3.690  10.828  0.00  0.00    +0.000 A 
ATOM      6  C   UNL     1      44.331   2.524  10.132  0.00  0.00    +0.000 A 
ATOM      7  C   UNL     1      44.606   2.405   8.769  0.00  0.00    +0.000 A 
ATOM      8  C   UNL     1      45.176   3.475   8.092  0.00  0.00    +0.000 A 
ATOM      9  C   UNL     1      45.488   4.646   8.788  0.00  0.00    +0.000 A 
ATOM     10  C   UNL     1      45.231   4.771  10.150  0.00  0.00    +0.000 A 
ATOM     11  N   UNL     1      45.568   5.908  10.800  0.00  0.00    +0.000 NA
ENDBRANCH   1   2
BRANCH   1  14
ATOM     12  C   UNL     1      49.052   8.286  12.171  0.00  0.00    +0.000 A 
ATOM     13  C   UNL     1      47.696   8.534  12.118  0.00  0.00    +0.000 A 
ATOM     14  N   UNL     1      47.112   7.482  12.769  0.00  0.00    +0.000 N 
ATOM     15  C   UNL     1      48.114   6.670  13.220  0.00  0.00    +0.000 A 
ATOM     16  N   UNL     1      49.294   7.121  12.860  0.00  0.00    +0.000 NA
BRANCH  12  17
ATOM     17  C   UNL     1      50.169   9.081  11.584  0.00  0.00    +0.000 C 
BRANCH  17  18
ATOM     18  C   UNL     1      51.507   8.343  11.696  0.00  0.00    +0.000 C 
BRANCH  18  19
ATOM     19  N   UNL     1      51.561   7.166  10.824  0.00  0.00    +0.000 NA
ATOM     20  H   UNL     1      50.993   6.424  11.235  0.00  0.00    +0.000 HD
ATOM     21  H   UNL     1      52.516   6.807  10.809  0.00  0.00    +0.000 HD
ENDBRANCH  18  19
ENDBRANCH  17  18
ENDBRANCH  12  17
ENDBRANCH   1  14
TORSDOF 5
ENDMDL
MODEL 8
REMARK VINA RESULT:    -5.520      2.841      6.487
REMARK INTER + INTRA:          -7.611
REMARK INTER:                  -7.181
REMARK INTRA:                  -0.431
REMARK UNBOUND:                -0.639
REMARK  Name = 
REMARK  5 active torsions:
REMARK  status: ('A' for Active; 'I' for Inactive)
REMARK    1  A    between atoms: N_1  and  C_2
REMARK    2  A    between atoms: C_2  and  C_3
REMARK    3  A    between atoms: C_3  and  C_4
REMARK    4  A    between atoms: N_6  and  C_7
REMARK    5  A    between atoms: C_7  and  C_8
REMARK                            x       y       z     vdW  Elec       q    Type
REMARK                         _______ _______ _______ _____ _____    ______ ____
ROOT
ATOM      1  C   UNL     1      44.929   5.389  13.120  0.00  0.00    +0.000 C 
ENDROOT
BRANCH   1   2
ATOM      2  C   UNL     1      46.035   6.373  12.864  0.00  0.00    +0.000 A 
ATOM      3  C   UNL     1      47.368   5.990  12.926  0.00  0.00    +0.000 A 
ATOM      4  N   UNL     1      48.389   6.849  12.739  0.00  0.00    +0.000 NA
ATOM      5  C   UNL     1      48.060   8.124  12.469  0.00  0.00    +0.000 A 
ATOM      6  C   UNL     1      49.066   9.066  12.303  0.00  0.00    +0.000 A 
ATOM      7  C   UNL     1      48.773  10.395  11.998  0.00  0.00    +0.000 A 
ATOM      8  C   UNL     1      47.449  10.787  11.852  0.00  0.00    +0.000 A 
ATOM      9  C   UNL     1      46.428   9.850  12.036  0.00  0.00    +0.000 A 
ATOM     10  C   UNL     1      46.707   8.525  12.355  0.00  0.00    +0.000 A 
ATOM     11  N   UNL     1      45.695   7.650  12.551  0.00  0.00    +0.000 NA
ENDBRANCH   1   2
BRANCH   1  14
ATOM     12  C   UNL     1      44.464   3.822   9.909  0.00  0.00    +0.000 A 
ATOM     13  C   UNL     1      45.127   4.750  10.685  0.00  0.00    +0.000 A 
ATOM     14  N   UNL     1      44.643   4.572  11.953  0.00  0.00    +0.000 N 
ATOM     15  C   UNL     1      43.753   3.536  11.911  0.00  0.00    +0.000 A 
ATOM     16  N   UNL     1      43.612   3.074  10.688  0.00  0.00    +0.000 NA
BRANCH  12  17
ATOM     17  C   UNL     1      44.563   3.593   8.439  0.00  0.00    +0.000 C 
BRANCH  17  18
ATOM     18  C   UNL     1      45.695   2.621   8.093  0.00  0.00    +0.000 C 
BRANCH  18  19
ATOM     19  N   UNL     1      45.579   1.357   8.826  0.00  0.00    +0.000 NA
ATOM     20  H   UNL     1      46.375   0.764   8.590  0.00  0.00    +0.000 HD
ATOM     21  H   UNL     1      44.753   0.857   8.496  0.00  0.00    +0.000 HD
ENDBRANCH  18  19
ENDBRANCH  17  18
ENDBRANCH  12  17
ENDBRANCH   1  14
TORSDOF 5
ENDMDL
MODEL 9
REMARK VINA RESULT:    -5.415      3.380      7.552
REMARK INTER + INTRA:          -7.478
REMARK INTER:                  -7.218
REMARK INTRA:                  -0.260
REMARK UNBOUND:                -0.639
REMARK  Name = 
REMARK  5 active torsions:
REMARK  status: ('A' for Active; 'I' for Inactive)
REMARK    1  A    between atoms: N_1  and  C_2
REMARK    2  A    between atoms: C_2  and  C_3
REMARK    3  A    between atoms: C_3  and  C_4
REMARK    4  A    between atoms: N_6  and  C_7
REMARK    5  A    between atoms: C_7  and  C_8
REMARK                            x       y       z     vdW  Elec       q    Type
REMARK                         _______ _______ _______ _____ _____    ______ ____
ROOT
ATOM      1  C   UNL     1      47.682   6.485  12.680  0.00  0.00    +0.000 C 
ENDROOT
BRANCH   1   2
ATOM      2  C   UNL     1      47.965   6.181  14.124  0.00  0.00    +0.000 A 
ATOM      3  C   UNL     1      48.632   7.091  14.933  0.00  0.00    +0.000 A 
ATOM      4  N   UNL     1      48.937   6.842  16.223  0.00  0.00    +0.000 NA
ATOM      5  C   UNL     1      48.548   5.652  16.713  0.00  0.00    +0.000 A 
ATOM      6  C   UNL     1      48.866   5.320  18.023  0.00  0.00    +0.000 A 
ATOM      7  C   UNL     1      48.462   4.107  18.583  0.00  0.00    +0.000 A 
ATOM      8  C   UNL     1      47.725   3.214  17.818  0.00  0.00    +0.000 A 
ATOM      9  C   UNL     1      47.418   3.530  16.491  0.00  0.00    +0.000 A 
ATOM     10  C   UNL     1      47.826   4.730  15.918  0.00  0.00    +0.000 A 
ATOM     11  N   UNL     1      47.534   4.995  14.625  0.00  0.00    +0.000 NA
ENDBRANCH   1   2
BRANCH   1  14
ATOM     12  C   UNL     1      44.417   5.449  11.561  0.00  0.00    +0.000 A 
ATOM     13  C   UNL     1      45.721   5.117  11.868  0.00  0.00    +0.000 A 
ATOM     14  N   UNL     1      46.285   6.271  12.340  0.00  0.00    +0.000 N 
ATOM     15  C   UNL     1      45.314   7.232  12.342  0.00  0.00    +0.000 A 
ATOM     16  N   UNL     1      44.181   6.770  11.862  0.00  0.00    +0.000 NA
BRANCH  12  17
ATOM     17  C   UNL     1      43.351   4.591  10.969  0.00  0.00    +0.000 C 
BRANCH  17  18
ATOM     18  C   UNL     1      43.817   3.141  10.807  0.00  0.00    +0.000 C 
BRANCH  18  19
ATOM     19  N   UNL     1      43.036   2.217  11.635  0.00  0.00    +0.000 NA
ATOM     20  H   UNL     1      42.122   2.630  11.819  0.00  0.00    +0.000 HD
ATOM     21  H   UNL     1      43.487   2.125  12.546  0.00  0.00    +0.000 HD
ENDBRANCH  18  19
ENDBRANCH  17  18
ENDBRANCH  12  17
ENDBRANCH   1  14
TORSDOF 5
ENDMDL
