MODEL 1
REMARK VINA RESULT:    -7.959      0.000      0.000
REMARK INTER + INTRA:         -11.704
REMARK INTER:                 -10.751
REMARK INTRA:                  -0.953
REMARK UNBOUND:                -0.953
REMARK  Name = 
REMARK  7 active torsions:
REMARK  status: ('A' for Active; 'I' for Inactive)
REMARK    1  A    between atoms: C_1  and  C_2
REMARK    2  A    between atoms: C_2  and  C_3
REMARK    3  A    between atoms: C_7  and  C_8
REMARK    4  A    between atoms: C_8  and  C_9
REMARK    5  A    between atoms: C_9  and  N_10
REMARK    6  A    between atoms: N_10  and  C_11
REMARK    7  A    between atoms: C_14  and  C_15
REMARK                            x       y       z     vdW  Elec       q    Type
REMARK                         _______ _______ _______ _____ _____    ______ ____
ROOT
ATOM      1  C   UNL     1      43.232   4.482  11.120  0.00  0.00    +0.000 C 
ENDROOT
BRANCH   1   2
ATOM      2  N   UNL     1      43.765   4.942   9.825  0.00  0.00    +0.000 N 
ATOM      3  H   UNL     1      44.226   5.849   9.894  0.00  0.00    +0.000 HD
BRANCH   2   4
ATOM      4  C   UNL     1      44.579   3.999   9.166  0.00  0.00    +0.000 A 
ATOM      5  C   UNL     1      45.563   4.375   8.244  0.00  0.00    +0.000 A 
ATOM      6  C   UNL     1      46.374   3.426   7.632  0.00  0.00    +0.000 A 
ATOM      7  C   UNL     1      46.210   2.100   7.993  0.00  0.00    +0.000 A 
ATOM      8  N   UNL     1      45.302   1.670   8.912  0.00  0.00    +0.000 NA
ATOM      9  C   UNL     1      44.527   2.636   9.479  0.00  0.00    +0.000 A 
BRANCH   7  10
ATOM     10  C   UNL     1      47.090   1.060   7.376  0.00  0.00    +0.000 C 
ATOM     11  N   UNL     1      46.766  -0.231   7.654  0.00  0.00    +0.000 N 
ATOM     12  O   UNL     1      48.056   1.349   6.664  0.00  0.00    +0.000 OA
ATOM     13  H   UNL     1      45.980  -0.429   8.267  0.00  0.00    +0.000 HD
ATOM     14  H   UNL     1      47.345  -0.979   7.301  0.00  0.00    +0.000 HD
ENDBRANCH   7  10
ENDBRANCH   2   4
ENDBRANCH   1   2
BRANCH   1  15
ATOM     15  C   UNL     1      43.597   5.427  12.268  0.00  0.00    +0.000 C 
BRANCH  15  20
ATOM     16  C   UNL     1      47.240   6.356  12.982  0.00  0.00    +0.000 A 
ATOM     17  C   UNL     1      47.664   5.209  13.682  0.00  0.00    +0.000 A 
ATOM     18  C   UNL     1      46.817   4.116  13.866  0.00  0.00    +0.000 A 
ATOM     19  C   UNL     1      45.511   4.156  13.383  0.00  0.00    +0.000 A 
ATOM     20  C   UNL     1      45.045   5.288  12.702  0.00  0.00    +0.000 A 
ATOM     21  C   UNL     1      45.934   6.356  12.471  0.00  0.00    +0.000 A 
BRANCH  16  23
ATOM     22  C   UNL     1      48.584   7.773  11.443  0.00  0.00    +0.000 C 
ATOM     23  C   UNL     1      48.173   7.576  12.914  0.00  0.00    +0.000 C 
ATOM     24  C   UNL     1      47.507   8.827  13.501  0.00  0.00    +0.000 C 
ATOM     25  C   UNL     1      48.016   8.909  14.933  0.00  0.00    +0.000 C 
ATOM     26  O   UNL     1      49.049   7.931  15.093  0.00  0.00    +0.000 OA
ATOM     27  C   UNL     1      49.441   7.517  13.780  0.00  0.00    +0.000 C 
ENDBRANCH  16  23
ENDBRANCH  15  20
ENDBRANCH   1  15
TORSDOF 6
ENDMDL
MODEL 2
REMARK VINA RESULT:    -7.745      2.335      3.458
REMARK INTER + INTRA:         -11.415
REMARK INTER:                 -10.682
REMARK INTRA:                  -0.733
REMARK UNBOUND:                -0.953
REMARK  Name = 
REMARK  7 active torsions:
REMARK  status: ('A' for Active; 'I' for Inactive)
REMARK    1  A    between atoms: C_1  and  C_2
REMARK    2  A    between atoms: C_2  and  C_3
REMARK    3  A    between atoms: C_7  and  C_8
REMARK    4  A    between atoms: C_8  and  C_9
REMARK    5  A    between atoms: C_9  and  N_10
REMARK    6  A    between atoms: N_10  and  C_11
REMARK    7  A    between atoms: C_14  and  C_15
REMARK                            x       y       z     vdW  Elec       q    Type
REMARK                         _______ _______ _______ _____ _____    ______ ____
ROOT
ATOM      1  C   UNL     1      44.751   5.163  11.607  0.00  0.00    +0.000 C 
ENDROOT
BRANCH   1   2
ATOM      2  N   UNL     1      43.994   4.438  10.570  0.00  0.00    +0.000 N 
ATOM      3  H   UNL     1      43.273   5.015  10.139  0.00  0.00    +0.000 HD
BRANCH   2   4
ATOM      4  C   UNL     1      44.800   3.808   9.601  0.00  0.00    +0.000 A 
ATOM      5  C   UNL     1      45.607   4.533   8.714  0.00  0.00    +0.000 A 
ATOM      6  C   UNL     1      46.417   3.886   7.789  0.00  0.00    +0.000 A 
ATOM      7  C   UNL     1      46.437   2.503   7.796  0.00  0.00    +0.000 A 
ATOM      8  N   UNL     1      45.710   1.737   8.656  0.00  0.00    +0.000 NA
ATOM      9  C   UNL     1      44.928   2.416   9.540  0.00  0.00    +0.000 A 
BRANCH   7  10
ATOM     10  C   UNL     1      47.323   1.779   6.833  0.00  0.00    +0.000 C 
ATOM     11  N   UNL     1      48.322   2.517   6.276  0.00  0.00    +0.000 N 
ATOM     12  O   UNL     1      47.161   0.588   6.552  0.00  0.00    +0.000 OA
ATOM     13  H   UNL     1      48.407   3.501   6.511  0.00  0.00    +0.000 HD
ATOM     14  H   UNL     1      48.930   2.096   5.588  0.00  0.00    +0.000 HD
ENDBRANCH   7  10
ENDBRANCH   2   4
ENDBRANCH   1   2
BRANCH   1  15
ATOM     15  C   UNL     1      45.580   4.222  12.487  0.00  0.00    +0.000 C 
BRANCH  15  20
ATOM     16  C   UNL     1      47.639   5.029  15.609  0.00  0.00    +0.000 A 
ATOM     17  C   UNL     1      48.375   6.139  15.150  0.00  0.00    +0.000 A 
ATOM     18  C   UNL     1      48.169   6.672  13.878  0.00  0.00    +0.000 A 
ATOM     19  C   UNL     1      47.243   6.086  13.017  0.00  0.00    +0.000 A 
ATOM     20  C   UNL     1      46.507   4.967  13.430  0.00  0.00    +0.000 A 
ATOM     21  C   UNL     1      46.684   4.483  14.740  0.00  0.00    +0.000 A 
BRANCH  16  23
ATOM     22  C   UNL     1      47.188   5.159  18.051  0.00  0.00    +0.000 C 
ATOM     23  C   UNL     1      47.992   4.411  16.972  0.00  0.00    +0.000 C 
ATOM     24  C   UNL     1      47.722   2.902  16.991  0.00  0.00    +0.000 C 
ATOM     25  C   UNL     1      49.070   2.257  16.700  0.00  0.00    +0.000 C 
ATOM     26  O   UNL     1      50.068   3.282  16.730  0.00  0.00    +0.000 OA
ATOM     27  C   UNL     1      49.478   4.422  17.364  0.00  0.00    +0.000 C 
ENDBRANCH  16  23
ENDBRANCH  15  20
ENDBRANCH   1  15
TORSDOF 6
ENDMDL
MODEL 3
REMARK VINA RESULT:    -7.521      1.500      2.452
REMARK INTER + INTRA:         -11.111
REMARK INTER:                 -10.407
REMARK INTRA:                  -0.704
REMARK UNBOUND:                -0.953
REMARK  Name = 
REMARK  7 active torsions:
REMARK  status: ('A' for Active; 'I' for Inactive)
REMARK    1  A    between atoms: C_1  and  C_2
REMARK    2  A    between atoms: C_2  and  C_3
REMARK    3  A    between atoms: C_7  and  C_8
REMARK    4  A    between atoms: C_8  and  C_9
REMARK    5  A    between atoms: C_9  and  N_10
REMARK    6  A    between atoms: N_10  and  C_11
REMARK    7  A    between atoms: C_14  and  C_15
REMARK                            x       y       z     vdW  Elec       q    Type
REMARK                         _______ _______ _______ _____ _____    ______ ____
ROOT
ATOM      1  C   UNL     1      44.508   5.616  10.987  0.00  0.00    +0.000 C 
ENDROOT
BRANCH   1   2
ATOM      2  N   UNL     1      43.782   4.837   9.968  0.00  0.00    +0.000 N 
ATOM      3  H   UNL     1      43.251   5.430   9.329  0.00  0.00    +0.000 HD
BRANCH   2   4
ATOM      4  C   UNL     1      44.583   3.913   9.268  0.00  0.00    +0.000 A 
ATOM      5  C   UNL     1      45.569   4.316   8.359  0.00  0.00    +0.000 A 
ATOM      6  C   UNL     1      46.368   3.384   7.707  0.00  0.00    +0.000 A 
ATOM      7  C   UNL     1      46.190   2.046   8.013  0.00  0.00    +0.000 A 
ATOM      8  N   UNL     1      45.279   1.589   8.916  0.00  0.00    +0.000 NA
ATOM      9  C   UNL     1      44.517   2.539   9.525  0.00  0.00    +0.000 A 
BRANCH   7  10
ATOM     10  C   UNL     1      47.057   1.023   7.351  0.00  0.00    +0.000 C 
ATOM     11  N   UNL     1      46.780  -0.274   7.654  0.00  0.00    +0.000 N 
ATOM     12  O   UNL     1      47.972   1.329   6.583  0.00  0.00    +0.000 OA
ATOM     13  H   UNL     1      46.036  -0.486   8.313  0.00  0.00    +0.000 HD
ATOM     14  H   UNL     1      47.355  -1.011   7.271  0.00  0.00    +0.000 HD
ENDBRANCH   7  10
ENDBRANCH   2   4
ENDBRANCH   1   2
BRANCH   1  15
ATOM     15  C   UNL     1      43.836   6.962  11.277  0.00  0.00    +0.000 C 
BRANCH  15  20
ATOM     16  C   UNL     1      47.128   8.638  12.272  0.00  0.00    +0.000 A 
ATOM     17  C   UNL     1      46.809   9.990  12.036  0.00  0.00    +0.000 A 
ATOM     18  C   UNL     1      45.532  10.374  11.629  0.00  0.00    +0.000 A 
ATOM     19  C   UNL     1      44.548   9.411  11.414  0.00  0.00    +0.000 A 
ATOM     20  C   UNL     1      44.834   8.054  11.616  0.00  0.00    +0.000 A 
ATOM     21  C   UNL     1      46.110   7.692  12.088  0.00  0.00    +0.000 A 
BRANCH  16  23
ATOM     22  C   UNL     1      49.500   9.053  11.653  0.00  0.00    +0.000 C 
ATOM     23  C   UNL     1      48.582   8.261  12.602  0.00  0.00    +0.000 C 
ATOM     24  C   UNL     1      48.910   8.524  14.077  0.00  0.00    +0.000 C 
ATOM     25  C   UNL     1      48.733   7.178  14.765  0.00  0.00    +0.000 C 
ATOM     26  O   UNL     1      48.540   6.184  13.753  0.00  0.00    +0.000 OA
ATOM     27  C   UNL     1      48.940   6.770  12.510  0.00  0.00    +0.000 C 
ENDBRANCH  16  23
ENDBRANCH  15  20
ENDBRANCH   1  15
TORSDOF 6
ENDMDL
MODEL 4
REMARK VINA RESULT:    -7.298      1.047      1.542
REMARK INTER + INTRA:         -10.810
REMARK INTER:                 -10.161
REMARK INTRA:                  -0.649
REMARK UNBOUND:                -0.953
REMARK  Name = 
REMARK  7 active torsions:
REMARK  status: ('A' for Active; 'I' for Inactive)
REMARK    1  A    between atoms: C_1  and  C_2
REMARK    2  A    between atoms: C_2  and  C_3
REMARK    3  A    between atoms: C_7  and  C_8
REMARK    4  A    between atoms: C_8  and  C_9
REMARK    5  A    between atoms: C_9  and  N_10
REMARK    6  A    between atoms: N_10  and  C_11
REMARK    7  A    between atoms: C_14  and  C_15
REMARK                            x       y       z     vdW  Elec       q    Type
REMARK                         _______ _______ _______ _____ _____    ______ ____
ROOT
ATOM      1  C   UNL     1      44.178   5.369  11.061  0.00  0.00    +0.000 C 
ENDROOT
BRANCH   1   2
ATOM      2  N   UNL     1      43.811   4.965   9.691  0.00  0.00    +0.000 N 
ATOM      3  H   UNL     1      43.719   5.762   9.062  0.00  0.00    +0.000 HD
BRANCH   2   4
ATOM      4  C   UNL     1      44.639   3.966   9.142  0.00  0.00    +0.000 A 
ATOM      5  C   UNL     1      44.454   2.606   9.421  0.00  0.00    +0.000 A 
ATOM      6  C   UNL     1      45.265   1.638   8.840  0.00  0.00    +0.000 A 
ATOM      7  C   UNL     1      46.234   2.052   7.944  0.00  0.00    +0.000 A 
ATOM      8  N   UNL     1      46.440   3.353   7.597  0.00  0.00    +0.000 NA
ATOM      9  C   UNL     1      45.625   4.264   8.196  0.00  0.00    +0.000 A 
BRANCH   7  10
ATOM     10  C   UNL     1      47.099   1.031   7.279  0.00  0.00    +0.000 C 
ATOM     11  N   UNL     1      46.838  -0.266   7.596  0.00  0.00    +0.000 N 
ATOM     12  O   UNL     1      48.001   1.338   6.494  0.00  0.00    +0.000 OA
ATOM     13  H   UNL     1      46.106  -0.479   8.267  0.00  0.00    +0.000 HD
ATOM     14  H   UNL     1      47.414  -1.001   7.211  0.00  0.00    +0.000 HD
ENDBRANCH   7  10
ENDBRANCH   2   4
ENDBRANCH   1   2
BRANCH   1  15
ATOM     15  C   UNL     1      45.453   6.217  11.095  0.00  0.00    +0.000 C 
BRANCH  15  20
ATOM     16  C   UNL     1      48.086   6.700  13.828  0.00  0.00    +0.000 A 
ATOM     17  C   UNL     1      47.793   5.605  14.664  0.00  0.00    +0.000 A 
ATOM     18  C   UNL     1      46.807   4.677  14.326  0.00  0.00    +0.000 A 
ATOM     19  C   UNL     1      46.067   4.840  13.157  0.00  0.00    +0.000 A 
ATOM     20  C   UNL     1      46.315   5.930  12.312  0.00  0.00    +0.000 A 
ATOM     21  C   UNL     1      47.355   6.820  12.637  0.00  0.00    +0.000 A 
BRANCH  16  23
ATOM     22  C   UNL     1      50.130   7.963  13.186  0.00  0.00    +0.000 C 
ATOM     23  C   UNL     1      49.097   7.756  14.309  0.00  0.00    +0.000 C 
ATOM     24  C   UNL     1      48.399   9.063  14.702  0.00  0.00    +0.000 C 
ATOM     25  C   UNL     1      48.236   8.984  16.214  0.00  0.00    +0.000 C 
ATOM     26  O   UNL     1      48.968   7.845  16.679  0.00  0.00    +0.000 OA
ATOM     27  C   UNL     1      49.841   7.445  15.617  0.00  0.00    +0.000 C 
ENDBRANCH  16  23
ENDBRANCH  15  20
ENDBRANCH   1  15
TORSDOF 6
ENDMDL
MODEL 5
REMARK VINA RESULT:    -7.294      1.524      2.123
REMARK INTER + INTRA:         -10.805
REMARK INTER:                 -10.022
REMARK INTRA:                  -0.783
REMARK UNBOUND:                -0.953
REMARK  Name = 
REMARK  7 active torsions:
REMARK  status: ('A' for Active; 'I' for Inactive)
REMARK    1  A    between atoms: C_1  and  C_2
REMARK    2  A    between atoms: C_2  and  C_3
REMARK    3  A    between atoms: C_7  and  C_8
REMARK    4  A    between atoms: C_8  and  C_9
REMARK    5  A    between atoms: C_9  and  N_10
REMARK    6  A    between atoms: N_10  and  C_11
REMARK    7  A    between atoms: C_14  and  C_15
REMARK                            x       y       z     vdW  Elec       q    Type
REMARK                         _______ _______ _______ _____ _____    ______ ____
ROOT
ATOM      1  C   UNL     1      43.703   4.587  11.013  0.00  0.00    +0.000 C 
ENDROOT
BRANCH   1   2
ATOM      2  N   UNL     1      43.738   3.211  10.484  0.00  0.00    +0.000 N 
ATOM      3  H   UNL     1      42.809   2.860  10.251  0.00  0.00    +0.000 HD
BRANCH   2   4
ATOM      4  C   UNL     1      44.643   3.023   9.421  0.00  0.00    +0.000 A 
ATOM      5  C   UNL     1      45.068   4.079   8.606  0.00  0.00    +0.000 A 
ATOM      6  C   UNL     1      45.987   3.871   7.584  0.00  0.00    +0.000 A 
ATOM      7  C   UNL     1      46.504   2.598   7.421  0.00  0.00    +0.000 A 
ATOM      8  N   UNL     1      46.165   1.536   8.204  0.00  0.00    +0.000 NA
ATOM      9  C   UNL     1      45.257   1.788   9.187  0.00  0.00    +0.000 A 
BRANCH   7  10
ATOM     10  C   UNL     1      47.519   2.352   6.351  0.00  0.00    +0.000 C 
ATOM     11  N   UNL     1      47.454   3.176   5.271  0.00  0.00    +0.000 N 
ATOM     12  O   UNL     1      48.361   1.453   6.433  0.00  0.00    +0.000 OA
ATOM     13  H   UNL     1      46.729   3.886   5.227  0.00  0.00    +0.000 HD
ATOM     14  H   UNL     1      48.086   3.035   4.496  0.00  0.00    +0.000 HD
ENDBRANCH   7  10
ENDBRANCH   2   4
ENDBRANCH   1   2
BRANCH   1  15
ATOM     15  C   UNL     1      44.812   4.844  12.038  0.00  0.00    +0.000 C 
BRANCH  15  20
ATOM     16  C   UNL     1      47.023   7.931  12.507  0.00  0.00    +0.000 A 
ATOM     17  C   UNL     1      46.172   8.935  12.005  0.00  0.00    +0.000 A 
ATOM     18  C   UNL     1      44.875   8.642  11.583  0.00  0.00    +0.000 A 
ATOM     19  C   UNL     1      44.407   7.331  11.621  0.00  0.00    +0.000 A 
ATOM     20  C   UNL     1      45.233   6.301  12.093  0.00  0.00    +0.000 A 
ATOM     21  C   UNL     1      46.516   6.625  12.574  0.00  0.00    +0.000 A 
BRANCH  16  23
ATOM     22  C   UNL     1      49.024   9.171  11.705  0.00  0.00    +0.000 C 
ATOM     23  C   UNL     1      48.481   8.288  12.844  0.00  0.00    +0.000 C 
ATOM     24  C   UNL     1      48.589   8.976  14.210  0.00  0.00    +0.000 C 
ATOM     25  C   UNL     1      48.966   7.865  15.181  0.00  0.00    +0.000 C 
ATOM     26  O   UNL     1      49.265   6.692  14.417  0.00  0.00    +0.000 OA
ATOM     27  C   UNL     1      49.442   7.109  13.060  0.00  0.00    +0.000 C 
ENDBRANCH  16  23
ENDBRANCH  15  20
ENDBRANCH   1  15
TORSDOF 6
ENDMDL
MODEL 6
REMARK VINA RESULT:    -6.644      4.242      7.244
REMARK INTER + INTRA:          -9.927
REMARK INTER:                  -8.603
REMARK INTRA:                  -1.325
REMARK UNBOUND:                -0.953
REMARK  Name = 
REMARK  7 active torsions:
REMARK  status: ('A' for Active; 'I' for Inactive)
REMARK    1  A    between atoms: C_1  and  C_2
REMARK    2  A    between atoms: C_2  and  C_3
REMARK    3  A    between atoms: C_7  and  C_8
REMARK    4  A    between atoms: C_8  and  C_9
REMARK    5  A    between atoms: C_9  and  N_10
REMARK    6  A    between atoms: N_10  and  C_11
REMARK    7  A    between atoms: C_14  and  C_15
REMARK                            x       y       z     vdW  Elec       q    Type
REMARK                         _______ _______ _______ _____ _____    ______ ____
ROOT
ATOM      1  C   UNL     1      49.593   7.225  12.883  0.00  0.00    +0.000 C 
ENDROOT
BRANCH   1   2
ATOM      2  N   UNL     1      49.209   7.675  14.234  0.00  0.00    +0.000 N 
ATOM      3  H   UNL     1      48.586   8.482  14.213  0.00  0.00    +0.000 HD
BRANCH   2   4
ATOM      4  C   UNL     1      48.704   6.654  15.062  0.00  0.00    +0.000 A 
ATOM      5  C   UNL     1      47.794   5.696  14.597  0.00  0.00    +0.000 A 
ATOM      6  C   UNL     1      47.336   4.680  15.427  0.00  0.00    +0.000 A 
ATOM      7  C   UNL     1      47.837   4.614  16.714  0.00  0.00    +0.000 A 
ATOM      8  N   UNL     1      48.753   5.487  17.217  0.00  0.00    +0.000 NA
ATOM      9  C   UNL     1      49.168   6.469  16.369  0.00  0.00    +0.000 A 
BRANCH   7  10
ATOM     10  C   UNL     1      47.387   3.512  17.620  0.00  0.00    +0.000 C 
ATOM     11  N   UNL     1      48.167   3.286  18.711  0.00  0.00    +0.000 N 
ATOM     12  O   UNL     1      46.376   2.842  17.393  0.00  0.00    +0.000 OA
ATOM     13  H   UNL     1      49.007   3.840  18.849  0.00  0.00    +0.000 HD
ATOM     14  H   UNL     1      47.940   2.529  19.340  0.00  0.00    +0.000 HD
ENDBRANCH   7  10
ENDBRANCH   2   4
ENDBRANCH   1   2
BRANCH   1  15
ATOM     15  C   UNL     1      48.954   8.078  11.783  0.00  0.00    +0.000 C 
BRANCH  15  20
ATOM     16  C   UNL     1      45.481   6.539  11.332  0.00  0.00    +0.000 A 
ATOM     17  C   UNL     1      44.676   7.557  11.880  0.00  0.00    +0.000 A 
ATOM     18  C   UNL     1      45.228   8.757  12.328  0.00  0.00    +0.000 A 
ATOM     19  C   UNL     1      46.606   8.956  12.270  0.00  0.00    +0.000 A 
ATOM     20  C   UNL     1      47.441   7.957  11.752  0.00  0.00    +0.000 A 
ATOM     21  C   UNL     1      46.860   6.779  11.247  0.00  0.00    +0.000 A 
BRANCH  16  23
ATOM     22  C   UNL     1      45.331   4.797   9.563  0.00  0.00    +0.000 C 
ATOM     23  C   UNL     1      44.834   5.192  10.966  0.00  0.00    +0.000 C 
ATOM     24  C   UNL     1      45.145   4.116  12.014  0.00  0.00    +0.000 C 
ATOM     25  C   UNL     1      43.929   4.096  12.930  0.00  0.00    +0.000 C 
ATOM     26  O   UNL     1      42.917   4.919  12.342  0.00  0.00    +0.000 OA
ATOM     27  C   UNL     1      43.299   5.143  10.981  0.00  0.00    +0.000 C 
ENDBRANCH  16  23
ENDBRANCH  15  20
ENDBRANCH   1  15
TORSDOF 6
ENDMDL
MODEL 7
REMARK VINA RESULT:    -6.265      3.830      6.251
REMARK INTER + INTRA:          -9.415
REMARK INTER:                  -8.075
REMARK INTRA:                  -1.340
REMARK UNBOUND:                -0.953
REMARK  Name = 
REMARK  7 active torsions:
REMARK  status: ('A' for Active; 'I' for Inactive)
REMARK    1  A    between atoms: C_1  and  C_2
REMARK    2  A    between atoms: C_2  and  C_3
REMARK    3  A    between atoms: C_7  and  C_8
REMARK    4  A    between atoms: C_8  and  C_9
REMARK    5  A    between atoms: C_9  and  N_10
REMARK    6  A    between atoms: N_10  and  C_11
REMARK    7  A    between atoms: C_14  and  C_15
REMARK                            x       y       z     vdW  Elec       q    Type
REMARK                         _______ _______ _______ _____ _____    ______ ____
ROOT
ATOM      1  C   UNL     1      48.868   8.070  13.241  0.00  0.00    +0.000 C 
ENDROOT
BRANCH   1   2
ATOM      2  N   UNL     1      48.822   6.656  12.827  0.00  0.00    +0.000 N 
ATOM      3  H   UNL     1      49.427   6.064  13.397  0.00  0.00    +0.000 HD
BRANCH   2   4
ATOM      4  C   UNL     1      47.521   6.123  12.730  0.00  0.00    +0.000 A 
ATOM      5  C   UNL     1      47.057   5.122  13.593  0.00  0.00    +0.000 A 
ATOM      6  C   UNL     1      45.758   4.638  13.496  0.00  0.00    +0.000 A 
ATOM      7  C   UNL     1      44.921   5.202  12.551  0.00  0.00    +0.000 A 
ATOM      8  N   UNL     1      45.295   6.205  11.709  0.00  0.00    +0.000 NA
ATOM      9  C   UNL     1      46.578   6.643  11.837  0.00  0.00    +0.000 A 
BRANCH   7  10
ATOM     10  C   UNL     1      43.508   4.724  12.445  0.00  0.00    +0.000 C 
ATOM     11  N   UNL     1      42.578   5.474  13.095  0.00  0.00    +0.000 N 
ATOM     12  O   UNL     1      43.199   3.709  11.815  0.00  0.00    +0.000 OA
ATOM     13  H   UNL     1      42.874   6.287  13.626  0.00  0.00    +0.000 HD
ATOM     14  H   UNL     1      41.611   5.181  13.095  0.00  0.00    +0.000 HD
ENDBRANCH   7  10
ENDBRANCH   2   4
ENDBRANCH   1   2
BRANCH   1  15
ATOM     15  C   UNL     1      48.612   8.245  14.742  0.00  0.00    +0.000 C 
BRANCH  15  20
ATOM     16  C   UNL     1      49.807   5.481  17.102  0.00  0.00    +0.000 A 
ATOM     17  C   UNL     1      51.202   5.655  17.016  0.00  0.00    +0.000 A 
ATOM     18  C   UNL     1      51.759   6.690  16.264  0.00  0.00    +0.000 A 
ATOM     19  C   UNL     1      50.935   7.558  15.552  0.00  0.00    +0.000 A 
ATOM     20  C   UNL     1      49.543   7.403  15.596  0.00  0.00    +0.000 A 
ATOM     21  C   UNL     1      48.997   6.392  16.410  0.00  0.00    +0.000 A 
BRANCH  16  23
ATOM     22  C   UNL     1      49.340   4.538  19.356  0.00  0.00    +0.000 C 
ATOM     23  C   UNL     1      49.253   4.253  17.845  0.00  0.00    +0.000 C 
ATOM     24  C   UNL     1      47.823   3.926  17.400  0.00  0.00    +0.000 C 
ATOM     25  C   UNL     1      47.977   2.832  16.352  0.00  0.00    +0.000 C 
ATOM     26  O   UNL     1      49.345   2.410  16.351  0.00  0.00    +0.000 OA
ATOM     27  C   UNL     1      49.939   2.910  17.553  0.00  0.00    +0.000 C 
ENDBRANCH  16  23
ENDBRANCH  15  20
ENDBRANCH   1  15
TORSDOF 6
ENDMDL
MODEL 8
REMARK VINA RESULT:    -5.933      3.452      5.650
REMARK INTER + INTRA:          -8.967
REMARK INTER:                  -7.814
REMARK INTRA:                  -1.154
REMARK UNBOUND:                -0.953
REMARK  Name = 
REMARK  7 active torsions:
REMARK  status: ('A' for Active; 'I' for Inactive)
REMARK    1  A    between atoms: C_1  and  C_2
REMARK    2  A    between atoms: C_2  and  C_3
REMARK    3  A    between atoms: C_7  and  C_8
REMARK    4  A    between atoms: C_8  and  C_9
REMARK    5  A    between atoms: C_9  and  N_10
REMARK    6  A    between atoms: N_10  and  C_11
REMARK    7  A    between atoms: C_14  and  C_15
REMARK                            x       y       z     vdW  Elec       q    Type
REMARK                         _______ _______ _______ _____ _____    ______ ____
ROOT
ATOM      1  C   UNL     1      49.025   7.053  12.906  0.00  0.00    +0.000 C 
ENDROOT
BRANCH   1   2
ATOM      2  N   UNL     1      47.607   7.398  12.697  0.00  0.00    +0.000 N 
ATOM      3  H   UNL     1      47.485   8.148  12.017  0.00  0.00    +0.000 HD
BRANCH   2   4
ATOM      4  C   UNL     1      46.781   6.295  12.405  0.00  0.00    +0.000 A 
ATOM      5  C   UNL     1      46.573   5.253  13.318  0.00  0.00    +0.000 A 
ATOM      6  C   UNL     1      45.727   4.193  13.016  0.00  0.00    +0.000 A 
ATOM      7  C   UNL     1      45.061   4.215  11.804  0.00  0.00    +0.000 A 
ATOM      8  N   UNL     1      45.185   5.216  10.888  0.00  0.00    +0.000 NA
ATOM      9  C   UNL     1      46.029   6.230  11.226  0.00  0.00    +0.000 A 
BRANCH   7  10
ATOM     10  C   UNL     1      44.119   3.104  11.465  0.00  0.00    +0.000 C 
ATOM     11  N   UNL     1      43.689   2.352  12.513  0.00  0.00    +0.000 N 
ATOM     12  O   UNL     1      43.756   2.874  10.308  0.00  0.00    +0.000 OA
ATOM     13  H   UNL     1      44.031   2.554  13.448  0.00  0.00    +0.000 HD
ATOM     14  H   UNL     1      43.083   1.561  12.345  0.00  0.00    +0.000 HD
ENDBRANCH   7  10
ENDBRANCH   2   4
ENDBRANCH   1   2
BRANCH   1  15
ATOM     15  C   UNL     1      49.684   7.925  13.979  0.00  0.00    +0.000 C 
BRANCH  15  20
ATOM     16  C   UNL     1      48.647   6.048  17.147  0.00  0.00    +0.000 A 
ATOM     17  C   UNL     1      48.323   7.128  17.991  0.00  0.00    +0.000 A 
ATOM     18  C   UNL     1      48.367   8.446  17.534  0.00  0.00    +0.000 A 
ATOM     19  C   UNL     1      48.770   8.718  16.228  0.00  0.00    +0.000 A 
ATOM     20  C   UNL     1      49.122   7.671  15.366  0.00  0.00    +0.000 A 
ATOM     21  C   UNL     1      49.010   6.345  15.826  0.00  0.00    +0.000 A 
BRANCH  16  23
ATOM     22  C   UNL     1      47.489   3.848  17.188  0.00  0.00    +0.000 C 
ATOM     23  C   UNL     1      48.697   4.629  17.738  0.00  0.00    +0.000 C 
ATOM     24  C   UNL     1      50.027   3.935  17.421  0.00  0.00    +0.000 C 
ATOM     25  C   UNL     1      50.885   4.145  18.661  0.00  0.00    +0.000 C 
ATOM     26  O   UNL     1      50.057   4.709  19.683  0.00  0.00    +0.000 OA
ATOM     27  C   UNL     1      48.699   4.525  19.271  0.00  0.00    +0.000 C 
ENDBRANCH  16  23
ENDBRANCH  15  20
ENDBRANCH   1  15
TORSDOF 6
ENDMDL
MODEL 9
REMARK VINA RESULT:    -5.540      3.826      8.423
REMARK INTER + INTRA:          -8.436
REMARK INTER:                  -7.407
REMARK INTRA:                  -1.029
REMARK UNBOUND:                -0.953
REMARK  Name = 
REMARK  7 active torsions:
REMARK  status: ('A' for Active; 'I' for Inactive)
REMARK    1  A    between atoms: C_1  and  C_2
REMARK    2  A    between atoms: C_2  and  C_3
REMARK    3  A    between atoms: C_7  and  C_8
REMARK    4  A    between atoms: C_8  and  C_9
REMARK    5  A    between atoms: C_9  and  N_10
REMARK    6  A    between atoms: N_10  and  C_11
REMARK    7  A    between atoms: C_14  and  C_15
REMARK                            x       y       z     vdW  Elec       q    Type
REMARK                         _______ _______ _______ _____ _____    ______ ____
ROOT
ATOM      1  C   UNL     1      49.369   7.382  12.530  0.00  0.00    +0.000 C 
ENDROOT
BRANCH   1   2
ATOM      2  N   UNL     1      49.587   8.559  13.391  0.00  0.00    +0.000 N 
ATOM      3  H   UNL     1      49.128   9.395  13.030  0.00  0.00    +0.000 HD
BRANCH   2   4
ATOM      4  C   UNL     1      49.279   8.347  14.749  0.00  0.00    +0.000 A 
ATOM      5  C   UNL     1      49.776   7.250  15.465  0.00  0.00    +0.000 A 
ATOM      6  C   UNL     1      49.483   7.081  16.813  0.00  0.00    +0.000 A 
ATOM      7  C   UNL     1      48.722   8.051  17.441  0.00  0.00    +0.000 A 
ATOM      8  N   UNL     1      48.243   9.162  16.816  0.00  0.00    +0.000 NA
ATOM      9  C   UNL     1      48.551   9.280  15.495  0.00  0.00    +0.000 A 
BRANCH   7  10
ATOM     10  C   UNL     1      48.419   7.913  18.899  0.00  0.00    +0.000 C 
ATOM     11  N   UNL     1      47.192   8.349  19.293  0.00  0.00    +0.000 N 
ATOM     12  O   UNL     1      49.229   7.441  19.701  0.00  0.00    +0.000 OA
ATOM     13  H   UNL     1      46.562   8.757  18.608  0.00  0.00    +0.000 HD
ATOM     14  H   UNL     1      46.942   8.320  20.271  0.00  0.00    +0.000 HD
ENDBRANCH   7  10
ENDBRANCH   2   4
ENDBRANCH   1   2
BRANCH   1  15
ATOM     15  C   UNL     1      47.996   7.405  11.851  0.00  0.00    +0.000 C 
BRANCH  15  20
ATOM     16  C   UNL     1      45.173   4.823  11.825  0.00  0.00    +0.000 A 
ATOM     17  C   UNL     1      45.525   4.046  12.946  0.00  0.00    +0.000 A 
ATOM     18  C   UNL     1      46.617   4.381  13.748  0.00  0.00    +0.000 A 
ATOM     19  C   UNL     1      47.404   5.485  13.429  0.00  0.00    +0.000 A 
ATOM     20  C   UNL     1      47.098   6.269  12.308  0.00  0.00    +0.000 A 
ATOM     21  C   UNL     1      45.956   5.952  11.548  0.00  0.00    +0.000 A 
BRANCH  16  23
ATOM     22  C   UNL     1      42.723   4.961  11.420  0.00  0.00    +0.000 C 
ATOM     23  C   UNL     1      44.036   4.338  10.909  0.00  0.00    +0.000 C 
ATOM     24  C   UNL     1      44.309   4.687   9.442  0.00  0.00    +0.000 C 
ATOM     25  C   UNL     1      44.910   3.423   8.842  0.00  0.00    +0.000 C 
ATOM     26  O   UNL     1      44.790   2.374   9.808  0.00  0.00    +0.000 OA
ATOM     27  C   UNL     1      43.851   2.817  10.794  0.00  0.00    +0.000 C 
ENDBRANCH  16  23
ENDBRANCH  15  20
ENDBRANCH   1  15
TORSDOF 6
ENDMDL
