MODEL 1
REMARK VINA RESULT:    -7.655      0.000      0.000
REMARK INTER + INTRA:          -8.967
REMARK INTER:                  -9.892
REMARK INTRA:                   0.925
REMARK UNBOUND:                 0.925
REMARK  Name = 
REMARK  9 active torsions:
REMARK  status: ('A' for Active; 'I' for Inactive)
REMARK    1  A    between atoms: C_1  and  C_2
REMARK    2  A    between atoms: C_2  and  O_3
REMARK    3  A    between atoms: O_3  and  C_4
REMARK    4  A    between atoms: C_7  and  C_8
REMARK    5  A    between atoms: C_8  and  C_9
REMARK    6  A    between atoms: C_8  and  N_10
REMARK    7  A    between atoms: C_14  and  C_15
REMARK    8  A    between atoms: N_17  and  C_18
REMARK    9  A    between atoms: N_17  and  C_19
REMARK                            x       y       z     vdW  Elec       q    Type
REMARK                         _______ _______ _______ _____ _____    ______ ____
ROOT
ATOM      1  N   UNL     1      43.993   5.874  11.022  0.00  0.00    +0.000 N 
ATOM      2  C   UNL     1      45.071   5.856  11.932  0.00  0.00    +0.000 A 
ATOM      3  C   UNL     1      45.634   7.075  12.288  0.00  0.00    +0.000 A 
ATOM      4  C   UNL     1      46.704   7.116  13.186  0.00  0.00    +0.000 A 
ATOM      5  C   UNL     1      47.188   5.931  13.716  0.00  0.00    +0.000 A 
ATOM      6  N   UNL     1      46.632   4.754  13.371  0.00  0.00    +0.000 NA
ATOM      7  N   UNL     1      45.585   4.722  12.451  0.00  0.00    +0.000 NA
ATOM      8  H   UNL     1      43.271   6.475  11.420  0.00  0.00    +0.000 HD
ENDROOT
BRANCH   5   9
ATOM      9  C   UNL     1      48.273   5.982  14.747  0.00  0.00    +0.000 C 
ATOM     10  O   UNL     1      49.264   6.661  14.460  0.00  0.00    +0.000 OA
ATOM     11  N   UNL     1      48.195   5.292  15.966  0.00  0.00    +0.000 N 
ATOM     12  C   UNL     1      47.138   4.382  16.384  0.00  0.00    +0.000 C 
ATOM     13  C   UNL     1      49.253   5.501  16.946  0.00  0.00    +0.000 C 
ENDBRANCH   5   9
BRANCH   1  14
ATOM     14  C   UNL     1      43.420   4.559  10.672  0.00  0.00    +0.000 C 
ATOM     15  C   UNL     1      43.220   3.712  11.933  0.00  0.00    +0.000 C 
BRANCH  14  19
ATOM     16  C   UNL     1      46.079   2.418   8.051  0.00  0.00    +0.000 A 
ATOM     17  C   UNL     1      46.042   3.808   7.987  0.00  0.00    +0.000 A 
ATOM     18  C   UNL     1      45.172   4.516   8.814  0.00  0.00    +0.000 A 
ATOM     19  C   UNL     1      44.351   3.824   9.704  0.00  0.00    +0.000 A 
ATOM     20  N   UNL     1      44.356   2.467   9.766  0.00  0.00    +0.000 NA
ATOM     21  C   UNL     1      45.214   1.806   8.950  0.00  0.00    +0.000 A 
BRANCH  16  22
ATOM     22  O   UNL     1      46.881   1.592   7.316  0.00  0.00    +0.000 OA
BRANCH  22  24
ATOM     23  C   UNL     1      47.637   2.474   5.224  0.00  0.00    +0.000 C 
ATOM     24  C   UNL     1      47.997   2.206   6.674  0.00  0.00    +0.000 C 
ENDBRANCH  22  24
ENDBRANCH  16  22
ENDBRANCH  14  19
ENDBRANCH   1  14
TORSDOF 5
ENDMDL
MODEL 2
REMARK VINA RESULT:    -7.602      1.675      2.460
REMARK INTER + INTRA:          -8.899
REMARK INTER:                  -8.235
REMARK INTRA:                  -0.665
REMARK UNBOUND:                 0.925
REMARK  Name = 
REMARK  9 active torsions:
REMARK  status: ('A' for Active; 'I' for Inactive)
REMARK    1  A    between atoms: C_1  and  C_2
REMARK    2  A    between atoms: C_2  and  O_3
REMARK    3  A    between atoms: O_3  and  C_4
REMARK    4  A    between atoms: C_7  and  C_8
REMARK    5  A    between atoms: C_8  and  C_9
REMARK    6  A    between atoms: C_8  and  N_10
REMARK    7  A    between atoms: C_14  and  C_15
REMARK    8  A    between atoms: N_17  and  C_18
REMARK    9  A    between atoms: N_17  and  C_19
REMARK                            x       y       z     vdW  Elec       q    Type
REMARK                         _______ _______ _______ _____ _____    ______ ____
ROOT
ATOM      1  N   UNL     1      45.054   4.409  13.292  0.00  0.00    +0.000 N 
ATOM      2  C   UNL     1      46.151   5.114  13.831  0.00  0.00    +0.000 A 
ATOM      3  C   UNL     1      46.880   4.500  14.842  0.00  0.00    +0.000 A 
ATOM      4  C   UNL     1      47.976   5.153  15.411  0.00  0.00    +0.000 A 
ATOM      5  C   UNL     1      48.327   6.412  14.951  0.00  0.00    +0.000 A 
ATOM      6  N   UNL     1      47.620   6.998  13.966  0.00  0.00    +0.000 NA
ATOM      7  N   UNL     1      46.509   6.350  13.426  0.00  0.00    +0.000 NA
ATOM      8  H   UNL     1      45.406   3.513  12.957  0.00  0.00    +0.000 HD
ENDROOT
BRANCH   5   9
ATOM      9  C   UNL     1      49.556   7.072  15.496  0.00  0.00    +0.000 C 
ATOM     10  O   UNL     1      50.565   7.014  14.786  0.00  0.00    +0.000 OA
ATOM     11  N   UNL     1      49.584   7.710  16.745  0.00  0.00    +0.000 N 
ATOM     12  C   UNL     1      48.503   7.763  17.719  0.00  0.00    +0.000 C 
ATOM     13  C   UNL     1      50.796   8.420  17.130  0.00  0.00    +0.000 C 
ENDBRANCH   5   9
BRANCH   1  14
ATOM     14  C   UNL     1      44.309   5.094  12.218  0.00  0.00    +0.000 C 
ATOM     15  C   UNL     1      42.799   4.958  12.447  0.00  0.00    +0.000 C 
BRANCH  14  19
ATOM     16  C   UNL     1      45.308   3.511   8.342  0.00  0.00    +0.000 A 
ATOM     17  C   UNL     1      44.565   2.727   9.221  0.00  0.00    +0.000 A 
ATOM     18  C   UNL     1      44.251   3.216  10.488  0.00  0.00    +0.000 A 
ATOM     19  C   UNL     1      44.677   4.490  10.859  0.00  0.00    +0.000 A 
ATOM     20  N   UNL     1      45.420   5.262  10.024  0.00  0.00    +0.000 NA
ATOM     21  C   UNL     1      45.709   4.760   8.799  0.00  0.00    +0.000 A 
BRANCH  16  22
ATOM     22  O   UNL     1      45.682   3.175   7.073  0.00  0.00    +0.000 OA
BRANCH  22  24
ATOM     23  C   UNL     1      47.607   1.757   6.965  0.00  0.00    +0.000 C 
ATOM     24  C   UNL     1      47.085   3.173   6.809  0.00  0.00    +0.000 C 
ENDBRANCH  22  24
ENDBRANCH  16  22
ENDBRANCH  14  19
ENDBRANCH   1  14
TORSDOF 5
ENDMDL
MODEL 3
REMARK VINA RESULT:    -7.589      2.278      2.785
REMARK INTER + INTRA:          -8.882
REMARK INTER:                  -8.238
REMARK INTRA:                  -0.644
REMARK UNBOUND:                 0.925
REMARK  Name = 
REMARK  9 active torsions:
REMARK  status: ('A' for Active; 'I' for Inactive)
REMARK    1  A    between atoms: C_1  and  C_2
REMARK    2  A    between atoms: C_2  and  O_3
REMARK    3  A    between atoms: O_3  and  C_4
REMARK    4  A    between atoms: C_7  and  C_8
REMARK    5  A    between atoms: C_8  and  C_9
REMARK    6  A    between atoms: C_8  and  N_10
REMARK    7  A    between atoms: C_14  and  C_15
REMARK    8  A    between atoms: N_17  and  C_18
REMARK    9  A    between atoms: N_17  and  C_19
REMARK                            x       y       z     vdW  Elec       q    Type
REMARK                         _______ _______ _______ _____ _____    ______ ____
ROOT
ATOM      1  N   UNL     1      45.297   4.707  12.533  0.00  0.00    +0.000 N 
ATOM      2  C   UNL     1      46.260   5.723  12.708  0.00  0.00    +0.000 A 
ATOM      3  C   UNL     1      47.158   5.587  13.760  0.00  0.00    +0.000 A 
ATOM      4  C   UNL     1      48.133   6.564  13.979  0.00  0.00    +0.000 A 
ATOM      5  C   UNL     1      48.194   7.660  13.133  0.00  0.00    +0.000 A 
ATOM      6  N   UNL     1      47.324   7.781  12.112  0.00  0.00    +0.000 NA
ATOM      7  N   UNL     1      46.335   6.816  11.922  0.00  0.00    +0.000 NA
ATOM      8  H   UNL     1      45.801   3.826  12.434  0.00  0.00    +0.000 HD
ENDROOT
BRANCH   5   9
ATOM      9  C   UNL     1      49.295   8.659  13.312  0.00  0.00    +0.000 C 
ATOM     10  O   UNL     1      49.142   9.480  14.222  0.00  0.00    +0.000 OA
ATOM     11  N   UNL     1      50.433   8.689  12.493  0.00  0.00    +0.000 N 
ATOM     12  C   UNL     1      50.689   7.852  11.329  0.00  0.00    +0.000 C 
ATOM     13  C   UNL     1      51.497   9.628  12.824  0.00  0.00    +0.000 C 
ENDBRANCH   5   9
BRANCH   1  14
ATOM     14  C   UNL     1      44.364   4.886  11.404  0.00  0.00    +0.000 C 
ATOM     15  C   UNL     1      42.967   4.381  11.781  0.00  0.00    +0.000 C 
BRANCH  14  19
ATOM     16  C   UNL     1      45.852   2.644   8.044  0.00  0.00    +0.000 A 
ATOM     17  C   UNL     1      45.946   4.033   8.024  0.00  0.00    +0.000 A 
ATOM     18  C   UNL     1      45.450   4.776   9.095  0.00  0.00    +0.000 A 
ATOM     19  C   UNL     1      44.872   4.118  10.179  0.00  0.00    +0.000 A 
ATOM     20  N   UNL     1      44.751   2.766  10.208  0.00  0.00    +0.000 NA
ATOM     21  C   UNL     1      45.243   2.071   9.153  0.00  0.00    +0.000 A 
BRANCH  16  22
ATOM     22  O   UNL     1      46.298   1.787   7.080  0.00  0.00    +0.000 OA
BRANCH  22  24
ATOM     23  C   UNL     1      47.864   2.393   5.375  0.00  0.00    +0.000 C 
ATOM     24  C   UNL     1      47.692   1.846   6.780  0.00  0.00    +0.000 C 
ENDBRANCH  22  24
ENDBRANCH  16  22
ENDBRANCH  14  19
ENDBRANCH   1  14
TORSDOF 5
ENDMDL
MODEL 4
REMARK VINA RESULT:    -7.367      1.753      6.922
REMARK INTER + INTRA:          -8.596
REMARK INTER:                  -9.877
REMARK INTRA:                   1.282
REMARK UNBOUND:                 0.925
REMARK  Name = 
REMARK  9 active torsions:
REMARK  status: ('A' for Active; 'I' for Inactive)
REMARK    1  A    between atoms: C_1  and  C_2
REMARK    2  A    between atoms: C_2  and  O_3
REMARK    3  A    between atoms: O_3  and  C_4
REMARK    4  A    between atoms: C_7  and  C_8
REMARK    5  A    between atoms: C_8  and  C_9
REMARK    6  A    between atoms: C_8  and  N_10
REMARK    7  A    between atoms: C_14  and  C_15
REMARK    8  A    between atoms: N_17  and  C_18
REMARK    9  A    between atoms: N_17  and  C_19
REMARK                            x       y       z     vdW  Elec       q    Type
REMARK                         _______ _______ _______ _____ _____    ______ ____
ROOT
ATOM      1  N   UNL     1      43.296   3.440  11.848  0.00  0.00    +0.000 N 
ATOM      2  C   UNL     1      44.106   3.423  10.693  0.00  0.00    +0.000 A 
ATOM      3  C   UNL     1      44.167   2.241   9.965  0.00  0.00    +0.000 A 
ATOM      4  C   UNL     1      44.954   2.168   8.813  0.00  0.00    +0.000 A 
ATOM      5  C   UNL     1      45.664   3.287   8.406  0.00  0.00    +0.000 A 
ATOM      6  N   UNL     1      45.594   4.431   9.114  0.00  0.00    +0.000 NA
ATOM      7  N   UNL     1      44.830   4.483  10.279  0.00  0.00    +0.000 NA
ATOM      8  H   UNL     1      42.355   3.173  11.561  0.00  0.00    +0.000 HD
ENDROOT
BRANCH   5   9
ATOM      9  C   UNL     1      46.434   3.237   7.123  0.00  0.00    +0.000 C 
ATOM     10  O   UNL     1      46.403   4.260   6.430  0.00  0.00    +0.000 OA
ATOM     11  N   UNL     1      47.140   2.100   6.705  0.00  0.00    +0.000 N 
ATOM     12  C   UNL     1      47.176   0.805   7.370  0.00  0.00    +0.000 C 
ATOM     13  C   UNL     1      47.949   2.195   5.497  0.00  0.00    +0.000 C 
ENDBRANCH   5   9
BRANCH   1  14
ATOM     14  C   UNL     1      43.255   4.714  12.591  0.00  0.00    +0.000 C 
ATOM     15  C   UNL     1      42.615   5.811  11.734  0.00  0.00    +0.000 C 
BRANCH  14  19
ATOM     16  C   UNL     1      47.223   5.847  13.816  0.00  0.00    +0.000 A 
ATOM     17  C   UNL     1      46.436   6.772  13.136  0.00  0.00    +0.000 A 
ATOM     18  C   UNL     1      45.157   6.415  12.713  0.00  0.00    +0.000 A 
ATOM     19  C   UNL     1      44.675   5.136  12.984  0.00  0.00    +0.000 A 
ATOM     20  N   UNL     1      45.434   4.211  13.628  0.00  0.00    +0.000 NA
ATOM     21  C   UNL     1      46.674   4.588  14.027  0.00  0.00    +0.000 A 
BRANCH  16  22
ATOM     22  O   UNL     1      48.485   6.052  14.298  0.00  0.00    +0.000 OA
BRANCH  22  24
ATOM     23  C   UNL     1      49.852   8.009  14.457  0.00  0.00    +0.000 C 
ATOM     24  C   UNL     1      48.684   7.246  15.053  0.00  0.00    +0.000 C 
ENDBRANCH  22  24
ENDBRANCH  16  22
ENDBRANCH  14  19
ENDBRANCH   1  14
TORSDOF 5
ENDMDL
MODEL 5
REMARK VINA RESULT:    -7.206      2.010      3.745
REMARK INTER + INTRA:          -8.387
REMARK INTER:                  -7.731
REMARK INTRA:                  -0.655
REMARK UNBOUND:                 0.925
REMARK  Name = 
REMARK  9 active torsions:
REMARK  status: ('A' for Active; 'I' for Inactive)
REMARK    1  A    between atoms: C_1  and  C_2
REMARK    2  A    between atoms: C_2  and  O_3
REMARK    3  A    between atoms: O_3  and  C_4
REMARK    4  A    between atoms: C_7  and  C_8
REMARK    5  A    between atoms: C_8  and  C_9
REMARK    6  A    between atoms: C_8  and  N_10
REMARK    7  A    between atoms: C_14  and  C_15
REMARK    8  A    between atoms: N_17  and  C_18
REMARK    9  A    between atoms: N_17  and  C_19
REMARK                            x       y       z     vdW  Elec       q    Type
REMARK                         _______ _______ _______ _____ _____    ______ ____
ROOT
ATOM      1  N   UNL     1      46.124   5.021  14.118  0.00  0.00    +0.000 N 
ATOM      2  C   UNL     1      47.201   5.057  15.029  0.00  0.00    +0.000 A 
ATOM      3  C   UNL     1      47.130   4.232  16.144  0.00  0.00    +0.000 A 
ATOM      4  C   UNL     1      48.169   4.228  17.079  0.00  0.00    +0.000 A 
ATOM      5  C   UNL     1      49.266   5.050  16.875  0.00  0.00    +0.000 A 
ATOM      6  N   UNL     1      49.329   5.841  15.787  0.00  0.00    +0.000 NA
ATOM      7  N   UNL     1      48.273   5.861  14.877  0.00  0.00    +0.000 NA
ATOM      8  H   UNL     1      46.017   4.053  13.815  0.00  0.00    +0.000 HD
ENDROOT
BRANCH   5   9
ATOM      9  C   UNL     1      50.419   4.978  17.827  0.00  0.00    +0.000 C 
ATOM     10  O   UNL     1      51.171   4.006  17.698  0.00  0.00    +0.000 OA
ATOM     11  N   UNL     1      50.640   5.938  18.825  0.00  0.00    +0.000 N 
ATOM     12  C   UNL     1      49.782   7.069  19.150  0.00  0.00    +0.000 C 
ATOM     13  C   UNL     1      51.855   5.836  19.623  0.00  0.00    +0.000 C 
ENDBRANCH   5   9
BRANCH   1  14
ATOM     14  C   UNL     1      46.238   5.909  12.944  0.00  0.00    +0.000 C 
ATOM     15  C   UNL     1      45.355   7.148  13.126  0.00  0.00    +0.000 C 
BRANCH  14  19
ATOM     16  C   UNL     1      44.985   3.911   9.343  0.00  0.00    +0.000 A 
ATOM     17  C   UNL     1      44.823   3.264  10.566  0.00  0.00    +0.000 A 
ATOM     18  C   UNL     1      45.242   3.889  11.739  0.00  0.00    +0.000 A 
ATOM     19  C   UNL     1      45.813   5.159  11.678  0.00  0.00    +0.000 A 
ATOM     20  N   UNL     1      46.000   5.797  10.493  0.00  0.00    +0.000 NA
ATOM     21  C   UNL     1      45.582   5.165   9.369  0.00  0.00    +0.000 A 
BRANCH  16  22
ATOM     22  O   UNL     1      44.617   3.434   8.118  0.00  0.00    +0.000 OA
BRANCH  22  24
ATOM     23  C   UNL     1      46.511   2.094   7.532  0.00  0.00    +0.000 C 
ATOM     24  C   UNL     1      45.662   3.294   7.156  0.00  0.00    +0.000 C 
ENDBRANCH  22  24
ENDBRANCH  16  22
ENDBRANCH  14  19
ENDBRANCH   1  14
TORSDOF 5
ENDMDL
MODEL 6
REMARK VINA RESULT:    -7.154      2.470      4.539
REMARK INTER + INTRA:          -8.320
REMARK INTER:                  -7.777
REMARK INTRA:                  -0.543
REMARK UNBOUND:                 0.925
REMARK  Name = 
REMARK  9 active torsions:
REMARK  status: ('A' for Active; 'I' for Inactive)
REMARK    1  A    between atoms: C_1  and  C_2
REMARK    2  A    between atoms: C_2  and  O_3
REMARK    3  A    between atoms: O_3  and  C_4
REMARK    4  A    between atoms: C_7  and  C_8
REMARK    5  A    between atoms: C_8  and  C_9
REMARK    6  A    between atoms: C_8  and  N_10
REMARK    7  A    between atoms: C_14  and  C_15
REMARK    8  A    between atoms: N_17  and  C_18
REMARK    9  A    between atoms: N_17  and  C_19
REMARK                            x       y       z     vdW  Elec       q    Type
REMARK                         _______ _______ _______ _____ _____    ______ ____
ROOT
ATOM      1  N   UNL     1      46.744   5.155  14.952  0.00  0.00    +0.000 N 
ATOM      2  C   UNL     1      47.809   5.181  15.877  0.00  0.00    +0.000 A 
ATOM      3  C   UNL     1      47.592   4.616  17.128  0.00  0.00    +0.000 A 
ATOM      4  C   UNL     1      48.612   4.615  18.082  0.00  0.00    +0.000 A 
ATOM      5  C   UNL     1      49.838   5.177  17.763  0.00  0.00    +0.000 A 
ATOM      6  N   UNL     1      50.042   5.716  16.546  0.00  0.00    +0.000 NA
ATOM      7  N   UNL     1      49.007   5.740  15.612  0.00  0.00    +0.000 NA
ATOM      8  H   UNL     1      46.467   4.180  14.838  0.00  0.00    +0.000 HD
ENDROOT
BRANCH   5   9
ATOM      9  C   UNL     1      50.959   5.094  18.752  0.00  0.00    +0.000 C 
ATOM     10  O   UNL     1      51.059   6.038  19.542  0.00  0.00    +0.000 OA
ATOM     11  N   UNL     1      51.864   4.023  18.784  0.00  0.00    +0.000 N 
ATOM     12  C   UNL     1      51.923   2.904  17.854  0.00  0.00    +0.000 C 
ATOM     13  C   UNL     1      52.847   3.983  19.859  0.00  0.00    +0.000 C 
ENDBRANCH   5   9
BRANCH   1  14
ATOM     14  C   UNL     1      47.015   5.762  13.635  0.00  0.00    +0.000 C 
ATOM     15  C   UNL     1      46.706   7.263  13.665  0.00  0.00    +0.000 C 
BRANCH  14  19
ATOM     16  C   UNL     1      44.675   3.748  10.635  0.00  0.00    +0.000 A 
ATOM     17  C   UNL     1      45.159   5.026  10.369  0.00  0.00    +0.000 A 
ATOM     18  C   UNL     1      45.901   5.701  11.337  0.00  0.00    +0.000 A 
ATOM     19  C   UNL     1      46.158   5.085  12.561  0.00  0.00    +0.000 A 
ATOM     20  N   UNL     1      45.676   3.848  12.848  0.00  0.00    +0.000 NA
ATOM     21  C   UNL     1      44.958   3.216  11.886  0.00  0.00    +0.000 A 
BRANCH  16  22
ATOM     22  O   UNL     1      43.946   2.963   9.788  0.00  0.00    +0.000 OA
BRANCH  22  24
ATOM     23  C   UNL     1      45.682   1.774   8.649  0.00  0.00    +0.000 C 
ATOM     24  C   UNL     1      44.514   2.730   8.500  0.00  0.00    +0.000 C 
ENDBRANCH  22  24
ENDBRANCH  16  22
ENDBRANCH  14  19
ENDBRANCH   1  14
TORSDOF 5
ENDMDL
MODEL 7
REMARK VINA RESULT:    -7.045      1.594      2.124
REMARK INTER + INTRA:          -8.178
REMARK INTER:                  -8.869
REMARK INTRA:                   0.690
REMARK UNBOUND:                 0.925
REMARK  Name = 
REMARK  9 active torsions:
REMARK  status: ('A' for Active; 'I' for Inactive)
REMARK    1  A    between atoms: C_1  and  C_2
REMARK    2  A    between atoms: C_2  and  O_3
REMARK    3  A    between atoms: O_3  and  C_4
REMARK    4  A    between atoms: C_7  and  C_8
REMARK    5  A    between atoms: C_8  and  C_9
REMARK    6  A    between atoms: C_8  and  N_10
REMARK    7  A    between atoms: C_14  and  C_15
REMARK    8  A    between atoms: N_17  and  C_18
REMARK    9  A    between atoms: N_17  and  C_19
REMARK                            x       y       z     vdW  Elec       q    Type
REMARK                         _______ _______ _______ _____ _____    ______ ____
ROOT
ATOM      1  N   UNL     1      43.782   6.483  11.101  0.00  0.00    +0.000 N 
ATOM      2  C   UNL     1      44.965   6.644  11.852  0.00  0.00    +0.000 A 
ATOM      3  C   UNL     1      45.519   7.916  11.919  0.00  0.00    +0.000 A 
ATOM      4  C   UNL     1      46.691   8.132  12.649  0.00  0.00    +0.000 A 
ATOM      5  C   UNL     1      47.284   7.066  13.307  0.00  0.00    +0.000 A 
ATOM      6  N   UNL     1      46.737   5.838  13.242  0.00  0.00    +0.000 NA
ATOM      7  N   UNL     1      45.586   5.627  12.485  0.00  0.00    +0.000 NA
ATOM      8  H   UNL     1      43.093   7.131  11.480  0.00  0.00    +0.000 HD
ENDROOT
BRANCH   5   9
ATOM      9  C   UNL     1      48.487   7.315  14.164  0.00  0.00    +0.000 C 
ATOM     10  O   UNL     1      48.306   7.253  15.385  0.00  0.00    +0.000 OA
ATOM     11  N   UNL     1      49.748   7.619  13.632  0.00  0.00    +0.000 N 
ATOM     12  C   UNL     1      50.074   7.822  12.228  0.00  0.00    +0.000 C 
ATOM     13  C   UNL     1      50.875   7.730  14.549  0.00  0.00    +0.000 C 
ENDBRANCH   5   9
BRANCH   1  14
ATOM     14  C   UNL     1      43.224   5.117  11.057  0.00  0.00    +0.000 C 
ATOM     15  C   UNL     1      43.166   4.520  12.467  0.00  0.00    +0.000 C 
BRANCH  14  19
ATOM     16  C   UNL     1      45.608   2.681   8.428  0.00  0.00    +0.000 A 
ATOM     17  C   UNL     1      44.882   2.067   9.446  0.00  0.00    +0.000 A 
ATOM     18  C   UNL     1      44.122   2.843  10.319  0.00  0.00    +0.000 A 
ATOM     19  C   UNL     1      44.088   4.227  10.159  0.00  0.00    +0.000 A 
ATOM     20  N   UNL     1      44.805   4.848   9.186  0.00  0.00    +0.000 NA
ATOM     21  C   UNL     1      45.535   4.066   8.352  0.00  0.00    +0.000 A 
BRANCH  16  22
ATOM     22  O   UNL     1      46.386   2.057   7.495  0.00  0.00    +0.000 OA
BRANCH  22  24
ATOM     23  C   UNL     1      47.157   2.785   5.350  0.00  0.00    +0.000 C 
ATOM     24  C   UNL     1      47.368   2.867   6.851  0.00  0.00    +0.000 C 
ENDBRANCH  22  24
ENDBRANCH  16  22
ENDBRANCH  14  19
ENDBRANCH   1  14
TORSDOF 5
ENDMDL
MODEL 8
REMARK VINA RESULT:    -6.710      2.987      4.612
REMARK INTER + INTRA:          -7.746
REMARK INTER:                  -7.091
REMARK INTRA:                  -0.655
REMARK UNBOUND:                 0.925
REMARK  Name = 
REMARK  9 active torsions:
REMARK  status: ('A' for Active; 'I' for Inactive)
REMARK    1  A    between atoms: C_1  and  C_2
REMARK    2  A    between atoms: C_2  and  O_3
REMARK    3  A    between atoms: O_3  and  C_4
REMARK    4  A    between atoms: C_7  and  C_8
REMARK    5  A    between atoms: C_8  and  C_9
REMARK    6  A    between atoms: C_8  and  N_10
REMARK    7  A    between atoms: C_14  and  C_15
REMARK    8  A    between atoms: N_17  and  C_18
REMARK    9  A    between atoms: N_17  and  C_19
REMARK                            x       y       z     vdW  Elec       q    Type
REMARK                         _______ _______ _______ _____ _____    ______ ____
ROOT
ATOM      1  N   UNL     1      47.072   6.436  14.189  0.00  0.00    +0.000 N 
ATOM      2  C   UNL     1      48.388   6.765  14.577  0.00  0.00    +0.000 A 
ATOM      3  C   UNL     1      48.797   6.393  15.852  0.00  0.00    +0.000 A 
ATOM      4  C   UNL     1      50.090   6.694  16.288  0.00  0.00    +0.000 A 
ATOM      5  C   UNL     1      50.954   7.361  15.433  0.00  0.00    +0.000 A 
ATOM      6  N   UNL     1      50.551   7.712  14.197  0.00  0.00    +0.000 NA
ATOM      7  N   UNL     1      49.249   7.434  13.783  0.00  0.00    +0.000 NA
ATOM      8  H   UNL     1      46.970   5.427  14.294  0.00  0.00    +0.000 HD
ENDROOT
BRANCH   5   9
ATOM      9  C   UNL     1      52.367   7.602  15.866  0.00  0.00    +0.000 C 
ATOM     10  O   UNL     1      53.142   6.646  15.751  0.00  0.00    +0.000 OA
ATOM     11  N   UNL     1      52.801   8.828  16.391  0.00  0.00    +0.000 N 
ATOM     12  C   UNL     1      51.977   9.994  16.673  0.00  0.00    +0.000 C 
ATOM     13  C   UNL     1      54.221   8.993  16.673  0.00  0.00    +0.000 C 
ENDBRANCH   5   9
BRANCH   1  14
ATOM     14  C   UNL     1      46.677   6.845  12.827  0.00  0.00    +0.000 C 
ATOM     15  C   UNL     1      45.715   8.037  12.887  0.00  0.00    +0.000 C 
BRANCH  14  19
ATOM     16  C   UNL     1      44.685   3.646  10.747  0.00  0.00    +0.000 A 
ATOM     17  C   UNL     1      44.994   3.486  12.095  0.00  0.00    +0.000 A 
ATOM     18  C   UNL     1      45.658   4.503  12.778  0.00  0.00    +0.000 A 
ATOM     19  C   UNL     1      45.998   5.676  12.106  0.00  0.00    +0.000 A 
ATOM     20  N   UNL     1      45.724   5.844  10.786  0.00  0.00    +0.000 NA
ATOM     21  C   UNL     1      45.077   4.837  10.149  0.00  0.00    +0.000 A 
BRANCH  16  22
ATOM     22  O   UNL     1      44.033   2.748   9.951  0.00  0.00    +0.000 OA
BRANCH  22  24
ATOM     23  C   UNL     1      45.665   1.633   8.603  0.00  0.00    +0.000 C 
ATOM     24  C   UNL     1      44.516   2.624   8.614  0.00  0.00    +0.000 C 
ENDBRANCH  22  24
ENDBRANCH  16  22
ENDBRANCH  14  19
ENDBRANCH   1  14
TORSDOF 5
ENDMDL
MODEL 9
REMARK VINA RESULT:    -6.643      3.209      5.139
REMARK INTER + INTRA:          -7.660
REMARK INTER:                  -6.989
REMARK INTRA:                  -0.671
REMARK UNBOUND:                 0.925
REMARK  Name = 
REMARK  9 active torsions:
REMARK  status: ('A' for Active; 'I' for Inactive)
REMARK    1  A    between atoms: C_1  and  C_2
REMARK    2  A    between atoms: C_2  and  O_3
REMARK    3  A    between atoms: O_3  and  C_4
REMARK    4  A    between atoms: C_7  and  C_8
REMARK    5  A    between atoms: C_8  and  C_9
REMARK    6  A    between atoms: C_8  and  N_10
REMARK    7  A    between atoms: C_14  and  C_15
REMARK    8  A    between atoms: N_17  and  C_18
REMARK    9  A    between atoms: N_17  and  C_19
REMARK                            x       y       z     vdW  Elec       q    Type
REMARK                         _______ _______ _______ _____ _____    ______ ____
ROOT
ATOM      1  N   UNL     1      48.143   7.835  13.979  0.00  0.00    +0.000 N 
ATOM      2  C   UNL     1      48.771   7.399  15.165  0.00  0.00    +0.000 A 
ATOM      3  C   UNL     1      48.685   8.223  16.281  0.00  0.00    +0.000 A 
ATOM      4  C   UNL     1      49.290   7.841  17.481  0.00  0.00    +0.000 A 
ATOM      5  C   UNL     1      49.966   6.633  17.544  0.00  0.00    +0.000 A 
ATOM      6  N   UNL     1      50.038   5.837  16.460  0.00  0.00    +0.000 NA
ATOM      7  N   UNL     1      49.459   6.243  15.258  0.00  0.00    +0.000 NA
ATOM      8  H   UNL     1      47.161   8.001  14.201  0.00  0.00    +0.000 HD
ENDROOT
BRANCH   5   9
ATOM      9  C   UNL     1      50.534   6.181  18.854  0.00  0.00    +0.000 C 
ATOM     10  O   UNL     1      51.694   6.531  19.093  0.00  0.00    +0.000 OA
ATOM     11  N   UNL     1      49.813   5.392  19.762  0.00  0.00    +0.000 N 
ATOM     12  C   UNL     1      48.485   4.829  19.562  0.00  0.00    +0.000 C 
ATOM     13  C   UNL     1      50.417   5.104  21.056  0.00  0.00    +0.000 C 
ENDBRANCH   5   9
BRANCH   1  14
ATOM     14  C   UNL     1      48.253   6.930  12.818  0.00  0.00    +0.000 C 
ATOM     15  C   UNL     1      48.749   7.700  11.589  0.00  0.00    +0.000 C 
BRANCH  14  19
ATOM     16  C   UNL     1      44.473   5.046  11.989  0.00  0.00    +0.000 A 
ATOM     17  C   UNL     1      44.959   6.004  11.103  0.00  0.00    +0.000 A 
ATOM     18  C   UNL     1      46.172   6.639  11.367  0.00  0.00    +0.000 A 
ATOM     19  C   UNL     1      46.890   6.302  12.513  0.00  0.00    +0.000 A 
ATOM     20  N   UNL     1      46.422   5.387  13.401  0.00  0.00    +0.000 NA
ATOM     21  C   UNL     1      45.241   4.785  13.116  0.00  0.00    +0.000 A 
BRANCH  16  22
ATOM     22  O   UNL     1      43.313   4.337  11.861  0.00  0.00    +0.000 OA
BRANCH  22  24
ATOM     23  C   UNL     1      44.097   2.669  10.335  0.00  0.00    +0.000 C 
ATOM     24  C   UNL     1      43.453   2.928  11.684  0.00  0.00    +0.000 C 
ENDBRANCH  22  24
ENDBRANCH  16  22
ENDBRANCH  14  19
ENDBRANCH   1  14
TORSDOF 5
ENDMDL
