MODEL 1
REMARK VINA RESULT:    -7.540      0.000      0.000
REMARK INTER + INTRA:         -10.132
REMARK INTER:                  -9.524
REMARK INTRA:                  -0.608
REMARK UNBOUND:                -0.608
REMARK  Name = 
REMARK  5 active torsions:
REMARK  status: ('A' for Active; 'I' for Inactive)
REMARK    1  A    between atoms: N_1  and  C_2
REMARK    2  A    between atoms: C_2  and  C_3
REMARK    3  A    between atoms: C_6  and  C_7
REMARK    4  A    between atoms: C_7  and  N_8
REMARK    5  A    between atoms: C_13  and  C_14
REMARK                            x       y       z     vdW  Elec       q    Type
REMARK                         _______ _______ _______ _____ _____    ______ ____
ROOT
ATOM      1  N   UNL     1      44.436   4.734  10.269  0.00  0.00    +0.000 N 
ATOM      2  C   UNL     1      43.677   3.695  10.759  0.00  0.00    +0.000 A 
ATOM      3  C   UNL     1      44.170   2.522  10.235  0.00  0.00    +0.000 A 
ATOM      4  C   UNL     1      45.133   2.874   9.258  0.00  0.00    +0.000 A 
ATOM      5  C   UNL     1      45.912   2.142   8.346  0.00  0.00    +0.000 A 
ATOM      6  C   UNL     1      46.689   2.855   7.434  0.00  0.00    +0.000 A 
ATOM      7  C   UNL     1      46.707   4.246   7.531  0.00  0.00    +0.000 A 
ATOM      8  N   UNL     1      46.033   5.002   8.444  0.00  0.00    +0.000 NA
ATOM      9  C   UNL     1      45.253   4.262   9.261  0.00  0.00    +0.000 A 
ENDROOT
BRANCH   6  10
ATOM     10  C   UNL     1      47.458   2.194   6.354  0.00  0.00    +0.000 C 
ATOM     11  N   UNL     1      47.767   2.915   5.232  0.00  0.00    +0.000 N 
ATOM     12  O   UNL     1      47.832   1.029   6.459  0.00  0.00    +0.000 OA
ATOM     13  H   UNL     1      47.535   3.879   5.070  0.00  0.00    +0.000 HD
ATOM     14  H   UNL     1      48.327   2.445   4.526  0.00  0.00    +0.000 HD
ENDBRANCH   6  10
BRANCH   1  15
ATOM     15  C   UNL     1      44.411   6.092  10.800  0.00  0.00    +0.000 C 
BRANCH  15  19
ATOM     16  C   UNL     1      47.351   8.103  12.428  0.00  0.00    +0.000 C 
ATOM     17  C   UNL     1      47.439   6.754  11.697  0.00  0.00    +0.000 C 
ATOM     18  C   UNL     1      46.480   5.723  12.286  0.00  0.00    +0.000 C 
ATOM     19  C   UNL     1      45.013   6.186  12.228  0.00  0.00    +0.000 C 
ATOM     20  C   UNL     1      44.867   7.589  12.848  0.00  0.00    +0.000 C 
ATOM     21  C   UNL     1      45.898   8.610  12.359  0.00  0.00    +0.000 C 
BRANCH  16  22
ATOM     22  C   UNL     1      47.861   8.053  13.888  0.00  0.00    +0.000 C 
BRANCH  22  23
ATOM     23  N   UNL     1      47.294   9.109  14.719  0.00  0.00    +0.000 NA
ATOM     24  H   UNL     1      47.563  10.020  14.346  0.00  0.00    +0.000 HD
ATOM     25  H   UNL     1      47.684   9.061  15.660  0.00  0.00    +0.000 HD
ENDBRANCH  22  23
ENDBRANCH  16  22
ENDBRANCH  15  19
ENDBRANCH   1  15
TORSDOF 5
ENDMDL
MODEL 2
REMARK VINA RESULT:    -6.764      2.586      6.867
REMARK INTER + INTRA:          -9.152
REMARK INTER:                  -8.565
REMARK INTRA:                  -0.587
REMARK UNBOUND:                -0.608
REMARK  Name = 
REMARK  5 active torsions:
REMARK  status: ('A' for Active; 'I' for Inactive)
REMARK    1  A    between atoms: N_1  and  C_2
REMARK    2  A    between atoms: C_2  and  C_3
REMARK    3  A    between atoms: C_6  and  C_7
REMARK    4  A    between atoms: C_7  and  N_8
REMARK    5  A    between atoms: C_13  and  C_14
REMARK                            x       y       z     vdW  Elec       q    Type
REMARK                         _______ _______ _______ _____ _____    ______ ____
ROOT
ATOM      1  N   UNL     1      44.290   4.417  11.184  0.00  0.00    +0.000 N 
ATOM      2  C   UNL     1      42.991   4.872  11.135  0.00  0.00    +0.000 A 
ATOM      3  C   UNL     1      43.003   6.225  11.388  0.00  0.00    +0.000 A 
ATOM      4  C   UNL     1      44.320   6.563  11.783  0.00  0.00    +0.000 A 
ATOM      5  C   UNL     1      44.932   7.746  12.231  0.00  0.00    +0.000 A 
ATOM      6  C   UNL     1      46.260   7.675  12.650  0.00  0.00    +0.000 A 
ATOM      7  C   UNL     1      46.924   6.455  12.526  0.00  0.00    +0.000 A 
ATOM      8  N   UNL     1      46.404   5.297  12.027  0.00  0.00    +0.000 NA
ATOM      9  C   UNL     1      45.100   5.412  11.693  0.00  0.00    +0.000 A 
ENDROOT
BRANCH   6  10
ATOM     10  C   UNL     1      46.970   8.828  13.250  0.00  0.00    +0.000 C 
ATOM     11  N   UNL     1      47.130   8.867  14.609  0.00  0.00    +0.000 N 
ATOM     12  O   UNL     1      47.426   9.729  12.551  0.00  0.00    +0.000 OA
ATOM     13  H   UNL     1      46.822   8.164  15.257  0.00  0.00    +0.000 HD
ATOM     14  H   UNL     1      47.653   9.652  14.985  0.00  0.00    +0.000 HD
ENDBRANCH   6  10
BRANCH   1  15
ATOM     15  C   UNL     1      44.722   3.110  10.700  0.00  0.00    +0.000 C 
BRANCH  15  19
ATOM     16  C   UNL     1      46.837   2.668   7.433  0.00  0.00    +0.000 C 
ATOM     17  C   UNL     1      46.395   3.988   8.083  0.00  0.00    +0.000 C 
ATOM     18  C   UNL     1      44.885   4.037   8.303  0.00  0.00    +0.000 C 
ATOM     19  C   UNL     1      44.386   2.889   9.200  0.00  0.00    +0.000 C 
ATOM     20  C   UNL     1      44.888   1.533   8.668  0.00  0.00    +0.000 C 
ATOM     21  C   UNL     1      46.381   1.498   8.327  0.00  0.00    +0.000 C 
BRANCH  16  22
ATOM     22  C   UNL     1      46.341   2.493   5.979  0.00  0.00    +0.000 C 
BRANCH  22  23
ATOM     23  N   UNL     1      47.178   3.190   5.011  0.00  0.00    +0.000 NA
ATOM     24  H   UNL     1      47.225   4.182   5.249  0.00  0.00    +0.000 HD
ATOM     25  H   UNL     1      46.756   3.141   4.084  0.00  0.00    +0.000 HD
ENDBRANCH  22  23
ENDBRANCH  16  22
ENDBRANCH  15  19
ENDBRANCH   1  15
TORSDOF 5
ENDMDL
MODEL 3
REMARK VINA RESULT:    -5.925      4.402      6.228
REMARK INTER + INTRA:          -8.092
REMARK INTER:                  -7.669
REMARK INTRA:                  -0.423
REMARK UNBOUND:                -0.608
REMARK  Name = 
REMARK  5 active torsions:
REMARK  status: ('A' for Active; 'I' for Inactive)
REMARK    1  A    between atoms: N_1  and  C_2
REMARK    2  A    between atoms: C_2  and  C_3
REMARK    3  A    between atoms: C_6  and  C_7
REMARK    4  A    between atoms: C_7  and  N_8
REMARK    5  A    between atoms: C_13  and  C_14
REMARK                            x       y       z     vdW  Elec       q    Type
REMARK                         _______ _______ _______ _____ _____    ______ ____
ROOT
ATOM      1  N   UNL     1      47.396   5.314  14.637  0.00  0.00    +0.000 N 
ATOM      2  C   UNL     1      47.995   6.479  14.213  0.00  0.00    +0.000 A 
ATOM      3  C   UNL     1      47.413   6.849  13.021  0.00  0.00    +0.000 A 
ATOM      4  C   UNL     1      46.572   5.783  12.620  0.00  0.00    +0.000 A 
ATOM      5  C   UNL     1      45.785   5.535  11.482  0.00  0.00    +0.000 A 
ATOM      6  C   UNL     1      45.163   4.291  11.379  0.00  0.00    +0.000 A 
ATOM      7  C   UNL     1      45.294   3.400  12.444  0.00  0.00    +0.000 A 
ATOM      8  N   UNL     1      45.979   3.618  13.602  0.00  0.00    +0.000 NA
ATOM      9  C   UNL     1      46.608   4.813  13.620  0.00  0.00    +0.000 A 
ENDROOT
BRANCH   6  10
ATOM     10  C   UNL     1      44.407   3.875  10.175  0.00  0.00    +0.000 C 
ATOM     11  N   UNL     1      44.458   4.669   9.061  0.00  0.00    +0.000 N 
ATOM     12  O   UNL     1      43.758   2.833  10.158  0.00  0.00    +0.000 OA
ATOM     13  H   UNL     1      44.986   5.519   8.969  0.00  0.00    +0.000 HD
ATOM     14  H   UNL     1      43.960   4.338   8.240  0.00  0.00    +0.000 HD
ENDBRANCH   6  10
BRANCH   1  15
ATOM     15  C   UNL     1      47.534   4.760  15.979  0.00  0.00    +0.000 C 
BRANCH  15  19
ATOM     16  C   UNL     1      48.682   4.755  19.724  0.00  0.00    +0.000 C 
ATOM     17  C   UNL     1      47.684   5.716  19.058  0.00  0.00    +0.000 C 
ATOM     18  C   UNL     1      48.280   6.392  17.826  0.00  0.00    +0.000 C 
ATOM     19  C   UNL     1      48.728   5.376  16.759  0.00  0.00    +0.000 C 
ATOM     20  C   UNL     1      49.648   4.310  17.383  0.00  0.00    +0.000 C 
ATOM     21  C   UNL     1      49.124   3.704  18.688  0.00  0.00    +0.000 C 
BRANCH  16  22
ATOM     22  C   UNL     1      49.899   5.466  20.360  0.00  0.00    +0.000 C 
BRANCH  22  23
ATOM     23  N   UNL     1      50.900   4.530  20.858  0.00  0.00    +0.000 NA
ATOM     24  H   UNL     1      51.726   5.044  21.169  0.00  0.00    +0.000 HD
ATOM     25  H   UNL     1      51.213   3.919  20.104  0.00  0.00    +0.000 HD
ENDBRANCH  22  23
ENDBRANCH  16  22
ENDBRANCH  15  19
ENDBRANCH   1  15
TORSDOF 5
ENDMDL
MODEL 4
REMARK VINA RESULT:    -5.864      4.667      8.373
REMARK INTER + INTRA:          -8.015
REMARK INTER:                  -7.550
REMARK INTRA:                  -0.465
REMARK UNBOUND:                -0.608
REMARK  Name = 
REMARK  5 active torsions:
REMARK  status: ('A' for Active; 'I' for Inactive)
REMARK    1  A    between atoms: N_1  and  C_2
REMARK    2  A    between atoms: C_2  and  C_3
REMARK    3  A    between atoms: C_6  and  C_7
REMARK    4  A    between atoms: C_7  and  N_8
REMARK    5  A    between atoms: C_13  and  C_14
REMARK                            x       y       z     vdW  Elec       q    Type
REMARK                         _______ _______ _______ _____ _____    ______ ____
ROOT
ATOM      1  N   UNL     1      48.137   6.596  14.345  0.00  0.00    +0.000 N 
ATOM      2  C   UNL     1      48.563   7.895  14.516  0.00  0.00    +0.000 A 
ATOM      3  C   UNL     1      49.231   7.970  15.718  0.00  0.00    +0.000 A 
ATOM      4  C   UNL     1      49.045   6.731  16.376  0.00  0.00    +0.000 A 
ATOM      5  C   UNL     1      49.410   6.231  17.638  0.00  0.00    +0.000 A 
ATOM      6  C   UNL     1      48.944   4.967  17.998  0.00  0.00    +0.000 A 
ATOM      7  C   UNL     1      48.211   4.244  17.057  0.00  0.00    +0.000 A 
ATOM      8  N   UNL     1      47.894   4.648  15.794  0.00  0.00    +0.000 NA
ATOM      9  C   UNL     1      48.321   5.900  15.524  0.00  0.00    +0.000 A 
ENDROOT
BRANCH   6  10
ATOM     10  C   UNL     1      49.166   4.389  19.343  0.00  0.00    +0.000 C 
ATOM     11  N   UNL     1      48.447   3.284  19.710  0.00  0.00    +0.000 N 
ATOM     12  O   UNL     1      49.990   4.871  20.115  0.00  0.00    +0.000 OA
ATOM     13  H   UNL     1      47.779   2.800  19.137  0.00  0.00    +0.000 HD
ATOM     14  H   UNL     1      48.650   2.889  20.624  0.00  0.00    +0.000 HD
ENDBRANCH   6  10
BRANCH   1  15
ATOM     15  C   UNL     1      47.643   6.053  13.085  0.00  0.00    +0.000 C 
BRANCH  15  19
ATOM     16  C   UNL     1      44.973   4.316  10.806  0.00  0.00    +0.000 C 
ATOM     17  C   UNL     1      45.757   5.602  10.505  0.00  0.00    +0.000 C 
ATOM     18  C   UNL     1      45.608   6.635  11.620  0.00  0.00    +0.000 C 
ATOM     19  C   UNL     1      46.094   6.103  12.980  0.00  0.00    +0.000 C 
ATOM     20  C   UNL     1      45.428   4.751  13.299  0.00  0.00    +0.000 C 
ATOM     21  C   UNL     1      45.462   3.740  12.149  0.00  0.00    +0.000 C 
BRANCH  16  22
ATOM     22  C   UNL     1      43.438   4.507  10.801  0.00  0.00    +0.000 C 
BRANCH  22  23
ATOM     23  N   UNL     1      42.732   3.413  11.457  0.00  0.00    +0.000 NA
ATOM     24  H   UNL     1      43.004   2.526  11.032  0.00  0.00    +0.000 HD
ATOM     25  H   UNL     1      41.728   3.505  11.305  0.00  0.00    +0.000 HD
ENDBRANCH  22  23
ENDBRANCH  16  22
ENDBRANCH  15  19
ENDBRANCH   1  15
TORSDOF 5
ENDMDL
MODEL 5
REMARK VINA RESULT:    -5.716      5.812      8.268
REMARK INTER + INTRA:          -7.828
REMARK INTER:                  -7.300
REMARK INTRA:                  -0.529
REMARK UNBOUND:                -0.608
REMARK  Name = 
REMARK  5 active torsions:
REMARK  status: ('A' for Active; 'I' for Inactive)
REMARK    1  A    between atoms: N_1  and  C_2
REMARK    2  A    between atoms: C_2  and  C_3
REMARK    3  A    between atoms: C_6  and  C_7
REMARK    4  A    between atoms: C_7  and  N_8
REMARK    5  A    between atoms: C_13  and  C_14
REMARK                            x       y       z     vdW  Elec       q    Type
REMARK                         _______ _______ _______ _____ _____    ______ ____
ROOT
ATOM      1  N   UNL     1      47.915   4.569  16.465  0.00  0.00    +0.000 N 
ATOM      2  C   UNL     1      48.171   5.705  17.201  0.00  0.00    +0.000 A 
ATOM      3  C   UNL     1      49.446   5.604  17.711  0.00  0.00    +0.000 A 
ATOM      4  C   UNL     1      49.904   4.294  17.431  0.00  0.00    +0.000 A 
ATOM      5  C   UNL     1      51.070   3.578  17.753  0.00  0.00    +0.000 A 
ATOM      6  C   UNL     1      51.127   2.232  17.394  0.00  0.00    +0.000 A 
ATOM      7  C   UNL     1      50.061   1.699  16.670  0.00  0.00    +0.000 A 
ATOM      8  N   UNL     1      48.943   2.366  16.265  0.00  0.00    +0.000 NA
ATOM      9  C   UNL     1      48.917   3.647  16.692  0.00  0.00    +0.000 A 
ENDROOT
BRANCH   6  10
ATOM     10  C   UNL     1      52.252   1.351  17.783  0.00  0.00    +0.000 C 
ATOM     11  N   UNL     1      51.973   0.091  18.241  0.00  0.00    +0.000 N 
ATOM     12  O   UNL     1      53.418   1.725  17.684  0.00  0.00    +0.000 OA
ATOM     13  H   UNL     1      51.057  -0.314  18.324  0.00  0.00    +0.000 HD
ATOM     14  H   UNL     1      52.767  -0.501  18.463  0.00  0.00    +0.000 HD
ENDBRANCH   6  10
BRANCH   1  15
ATOM     15  C   UNL     1      46.793   4.422  15.545  0.00  0.00    +0.000 C 
BRANCH  15  19
ATOM     16  C   UNL     1      45.331   5.981  12.263  0.00  0.00    +0.000 C 
ATOM     17  C   UNL     1      44.978   4.620  12.883  0.00  0.00    +0.000 C 
ATOM     18  C   UNL     1      46.220   3.765  13.123  0.00  0.00    +0.000 C 
ATOM     19  C   UNL     1      47.234   4.451  14.056  0.00  0.00    +0.000 C 
ATOM     20  C   UNL     1      47.552   5.872  13.554  0.00  0.00    +0.000 C 
ATOM     21  C   UNL     1      46.320   6.709  13.193  0.00  0.00    +0.000 C 
BRANCH  16  22
ATOM     22  C   UNL     1      45.881   5.884  10.821  0.00  0.00    +0.000 C 
BRANCH  22  23
ATOM     23  N   UNL     1      44.966   5.201   9.914  0.00  0.00    +0.000 NA
ATOM     24  H   UNL     1      45.050   5.598   8.978  0.00  0.00    +0.000 HD
ATOM     25  H   UNL     1      44.002   5.361  10.205  0.00  0.00    +0.000 HD
ENDBRANCH  22  23
ENDBRANCH  16  22
ENDBRANCH  15  19
ENDBRANCH   1  15
TORSDOF 5
ENDMDL
MODEL 6
REMARK VINA RESULT:    -5.693      4.181      6.491
REMARK INTER + INTRA:          -7.799
REMARK INTER:                  -7.292
REMARK INTRA:                  -0.507
REMARK UNBOUND:                -0.608
REMARK  Name = 
REMARK  5 active torsions:
REMARK  status: ('A' for Active; 'I' for Inactive)
REMARK    1  A    between atoms: N_1  and  C_2
REMARK    2  A    between atoms: C_2  and  C_3
REMARK    3  A    between atoms: C_6  and  C_7
REMARK    4  A    between atoms: C_7  and  N_8
REMARK    5  A    between atoms: C_13  and  C_14
REMARK                            x       y       z     vdW  Elec       q    Type
REMARK                         _______ _______ _______ _____ _____    ______ ____
ROOT
ATOM      1  N   UNL     1      48.211   6.686  14.392  0.00  0.00    +0.000 N 
ATOM      2  C   UNL     1      47.865   7.907  13.858  0.00  0.00    +0.000 A 
ATOM      3  C   UNL     1      46.700   7.745  13.142  0.00  0.00    +0.000 A 
ATOM      4  C   UNL     1      46.434   6.356  13.087  0.00  0.00    +0.000 A 
ATOM      5  C   UNL     1      45.455   5.573  12.453  0.00  0.00    +0.000 A 
ATOM      6  C   UNL     1      45.577   4.186  12.532  0.00  0.00    +0.000 A 
ATOM      7  C   UNL     1      46.616   3.661  13.299  0.00  0.00    +0.000 A 
ATOM      8  N   UNL     1      47.547   4.372  13.997  0.00  0.00    +0.000 NA
ATOM      9  C   UNL     1      47.414   5.706  13.835  0.00  0.00    +0.000 A 
ENDROOT
BRANCH   6  10
ATOM     10  C   UNL     1      44.673   3.264  11.807  0.00  0.00    +0.000 C 
ATOM     11  N   UNL     1      43.800   2.497  12.529  0.00  0.00    +0.000 N 
ATOM     12  O   UNL     1      44.685   3.193  10.580  0.00  0.00    +0.000 OA
ATOM     13  H   UNL     1      43.694   2.510  13.528  0.00  0.00    +0.000 HD
ATOM     14  H   UNL     1      43.168   1.902  12.001  0.00  0.00    +0.000 HD
ENDBRANCH   6  10
BRANCH   1  15
ATOM     15  C   UNL     1      49.216   6.499  15.432  0.00  0.00    +0.000 C 
BRANCH  15  19
ATOM     16  C   UNL     1      49.960   4.675  18.817  0.00  0.00    +0.000 C 
ATOM     17  C   UNL     1      49.059   4.183  17.674  0.00  0.00    +0.000 C 
ATOM     18  C   UNL     1      47.997   5.215  17.301  0.00  0.00    +0.000 C 
ATOM     19  C   UNL     1      48.612   6.556  16.862  0.00  0.00    +0.000 C 
ATOM     20  C   UNL     1      49.617   7.058  17.916  0.00  0.00    +0.000 C 
ATOM     21  C   UNL     1      50.618   6.002  18.393  0.00  0.00    +0.000 C 
BRANCH  16  22
ATOM     22  C   UNL     1      49.226   4.817  20.171  0.00  0.00    +0.000 C 
BRANCH  22  23
ATOM     23  N   UNL     1      48.466   3.624  20.527  0.00  0.00    +0.000 NA
ATOM     24  H   UNL     1      48.178   3.681  21.504  0.00  0.00    +0.000 HD
ATOM     25  H   UNL     1      49.058   2.798  20.453  0.00  0.00    +0.000 HD
ENDBRANCH  22  23
ENDBRANCH  16  22
ENDBRANCH  15  19
ENDBRANCH   1  15
TORSDOF 5
ENDMDL
MODEL 7
REMARK VINA RESULT:    -5.691      2.079      2.778
REMARK INTER + INTRA:          -7.796
REMARK INTER:                  -8.955
REMARK INTRA:                   1.159
REMARK UNBOUND:                -0.608
REMARK  Name = 
REMARK  5 active torsions:
REMARK  status: ('A' for Active; 'I' for Inactive)
REMARK    1  A    between atoms: N_1  and  C_2
REMARK    2  A    between atoms: C_2  and  C_3
REMARK    3  A    between atoms: C_6  and  C_7
REMARK    4  A    between atoms: C_7  and  N_8
REMARK    5  A    between atoms: C_13  and  C_14
REMARK                            x       y       z     vdW  Elec       q    Type
REMARK                         _______ _______ _______ _____ _____    ______ ____
ROOT
ATOM      1  N   UNL     1      44.403   4.624  10.275  0.00  0.00    +0.000 N 
ATOM      2  C   UNL     1      45.056   5.828  10.133  0.00  0.00    +0.000 A 
ATOM      3  C   UNL     1      45.913   5.725   9.061  0.00  0.00    +0.000 A 
ATOM      4  C   UNL     1      45.917   4.367   8.660  0.00  0.00    +0.000 A 
ATOM      5  C   UNL     1      46.630   3.636   7.694  0.00  0.00    +0.000 A 
ATOM      6  C   UNL     1      46.448   2.254   7.659  0.00  0.00    +0.000 A 
ATOM      7  C   UNL     1      45.513   1.691   8.527  0.00  0.00    +0.000 A 
ATOM      8  N   UNL     1      44.739   2.360   9.428  0.00  0.00    +0.000 NA
ATOM      9  C   UNL     1      45.002   3.685   9.459  0.00  0.00    +0.000 A 
ENDROOT
BRANCH   6  10
ATOM     10  C   UNL     1      47.231   1.370   6.765  0.00  0.00    +0.000 C 
ATOM     11  N   UNL     1      48.222   1.922   5.998  0.00  0.00    +0.000 N 
ATOM     12  O   UNL     1      47.018   0.161   6.718  0.00  0.00    +0.000 OA
ATOM     13  H   UNL     1      48.491   2.889   5.994  0.00  0.00    +0.000 HD
ATOM     14  H   UNL     1      48.765   1.283   5.424  0.00  0.00    +0.000 HD
ENDBRANCH   6  10
BRANCH   1  15
ATOM     15  C   UNL     1      43.224   4.421  11.110  0.00  0.00    +0.000 C 
BRANCH  15  19
ATOM     16  C   UNL     1      46.519   4.669  13.213  0.00  0.00    +0.000 C 
ATOM     17  C   UNL     1      45.992   3.443  12.452  0.00  0.00    +0.000 C 
ATOM     18  C   UNL     1      44.563   3.091  12.861  0.00  0.00    +0.000 C 
ATOM     19  C   UNL     1      43.580   4.249  12.612  0.00  0.00    +0.000 C 
ATOM     20  C   UNL     1      44.103   5.547  13.256  0.00  0.00    +0.000 C 
ATOM     21  C   UNL     1      45.573   5.857  12.956  0.00  0.00    +0.000 C 
BRANCH  16  22
ATOM     22  C   UNL     1      46.718   4.424  14.727  0.00  0.00    +0.000 C 
BRANCH  22  23
ATOM     23  N   UNL     1      47.530   3.246  15.005  0.00  0.00    +0.000 NA
ATOM     24  H   UNL     1      48.444   3.347  14.562  0.00  0.00    +0.000 HD
ATOM     25  H   UNL     1      47.102   2.420  14.587  0.00  0.00    +0.000 HD
ENDBRANCH  22  23
ENDBRANCH  16  22
ENDBRANCH  15  19
ENDBRANCH   1  15
TORSDOF 5
ENDMDL
MODEL 8
REMARK VINA RESULT:    -5.318      3.610      5.883
REMARK INTER + INTRA:          -7.325
REMARK INTER:                  -6.868
REMARK INTRA:                  -0.457
REMARK UNBOUND:                -0.608
REMARK  Name = 
REMARK  5 active torsions:
REMARK  status: ('A' for Active; 'I' for Inactive)
REMARK    1  A    between atoms: N_1  and  C_2
REMARK    2  A    between atoms: C_2  and  C_3
REMARK    3  A    between atoms: C_6  and  C_7
REMARK    4  A    between atoms: C_7  and  N_8
REMARK    5  A    between atoms: C_13  and  C_14
REMARK                            x       y       z     vdW  Elec       q    Type
REMARK                         _______ _______ _______ _____ _____    ______ ____
ROOT
ATOM      1  N   UNL     1      47.943   6.310  13.752  0.00  0.00    +0.000 N 
ATOM      2  C   UNL     1      48.580   7.184  12.899  0.00  0.00    +0.000 A 
ATOM      3  C   UNL     1      47.812   7.306  11.762  0.00  0.00    +0.000 A 
ATOM      4  C   UNL     1      46.781   6.340  11.851  0.00  0.00    +0.000 A 
ATOM      5  C   UNL     1      45.750   5.931  10.988  0.00  0.00    +0.000 A 
ATOM      6  C   UNL     1      44.972   4.840  11.375  0.00  0.00    +0.000 A 
ATOM      7  C   UNL     1      45.211   4.272  12.625  0.00  0.00    +0.000 A 
ATOM      8  N   UNL     1      46.144   4.676  13.533  0.00  0.00    +0.000 NA
ATOM      9  C   UNL     1      46.905   5.696  13.080  0.00  0.00    +0.000 A 
ENDROOT
BRANCH   6  10
ATOM     10  C   UNL     1      43.936   4.249  10.496  0.00  0.00    +0.000 C 
ATOM     11  N   UNL     1      43.971   4.531   9.157  0.00  0.00    +0.000 N 
ATOM     12  O   UNL     1      43.068   3.504  10.946  0.00  0.00    +0.000 OA
ATOM     13  H   UNL     1      44.658   5.099   8.694  0.00  0.00    +0.000 HD
ATOM     14  H   UNL     1      43.269   4.081   8.577  0.00  0.00    +0.000 HD
ENDBRANCH   6  10
BRANCH   1  15
ATOM     15  C   UNL     1      48.290   6.136  15.158  0.00  0.00    +0.000 C 
BRANCH  15  19
ATOM     16  C   UNL     1      49.764   7.128  18.648  0.00  0.00    +0.000 C 
ATOM     17  C   UNL     1      48.470   7.650  18.003  0.00  0.00    +0.000 C 
ATOM     18  C   UNL     1      48.719   8.219  16.608  0.00  0.00    +0.000 C 
ATOM     19  C   UNL     1      49.329   7.180  15.650  0.00  0.00    +0.000 C 
ATOM     20  C   UNL     1      50.575   6.530  16.283  0.00  0.00    +0.000 C 
ATOM     21  C   UNL     1      50.382   6.059  17.727  0.00  0.00    +0.000 C 
BRANCH  16  22
ATOM     22  C   UNL     1      50.784   8.241  18.983  0.00  0.00    +0.000 C 
BRANCH  22  23
ATOM     23  N   UNL     1      51.904   7.757  19.781  0.00  0.00    +0.000 NA
ATOM     24  H   UNL     1      52.672   8.427  19.737  0.00  0.00    +0.000 HD
ATOM     25  H   UNL     1      52.263   6.887  19.388  0.00  0.00    +0.000 HD
ENDBRANCH  22  23
ENDBRANCH  16  22
ENDBRANCH  15  19
ENDBRANCH   1  15
TORSDOF 5
ENDMDL
MODEL 9
REMARK VINA RESULT:    -5.265      3.226      4.986
REMARK INTER + INTRA:          -7.258
REMARK INTER:                  -6.715
REMARK INTRA:                  -0.543
REMARK UNBOUND:                -0.608
REMARK  Name = 
REMARK  5 active torsions:
REMARK  status: ('A' for Active; 'I' for Inactive)
REMARK    1  A    between atoms: N_1  and  C_2
REMARK    2  A    between atoms: C_2  and  C_3
REMARK    3  A    between atoms: C_6  and  C_7
REMARK    4  A    between atoms: C_7  and  N_8
REMARK    5  A    between atoms: C_13  and  C_14
REMARK                            x       y       z     vdW  Elec       q    Type
REMARK                         _______ _______ _______ _____ _____    ______ ____
ROOT
ATOM      1  N   UNL     1      47.076   6.755  13.457  0.00  0.00    +0.000 N 
ATOM      2  C   UNL     1      47.590   6.068  14.535  0.00  0.00    +0.000 A 
ATOM      3  C   UNL     1      47.296   4.733  14.369  0.00  0.00    +0.000 A 
ATOM      4  C   UNL     1      46.423   4.633  13.259  0.00  0.00    +0.000 A 
ATOM      5  C   UNL     1      45.730   3.570  12.654  0.00  0.00    +0.000 A 
ATOM      6  C   UNL     1      44.847   3.874  11.618  0.00  0.00    +0.000 A 
ATOM      7  C   UNL     1      44.763   5.200  11.194  0.00  0.00    +0.000 A 
ATOM      8  N   UNL     1      45.467   6.256  11.692  0.00  0.00    +0.000 NA
ATOM      9  C   UNL     1      46.260   5.911  12.730  0.00  0.00    +0.000 A 
ENDROOT
BRANCH   6  10
ATOM     10  C   UNL     1      43.979   2.854  10.987  0.00  0.00    +0.000 C 
ATOM     11  N   UNL     1      44.391   2.274   9.817  0.00  0.00    +0.000 N 
ATOM     12  O   UNL     1      42.917   2.515  11.501  0.00  0.00    +0.000 OA
ATOM     13  H   UNL     1      45.255   2.461   9.341  0.00  0.00    +0.000 HD
ATOM     14  H   UNL     1      43.791   1.551   9.429  0.00  0.00    +0.000 HD
ENDBRANCH   6  10
BRANCH   1  15
ATOM     15  C   UNL     1      47.415   8.133  13.124  0.00  0.00    +0.000 C 
BRANCH  15  19
ATOM     16  C   UNL     1      50.907   9.700  12.292  0.00  0.00    +0.000 C 
ATOM     17  C   UNL     1      49.545  10.411  12.294  0.00  0.00    +0.000 C 
ATOM     18  C   UNL     1      48.528   9.697  11.408  0.00  0.00    +0.000 C 
ATOM     19  C   UNL     1      48.290   8.240  11.845  0.00  0.00    +0.000 C 
ATOM     20  C   UNL     1      49.630   7.491  11.973  0.00  0.00    +0.000 C 
ATOM     21  C   UNL     1      50.707   8.245  12.758  0.00  0.00    +0.000 C 
BRANCH  16  22
ATOM     22  C   UNL     1      51.637   9.759  10.929  0.00  0.00    +0.000 C 
BRANCH  22  23
ATOM     23  N   UNL     1      52.780   8.855  10.864  0.00  0.00    +0.000 NA
ATOM     24  H   UNL     1      52.636   8.174  10.117  0.00  0.00    +0.000 HD
ATOM     25  H   UNL     1      52.851   8.318  11.727  0.00  0.00    +0.000 HD
ENDBRANCH  22  23
ENDBRANCH  16  22
ENDBRANCH  15  19
ENDBRANCH   1  15
TORSDOF 5
ENDMDL
