MODEL 1
REMARK VINA RESULT:    -6.679      0.000      0.000
REMARK INTER + INTRA:          -8.308
REMARK INTER:                  -7.851
REMARK INTRA:                  -0.458
REMARK UNBOUND:                -0.458
REMARK  Name = 
REMARK  3 active torsions:
REMARK  status: ('A' for Active; 'I' for Inactive)
REMARK    1  A    between atoms: C_2  and  C_4
REMARK    2  A    between atoms: N_8  and  C_9
REMARK    3  A    between atoms: C_9  and  C_10
REMARK                            x       y       z     vdW  Elec       q    Type
REMARK                         _______ _______ _______ _____ _____    ______ ____
ROOT
ATOM      1  C   UNL     1      46.284   3.143   7.781  0.00  0.00    +0.000 A 
ATOM      2  C   UNL     1      45.637   2.113   8.451  0.00  0.00    +0.000 A 
ATOM      3  C   UNL     1      44.967   2.401   9.639  0.00  0.00    +0.000 A 
ATOM      4  C   UNL     1      44.945   3.704  10.133  0.00  0.00    +0.000 A 
ATOM      5  N   UNL     1      44.175   3.921  11.295  0.00  0.00    +0.000 N 
ATOM      6  N   UNL     1      45.589   4.708   9.501  0.00  0.00    +0.000 NA
ATOM      7  C   UNL     1      46.259   4.407   8.357  0.00  0.00    +0.000 A 
ATOM      8  H   UNL     1      44.412   3.229  11.994  0.00  0.00    +0.000 HD
ENDROOT
BRANCH   1  10
ATOM      9  N   UNL     1      48.340   2.779   6.548  0.00  0.00    +0.000 N 
ATOM     10  C   UNL     1      46.983   2.939   6.497  0.00  0.00    +0.000 C 
ATOM     11  O   UNL     1      46.373   2.875   5.438  0.00  0.00    +0.000 OA
ATOM     12  H   UNL     1      48.793   2.525   5.679  0.00  0.00    +0.000 HD
ATOM     13  H   UNL     1      48.827   2.564   7.408  0.00  0.00    +0.000 HD
ENDBRANCH   1  10
BRANCH   5  14
ATOM     14  C   UNL     1      43.766   5.256  11.772  0.00  0.00    +0.000 C 
ATOM     15  C   UNL     1      42.251   5.441  11.781  0.00  0.00    +0.000 C 
ATOM     16  C   UNL     1      43.085   6.244  10.839  0.00  0.00    +0.000 C 
BRANCH  14  17
ATOM     17  C   UNL     1      44.557   5.878  12.940  0.00  0.00    +0.000 C 
ATOM     18  C   UNL     1      45.333   7.137  12.541  0.00  0.00    +0.000 C 
ATOM     19  C   UNL     1      46.695   6.835  11.921  0.00  0.00    +0.000 C 
ATOM     20  N   UNL     1      47.512   5.968  12.772  0.00  0.00    +0.000 NA
ATOM     21  C   UNL     1      46.843   4.703  13.062  0.00  0.00    +0.000 C 
ATOM     22  C   UNL     1      45.463   4.888  13.687  0.00  0.00    +0.000 C 
ATOM     23  H   UNL     1      47.697   6.456  13.648  0.00  0.00    +0.000 HD
ENDBRANCH  14  17
ENDBRANCH   5  14
TORSDOF 3
ENDMDL
MODEL 2
REMARK VINA RESULT:    -5.345      2.250      3.442
REMARK INTER + INTRA:          -6.741
REMARK INTER:                  -6.282
REMARK INTRA:                  -0.459
REMARK UNBOUND:                -0.458
REMARK  Name = 
REMARK  3 active torsions:
REMARK  status: ('A' for Active; 'I' for Inactive)
REMARK    1  A    between atoms: C_2  and  C_4
REMARK    2  A    between atoms: N_8  and  C_9
REMARK    3  A    between atoms: C_9  and  C_10
REMARK                            x       y       z     vdW  Elec       q    Type
REMARK                         _______ _______ _______ _____ _____    ______ ____
ROOT
ATOM      1  C   UNL     1      44.739   4.129  10.083  0.00  0.00    +0.000 A 
ATOM      2  C   UNL     1      43.966   4.138  11.236  0.00  0.00    +0.000 A 
ATOM      3  C   UNL     1      44.134   5.178  12.149  0.00  0.00    +0.000 A 
ATOM      4  C   UNL     1      45.058   6.191  11.895  0.00  0.00    +0.000 A 
ATOM      5  N   UNL     1      45.104   7.246  12.830  0.00  0.00    +0.000 N 
ATOM      6  N   UNL     1      45.829   6.179  10.788  0.00  0.00    +0.000 NA
ATOM      7  C   UNL     1      45.671   5.145   9.919  0.00  0.00    +0.000 A 
ATOM      8  H   UNL     1      45.167   6.868  13.767  0.00  0.00    +0.000 HD
ENDROOT
BRANCH   1  10
ATOM      9  N   UNL     1      44.477   1.797   9.470  0.00  0.00    +0.000 N 
ATOM     10  C   UNL     1      44.599   3.090   9.043  0.00  0.00    +0.000 C 
ATOM     11  O   UNL     1      44.553   3.376   7.854  0.00  0.00    +0.000 OA
ATOM     12  H   UNL     1      44.267   1.109   8.758  0.00  0.00    +0.000 HD
ATOM     13  H   UNL     1      44.248   1.563  10.426  0.00  0.00    +0.000 HD
ENDBRANCH   1  10
BRANCH   5  14
ATOM     14  C   UNL     1      45.761   8.542  12.575  0.00  0.00    +0.000 C 
ATOM     15  C   UNL     1      44.782   9.712  12.583  0.00  0.00    +0.000 C 
ATOM     16  C   UNL     1      45.464   9.332  11.311  0.00  0.00    +0.000 C 
BRANCH  14  17
ATOM     17  C   UNL     1      47.149   8.781  13.201  0.00  0.00    +0.000 C 
ATOM     18  C   UNL     1      48.269   8.896  12.161  0.00  0.00    +0.000 C 
ATOM     19  C   UNL     1      48.822   7.544  11.719  0.00  0.00    +0.000 C 
ATOM     20  N   UNL     1      49.246   6.720  12.852  0.00  0.00    +0.000 NA
ATOM     21  C   UNL     1      48.156   6.490  13.797  0.00  0.00    +0.000 C 
ATOM     22  C   UNL     1      47.526   7.783  14.306  0.00  0.00    +0.000 C 
ATOM     23  H   UNL     1      50.007   7.199  13.333  0.00  0.00    +0.000 HD
ENDBRANCH  14  17
ENDBRANCH   5  14
TORSDOF 3
ENDMDL
MODEL 3
REMARK VINA RESULT:    -5.030      3.978      6.166
REMARK INTER + INTRA:          -6.369
REMARK INTER:                  -5.920
REMARK INTRA:                  -0.449
REMARK UNBOUND:                -0.458
REMARK  Name = 
REMARK  3 active torsions:
REMARK  status: ('A' for Active; 'I' for Inactive)
REMARK    1  A    between atoms: C_2  and  C_4
REMARK    2  A    between atoms: N_8  and  C_9
REMARK    3  A    between atoms: C_9  and  C_10
REMARK                            x       y       z     vdW  Elec       q    Type
REMARK                         _______ _______ _______ _____ _____    ______ ____
ROOT
ATOM      1  C   UNL     1      45.370   5.175  12.947  0.00  0.00    +0.000 A 
ATOM      2  C   UNL     1      44.775   6.393  12.647  0.00  0.00    +0.000 A 
ATOM      3  C   UNL     1      45.567   7.540  12.630  0.00  0.00    +0.000 A 
ATOM      4  C   UNL     1      46.932   7.454  12.901  0.00  0.00    +0.000 A 
ATOM      5  N   UNL     1      47.672   8.649  12.780  0.00  0.00    +0.000 N 
ATOM      6  N   UNL     1      47.515   6.277  13.214  0.00  0.00    +0.000 NA
ATOM      7  C   UNL     1      46.724   5.171  13.252  0.00  0.00    +0.000 A 
ATOM      8  H   UNL     1      47.207   9.390  13.288  0.00  0.00    +0.000 HD
ENDROOT
BRANCH   1  10
ATOM      9  N   UNL     1      45.274   2.794  12.494  0.00  0.00    +0.000 N 
ATOM     10  C   UNL     1      44.617   3.904  12.948  0.00  0.00    +0.000 C 
ATOM     11  O   UNL     1      43.472   3.838  13.372  0.00  0.00    +0.000 OA
ATOM     12  H   UNL     1      44.791   1.911  12.605  0.00  0.00    +0.000 HD
ATOM     13  H   UNL     1      46.279   2.765  12.391  0.00  0.00    +0.000 HD
ENDBRANCH   1  10
BRANCH   5  14
ATOM     14  C   UNL     1      49.145   8.699  12.703  0.00  0.00    +0.000 C 
ATOM     15  C   UNL     1      49.648   9.250  11.373  0.00  0.00    +0.000 C 
ATOM     16  C   UNL     1      49.906   7.823  11.722  0.00  0.00    +0.000 C 
BRANCH  14  17
ATOM     17  C   UNL     1      49.919   9.107  13.972  0.00  0.00    +0.000 C 
ATOM     18  C   UNL     1      50.710   7.953  14.596  0.00  0.00    +0.000 C 
ATOM     19  C   UNL     1      49.869   7.077  15.521  0.00  0.00    +0.000 C 
ATOM     20  N   UNL     1      49.186   7.858  16.555  0.00  0.00    +0.000 NA
ATOM     21  C   UNL     1      48.324   8.887  15.980  0.00  0.00    +0.000 C 
ATOM     22  C   UNL     1      49.066   9.824  15.030  0.00  0.00    +0.000 C 
ATOM     23  H   UNL     1      49.890   8.304  17.142  0.00  0.00    +0.000 HD
ENDBRANCH  14  17
ENDBRANCH   5  14
TORSDOF 3
ENDMDL
MODEL 4
REMARK VINA RESULT:    -4.965      3.120      4.970
REMARK INTER + INTRA:          -6.294
REMARK INTER:                  -6.607
REMARK INTRA:                   0.313
REMARK UNBOUND:                -0.458
REMARK  Name = 
REMARK  3 active torsions:
REMARK  status: ('A' for Active; 'I' for Inactive)
REMARK    1  A    between atoms: C_2  and  C_4
REMARK    2  A    between atoms: N_8  and  C_9
REMARK    3  A    between atoms: C_9  and  C_10
REMARK                            x       y       z     vdW  Elec       q    Type
REMARK                         _______ _______ _______ _____ _____    ______ ____
ROOT
ATOM      1  C   UNL     1      44.969   3.715  11.531  0.00  0.00    +0.000 A 
ATOM      2  C   UNL     1      45.607   3.423  12.730  0.00  0.00    +0.000 A 
ATOM      3  C   UNL     1      46.465   4.373  13.282  0.00  0.00    +0.000 A 
ATOM      4  C   UNL     1      46.665   5.594  12.640  0.00  0.00    +0.000 A 
ATOM      5  N   UNL     1      47.484   6.527  13.309  0.00  0.00    +0.000 N 
ATOM      6  N   UNL     1      46.067   5.878  11.464  0.00  0.00    +0.000 NA
ATOM      7  C   UNL     1      45.252   4.931  10.925  0.00  0.00    +0.000 A 
ATOM      8  H   UNL     1      48.343   6.080  13.601  0.00  0.00    +0.000 HD
ENDROOT
BRANCH   1  10
ATOM      9  N   UNL     1      44.426   2.156   9.755  0.00  0.00    +0.000 N 
ATOM     10  C   UNL     1      44.013   2.786  10.896  0.00  0.00    +0.000 C 
ATOM     11  O   UNL     1      42.915   2.560  11.388  0.00  0.00    +0.000 OA
ATOM     12  H   UNL     1      43.811   1.438   9.392  0.00  0.00    +0.000 HD
ATOM     13  H   UNL     1      45.398   2.118   9.480  0.00  0.00    +0.000 HD
ENDBRANCH   1  10
BRANCH   5  14
ATOM     14  C   UNL     1      47.548   7.961  12.964  0.00  0.00    +0.000 C 
ATOM     15  C   UNL     1      47.535   8.866  14.192  0.00  0.00    +0.000 C 
ATOM     16  C   UNL     1      46.378   8.886  13.250  0.00  0.00    +0.000 C 
BRANCH  14  17
ATOM     17  C   UNL     1      48.457   8.378  11.791  0.00  0.00    +0.000 C 
ATOM     18  C   UNL     1      49.811   7.660  11.791  0.00  0.00    +0.000 C 
ATOM     19  C   UNL     1      50.848   8.327  12.691  0.00  0.00    +0.000 C 
ATOM     20  N   UNL     1      51.014   9.750  12.387  0.00  0.00    +0.000 NA
ATOM     21  C   UNL     1      49.756  10.482  12.505  0.00  0.00    +0.000 C 
ATOM     22  C   UNL     1      48.641   9.896  11.643  0.00  0.00    +0.000 C 
ATOM     23  H   UNL     1      51.361   9.838  11.432  0.00  0.00    +0.000 HD
ENDBRANCH  14  17
ENDBRANCH   5  14
TORSDOF 3
ENDMDL
MODEL 5
REMARK VINA RESULT:    -4.823      5.298      7.899
REMARK INTER + INTRA:          -6.126
REMARK INTER:                  -5.728
REMARK INTRA:                  -0.398
REMARK UNBOUND:                -0.458
REMARK  Name = 
REMARK  3 active torsions:
REMARK  status: ('A' for Active; 'I' for Inactive)
REMARK    1  A    between atoms: C_2  and  C_4
REMARK    2  A    between atoms: N_8  and  C_9
REMARK    3  A    between atoms: C_9  and  C_10
REMARK                            x       y       z     vdW  Elec       q    Type
REMARK                         _______ _______ _______ _____ _____    ______ ____
ROOT
ATOM      1  C   UNL     1      46.782   4.919  14.080  0.00  0.00    +0.000 A 
ATOM      2  C   UNL     1      47.414   6.095  13.699  0.00  0.00    +0.000 A 
ATOM      3  C   UNL     1      48.394   6.631  14.533  0.00  0.00    +0.000 A 
ATOM      4  C   UNL     1      48.733   5.985  15.721  0.00  0.00    +0.000 A 
ATOM      5  N   UNL     1      49.791   6.551  16.462  0.00  0.00    +0.000 N 
ATOM      6  N   UNL     1      48.109   4.853  16.110  0.00  0.00    +0.000 NA
ATOM      7  C   UNL     1      47.138   4.357  15.299  0.00  0.00    +0.000 A 
ATOM      8  H   UNL     1      49.636   7.544  16.574  0.00  0.00    +0.000 HD
ENDROOT
BRANCH   1  10
ATOM      9  N   UNL     1      45.955   2.935  12.956  0.00  0.00    +0.000 N 
ATOM     10  C   UNL     1      45.763   4.259  13.240  0.00  0.00    +0.000 C 
ATOM     11  O   UNL     1      44.769   4.856  12.849  0.00  0.00    +0.000 OA
ATOM     12  H   UNL     1      45.197   2.465  12.479  0.00  0.00    +0.000 HD
ATOM     13  H   UNL     1      46.608   2.361  13.472  0.00  0.00    +0.000 HD
ENDBRANCH   1  10
BRANCH   5  14
ATOM     14  C   UNL     1      50.502   5.848  17.549  0.00  0.00    +0.000 C 
ATOM     15  C   UNL     1      51.976   5.612  17.235  0.00  0.00    +0.000 C 
ATOM     16  C   UNL     1      51.051   4.446  17.344  0.00  0.00    +0.000 C 
BRANCH  14  17
ATOM     17  C   UNL     1      50.142   6.218  19.001  0.00  0.00    +0.000 C 
ATOM     18  C   UNL     1      49.839   4.998  19.878  0.00  0.00    +0.000 C 
ATOM     19  C   UNL     1      48.396   4.514  19.758  0.00  0.00    +0.000 C 
ATOM     20  N   UNL     1      47.429   5.585  20.005  0.00  0.00    +0.000 NA
ATOM     21  C   UNL     1      47.618   6.710  19.093  0.00  0.00    +0.000 C 
ATOM     22  C   UNL     1      49.035   7.275  19.130  0.00  0.00    +0.000 C 
ATOM     23  H   UNL     1      47.545   5.911  20.964  0.00  0.00    +0.000 HD
ENDBRANCH  14  17
ENDBRANCH   5  14
TORSDOF 3
ENDMDL
MODEL 6
REMARK VINA RESULT:    -4.817      3.173      5.396
REMARK INTER + INTRA:          -6.119
REMARK INTER:                  -6.401
REMARK INTRA:                   0.282
REMARK UNBOUND:                -0.458
REMARK  Name = 
REMARK  3 active torsions:
REMARK  status: ('A' for Active; 'I' for Inactive)
REMARK    1  A    between atoms: C_2  and  C_4
REMARK    2  A    between atoms: N_8  and  C_9
REMARK    3  A    between atoms: C_9  and  C_10
REMARK                            x       y       z     vdW  Elec       q    Type
REMARK                         _______ _______ _______ _____ _____    ______ ____
ROOT
ATOM      1  C   UNL     1      44.576   5.171  11.395  0.00  0.00    +0.000 A 
ATOM      2  C   UNL     1      44.249   6.512  11.541  0.00  0.00    +0.000 A 
ATOM      3  C   UNL     1      45.049   7.313  12.354  0.00  0.00    +0.000 A 
ATOM      4  C   UNL     1      46.160   6.770  12.998  0.00  0.00    +0.000 A 
ATOM      5  N   UNL     1      46.960   7.670  13.733  0.00  0.00    +0.000 N 
ATOM      6  N   UNL     1      46.474   5.463  12.879  0.00  0.00    +0.000 NA
ATOM      7  C   UNL     1      45.669   4.689  12.103  0.00  0.00    +0.000 A 
ATOM      8  H   UNL     1      46.374   8.227  14.342  0.00  0.00    +0.000 HD
ENDROOT
BRANCH   1  10
ATOM      9  N   UNL     1      43.897   4.471   9.175  0.00  0.00    +0.000 N 
ATOM     10  C   UNL     1      43.810   4.258  10.522  0.00  0.00    +0.000 C 
ATOM     11  O   UNL     1      43.160   3.328  10.980  0.00  0.00    +0.000 OA
ATOM     12  H   UNL     1      43.463   3.774   8.582  0.00  0.00    +0.000 HD
ATOM     13  H   UNL     1      44.619   5.048   8.763  0.00  0.00    +0.000 HD
ENDBRANCH   1  10
BRANCH   5  14
ATOM     14  C   UNL     1      48.326   7.362  14.200  0.00  0.00    +0.000 C 
ATOM     15  C   UNL     1      48.358   6.245  15.238  0.00  0.00    +0.000 C 
ATOM     16  C   UNL     1      48.739   7.631  15.637  0.00  0.00    +0.000 C 
BRANCH  14  17
ATOM     17  C   UNL     1      49.465   7.391  13.161  0.00  0.00    +0.000 C 
ATOM     18  C   UNL     1      50.682   8.199  13.622  0.00  0.00    +0.000 C 
ATOM     19  C   UNL     1      50.548   9.696  13.356  0.00  0.00    +0.000 C 
ATOM     20  N   UNL     1      50.232   9.984  11.955  0.00  0.00    +0.000 NA
ATOM     21  C   UNL     1      49.001   9.324  11.528  0.00  0.00    +0.000 C 
ATOM     22  C   UNL     1      49.026   7.815  11.752  0.00  0.00    +0.000 C 
ATOM     23  H   UNL     1      51.004   9.656  11.375  0.00  0.00    +0.000 HD
ENDBRANCH  14  17
ENDBRANCH   5  14
TORSDOF 3
ENDMDL
MODEL 7
REMARK VINA RESULT:    -4.615      3.347      5.336
REMARK INTER + INTRA:          -5.882
REMARK INTER:                  -6.167
REMARK INTRA:                   0.285
REMARK UNBOUND:                -0.458
REMARK  Name = 
REMARK  3 active torsions:
REMARK  status: ('A' for Active; 'I' for Inactive)
REMARK    1  A    between atoms: C_2  and  C_4
REMARK    2  A    between atoms: N_8  and  C_9
REMARK    3  A    between atoms: C_9  and  C_10
REMARK                            x       y       z     vdW  Elec       q    Type
REMARK                         _______ _______ _______ _____ _____    ______ ____
ROOT
ATOM      1  C   UNL     1      44.742   4.154  11.835  0.00  0.00    +0.000 A 
ATOM      2  C   UNL     1      44.953   4.637  10.551  0.00  0.00    +0.000 A 
ATOM      3  C   UNL     1      45.797   5.733  10.377  0.00  0.00    +0.000 A 
ATOM      4  C   UNL     1      46.420   6.320  11.477  0.00  0.00    +0.000 A 
ATOM      5  N   UNL     1      47.321   7.370  11.201  0.00  0.00    +0.000 N 
ATOM      6  N   UNL     1      46.204   5.871  12.731  0.00  0.00    +0.000 NA
ATOM      7  C   UNL     1      45.358   4.817  12.888  0.00  0.00    +0.000 A 
ATOM      8  H   UNL     1      46.884   8.039  10.581  0.00  0.00    +0.000 HD
ENDROOT
BRANCH   1  10
ATOM      9  N   UNL     1      43.701   2.099  11.078  0.00  0.00    +0.000 N 
ATOM     10  C   UNL     1      43.898   2.974  12.109  0.00  0.00    +0.000 C 
ATOM     11  O   UNL     1      43.428   2.766  13.220  0.00  0.00    +0.000 OA
ATOM     12  H   UNL     1      43.219   1.239  11.306  0.00  0.00    +0.000 HD
ATOM     13  H   UNL     1      44.279   2.103  10.248  0.00  0.00    +0.000 HD
ENDBRANCH   1  10
BRANCH   5  14
ATOM     14  C   UNL     1      48.304   7.886  12.173  0.00  0.00    +0.000 C 
ATOM     15  C   UNL     1      49.737   7.825  11.653  0.00  0.00    +0.000 C 
ATOM     16  C   UNL     1      49.335   6.965  12.804  0.00  0.00    +0.000 C 
BRANCH  14  17
ATOM     17  C   UNL     1      47.911   9.119  13.010  0.00  0.00    +0.000 C 
ATOM     18  C   UNL     1      46.493   9.032  13.585  0.00  0.00    +0.000 C 
ATOM     19  C   UNL     1      45.416   9.488  12.604  0.00  0.00    +0.000 C 
ATOM     20  N   UNL     1      45.680  10.826  12.072  0.00  0.00    +0.000 NA
ATOM     21  C   UNL     1      46.977  10.901  11.405  0.00  0.00    +0.000 C 
ATOM     22  C   UNL     1      48.133  10.463  12.299  0.00  0.00    +0.000 C 
ATOM     23  H   UNL     1      45.665  11.491  12.846  0.00  0.00    +0.000 HD
ENDBRANCH  14  17
ENDBRANCH   5  14
TORSDOF 3
ENDMDL
MODEL 8
REMARK VINA RESULT:    -4.587      4.064      6.081
REMARK INTER + INTRA:          -5.849
REMARK INTER:                  -5.393
REMARK INTRA:                  -0.455
REMARK UNBOUND:                -0.458
REMARK  Name = 
REMARK  3 active torsions:
REMARK  status: ('A' for Active; 'I' for Inactive)
REMARK    1  A    between atoms: C_2  and  C_4
REMARK    2  A    between atoms: N_8  and  C_9
REMARK    3  A    between atoms: C_9  and  C_10
REMARK                            x       y       z     vdW  Elec       q    Type
REMARK                         _______ _______ _______ _____ _____    ______ ____
ROOT
ATOM      1  C   UNL     1      44.697   6.141  12.349  0.00  0.00    +0.000 A 
ATOM      2  C   UNL     1      45.473   5.052  12.722  0.00  0.00    +0.000 A 
ATOM      3  C   UNL     1      46.720   5.283  13.301  0.00  0.00    +0.000 A 
ATOM      4  C   UNL     1      47.167   6.587  13.504  0.00  0.00    +0.000 A 
ATOM      5  N   UNL     1      48.402   6.729  14.170  0.00  0.00    +0.000 N 
ATOM      6  N   UNL     1      46.430   7.652  13.125  0.00  0.00    +0.000 NA
ATOM      7  C   UNL     1      45.227   7.411  12.539  0.00  0.00    +0.000 A 
ATOM      8  H   UNL     1      49.093   6.130  13.738  0.00  0.00    +0.000 HD
ENDROOT
BRANCH   1  10
ATOM      9  N   UNL     1      42.825   7.080  11.126  0.00  0.00    +0.000 N 
ATOM     10  C   UNL     1      43.348   5.992  11.767  0.00  0.00    +0.000 C 
ATOM     11  O   UNL     1      42.741   4.931  11.821  0.00  0.00    +0.000 OA
ATOM     12  H   UNL     1      41.953   6.934  10.633  0.00  0.00    +0.000 HD
ATOM     13  H   UNL     1      43.395   7.865  10.839  0.00  0.00    +0.000 HD
ENDBRANCH   1  10
BRANCH   5  14
ATOM     14  C   UNL     1      48.877   7.996  14.761  0.00  0.00    +0.000 C 
ATOM     15  C   UNL     1      49.077   7.906  16.271  0.00  0.00    +0.000 C 
ATOM     16  C   UNL     1      48.003   8.785  15.721  0.00  0.00    +0.000 C 
BRANCH  14  17
ATOM     17  C   UNL     1      49.906   8.821  13.963  0.00  0.00    +0.000 C 
ATOM     18  C   UNL     1      49.451  10.260  13.697  0.00  0.00    +0.000 C 
ATOM     19  C   UNL     1      48.554  10.391  12.468  0.00  0.00    +0.000 C 
ATOM     20  N   UNL     1      49.165   9.808  11.271  0.00  0.00    +0.000 NA
ATOM     21  C   UNL     1      49.492   8.398  11.459  0.00  0.00    +0.000 C 
ATOM     22  C   UNL     1      50.389   8.150  12.669  0.00  0.00    +0.000 C 
ATOM     23  H   UNL     1      50.019  10.323  11.061  0.00  0.00    +0.000 HD
ENDBRANCH  14  17
ENDBRANCH   5  14
TORSDOF 3
ENDMDL
MODEL 9
REMARK VINA RESULT:    -4.183      4.474      6.665
REMARK INTER + INTRA:          -5.374
REMARK INTER:                  -5.864
REMARK INTRA:                   0.491
REMARK UNBOUND:                -0.458
REMARK  Name = 
REMARK  3 active torsions:
REMARK  status: ('A' for Active; 'I' for Inactive)
REMARK    1  A    between atoms: C_2  and  C_4
REMARK    2  A    between atoms: N_8  and  C_9
REMARK    3  A    between atoms: C_9  and  C_10
REMARK                            x       y       z     vdW  Elec       q    Type
REMARK                         _______ _______ _______ _____ _____    ______ ____
ROOT
ATOM      1  C   UNL     1      46.030   5.332  12.583  0.00  0.00    +0.000 A 
ATOM      2  C   UNL     1      47.062   6.244  12.759  0.00  0.00    +0.000 A 
ATOM      3  C   UNL     1      47.771   6.232  13.959  0.00  0.00    +0.000 A 
ATOM      4  C   UNL     1      47.447   5.312  14.955  0.00  0.00    +0.000 A 
ATOM      5  N   UNL     1      48.269   5.316  16.102  0.00  0.00    +0.000 N 
ATOM      6  N   UNL     1      46.432   4.436  14.802  0.00  0.00    +0.000 NA
ATOM      7  C   UNL     1      45.734   4.476  13.636  0.00  0.00    +0.000 A 
ATOM      8  H   UNL     1      48.370   6.262  16.445  0.00  0.00    +0.000 HD
ENDROOT
BRANCH   1  10
ATOM      9  N   UNL     1      44.567   6.363  10.947  0.00  0.00    +0.000 N 
ATOM     10  C   UNL     1      45.253   5.245  11.330  0.00  0.00    +0.000 C 
ATOM     11  O   UNL     1      45.254   4.231  10.644  0.00  0.00    +0.000 OA
ATOM     12  H   UNL     1      44.133   6.332  10.033  0.00  0.00    +0.000 HD
ATOM     13  H   UNL     1      44.757   7.275  11.341  0.00  0.00    +0.000 HD
ENDBRANCH   1  10
BRANCH   5  14
ATOM     14  C   UNL     1      48.296   4.225  17.096  0.00  0.00    +0.000 C 
ATOM     15  C   UNL     1      49.595   3.426  17.061  0.00  0.00    +0.000 C 
ATOM     16  C   UNL     1      48.316   2.770  16.660  0.00  0.00    +0.000 C 
BRANCH  14  17
ATOM     17  C   UNL     1      47.675   4.498  18.481  0.00  0.00    +0.000 C 
ATOM     18  C   UNL     1      46.940   5.840  18.560  0.00  0.00    +0.000 C 
ATOM     19  C   UNL     1      47.864   7.017  18.862  0.00  0.00    +0.000 C 
ATOM     20  N   UNL     1      48.670   6.794  20.064  0.00  0.00    +0.000 NA
ATOM     21  C   UNL     1      49.479   5.583  19.960  0.00  0.00    +0.000 C 
ATOM     22  C   UNL     1      48.652   4.338  19.655  0.00  0.00    +0.000 C 
ATOM     23  H   UNL     1      48.043   6.707  20.863  0.00  0.00    +0.000 HD
ENDBRANCH  14  17
ENDBRANCH   5  14
TORSDOF 3
ENDMDL
