MODEL 1
REMARK VINA RESULT:    -8.872      0.000      0.000
REMARK INTER + INTRA:         -13.148
REMARK INTER:                 -12.243
REMARK INTRA:                  -0.905
REMARK UNBOUND:                -0.905
REMARK  Name = 
REMARK  7 active torsions:
REMARK  status: ('A' for Active; 'I' for Inactive)
REMARK    1  A    between atoms: N_1  and  C_2
REMARK    2  A    between atoms: C_2  and  N_3
REMARK    3  A    between atoms: C_2  and  C_16
REMARK    4  A    between atoms: C_4  and  C_6
REMARK    5  A    between atoms: C_19  and  O_20
REMARK    6  A    between atoms: O_20  and  C_21
REMARK    7  A    between atoms: C_21  and  C_22
REMARK                            x       y       z     vdW  Elec       q    Type
REMARK                         _______ _______ _______ _____ _____    ______ ____
ROOT
ATOM      1  C   UNL     1      46.481   7.830  12.836  0.00  0.00    +0.000 C 
ENDROOT
BRANCH   1   2
ATOM      2  C   UNL     1      45.827   6.755  11.991  0.00  0.00    +0.000 A 
ATOM      3  C   UNL     1      46.286   6.493  10.693  0.00  0.00    +0.000 A 
ATOM      4  C   UNL     1      45.665   5.521   9.900  0.00  0.00    +0.000 A 
ATOM      5  C   UNL     1      44.583   4.796  10.400  0.00  0.00    +0.000 A 
ATOM      6  C   UNL     1      44.079   5.092  11.664  0.00  0.00    +0.000 A 
ATOM      7  C   UNL     1      44.694   6.060  12.451  0.00  0.00    +0.000 A 
BRANCH   5   8
ATOM      8  O   UNL     1      44.082   3.824   9.579  0.00  0.00    +0.000 OA
BRANCH   8   9
ATOM      9  C   UNL     1      44.772   2.570   9.658  0.00  0.00    +0.000 C 
BRANCH   9  10
ATOM     10  C   UNL     1      45.636   2.350   8.441  0.00  0.00    +0.000 A 
ATOM     11  C   UNL     1      45.735   3.320   7.448  0.00  0.00    +0.000 A 
ATOM     12  C   UNL     1      46.539   3.066   6.341  0.00  0.00    +0.000 A 
ATOM     13  C   UNL     1      47.206   1.851   6.250  0.00  0.00    +0.000 A 
ATOM     14  C   UNL     1      47.037   0.931   7.269  0.00  0.00    +0.000 A 
ATOM     15  N   UNL     1      46.265   1.149   8.354  0.00  0.00    +0.000 NA
ENDBRANCH   9  10
ENDBRANCH   8   9
ENDBRANCH   5   8
ENDBRANCH   1   2
BRANCH   1  16
ATOM     16  N   UNL     1      47.018   7.295  14.059  0.00  0.00    +0.000 N 
ATOM     17  C   UNL     1      48.254   6.708  14.141  0.00  0.00    +0.000 C 
ATOM     18  O   UNL     1      49.030   6.691  13.188  0.00  0.00    +0.000 OA
ATOM     19  H   UNL     1      46.323   6.967  14.724  0.00  0.00    +0.000 HD
BRANCH  17  20
ATOM     20  C   UNL     1      48.661   6.204  15.456  0.00  0.00    +0.000 A 
ATOM     21  C   UNL     1      49.672   6.861  16.146  0.00  0.00    +0.000 A 
ATOM     22  S   UNL     1      50.037   6.164  17.657  0.00  0.00    +0.000 S 
ATOM     23  C   UNL     1      48.881   4.937  17.429  0.00  0.00    +0.000 A 
ATOM     24  N   UNL     1      48.713   3.957  18.355  0.00  0.00    +0.000 NA
ATOM     25  C   UNL     1      47.820   3.077  18.045  0.00  0.00    +0.000 A 
ATOM     26  N   UNL     1      47.064   3.101  16.902  0.00  0.00    +0.000 N 
ATOM     27  C   UNL     1      47.170   4.097  15.957  0.00  0.00    +0.000 A 
ATOM     28  O   UNL     1      46.435   4.144  14.977  0.00  0.00    +0.000 OA
ATOM     29  C   UNL     1      48.194   5.085  16.237  0.00  0.00    +0.000 A 
ATOM     30  H   UNL     1      46.363   2.394  16.735  0.00  0.00    +0.000 HD
ENDBRANCH  17  20
ENDBRANCH   1  16
BRANCH   1  31
ATOM     31  N   UNL     1      45.476   8.803  13.207  0.00  0.00    +0.000 NA
ATOM     32  H   UNL     1      45.687   9.651  12.676  0.00  0.00    +0.000 HD
ATOM     33  H   UNL     1      45.634   9.046  14.181  0.00  0.00    +0.000 HD
ENDBRANCH   1  31
TORSDOF 7
ENDMDL
MODEL 2
REMARK VINA RESULT:    -8.426      1.947      2.363
REMARK INTER + INTRA:         -12.533
REMARK INTER:                 -11.546
REMARK INTRA:                  -0.988
REMARK UNBOUND:                -0.905
REMARK  Name = 
REMARK  7 active torsions:
REMARK  status: ('A' for Active; 'I' for Inactive)
REMARK    1  A    between atoms: N_1  and  C_2
REMARK    2  A    between atoms: C_2  and  N_3
REMARK    3  A    between atoms: C_2  and  C_16
REMARK    4  A    between atoms: C_4  and  C_6
REMARK    5  A    between atoms: C_19  and  O_20
REMARK    6  A    between atoms: O_20  and  C_21
REMARK    7  A    between atoms: C_21  and  C_22
REMARK                            x       y       z     vdW  Elec       q    Type
REMARK                         _______ _______ _______ _____ _____    ______ ____
ROOT
ATOM      1  C   UNL     1      47.494   6.650  13.512  0.00  0.00    +0.000 C 
ENDROOT
BRANCH   1   2
ATOM      2  C   UNL     1      46.608   5.856  12.572  0.00  0.00    +0.000 A 
ATOM      3  C   UNL     1      46.219   6.393  11.337  0.00  0.00    +0.000 A 
ATOM      4  C   UNL     1      45.377   5.673  10.482  0.00  0.00    +0.000 A 
ATOM      5  C   UNL     1      44.923   4.406  10.849  0.00  0.00    +0.000 A 
ATOM      6  C   UNL     1      45.252   3.890  12.099  0.00  0.00    +0.000 A 
ATOM      7  C   UNL     1      46.086   4.607  12.951  0.00  0.00    +0.000 A 
BRANCH   5   8
ATOM      8  O   UNL     1      44.158   3.752   9.922  0.00  0.00    +0.000 OA
BRANCH   8   9
ATOM      9  C   UNL     1      44.575   2.407   9.655  0.00  0.00    +0.000 C 
BRANCH   9  10
ATOM     10  C   UNL     1      45.527   2.358   8.485  0.00  0.00    +0.000 A 
ATOM     11  C   UNL     1      45.622   3.423   7.595  0.00  0.00    +0.000 A 
ATOM     12  C   UNL     1      46.509   3.325   6.527  0.00  0.00    +0.000 A 
ATOM     13  C   UNL     1      47.260   2.168   6.370  0.00  0.00    +0.000 A 
ATOM     14  C   UNL     1      47.090   1.146   7.287  0.00  0.00    +0.000 A 
ATOM     15  N   UNL     1      46.239   1.212   8.332  0.00  0.00    +0.000 NA
ENDBRANCH   9  10
ENDBRANCH   8   9
ENDBRANCH   5   8
ENDBRANCH   1   2
BRANCH   1  16
ATOM     16  N   UNL     1      47.554   6.056  14.820  0.00  0.00    +0.000 N 
ATOM     17  C   UNL     1      48.659   6.133  15.630  0.00  0.00    +0.000 C 
ATOM     18  O   UNL     1      49.641   6.806  15.325  0.00  0.00    +0.000 OA
ATOM     19  H   UNL     1      46.966   5.237  14.946  0.00  0.00    +0.000 HD
BRANCH  17  20
ATOM     20  C   UNL     1      48.570   5.472  16.935  0.00  0.00    +0.000 A 
ATOM     21  C   UNL     1      48.724   4.093  17.003  0.00  0.00    +0.000 A 
ATOM     22  S   UNL     1      48.597   3.466  18.581  0.00  0.00    +0.000 S 
ATOM     23  C   UNL     1      48.296   5.010  19.228  0.00  0.00    +0.000 A 
ATOM     24  N   UNL     1      48.048   5.175  20.553  0.00  0.00    +0.000 NA
ATOM     25  C   UNL     1      47.812   6.396  20.905  0.00  0.00    +0.000 A 
ATOM     26  N   UNL     1      47.825   7.470  20.053  0.00  0.00    +0.000 N 
ATOM     27  C   UNL     1      48.113   7.356  18.711  0.00  0.00    +0.000 A 
ATOM     28  O   UNL     1      48.193   8.335  17.978  0.00  0.00    +0.000 OA
ATOM     29  C   UNL     1      48.339   5.997  18.258  0.00  0.00    +0.000 A 
ATOM     30  H   UNL     1      47.657   8.403  20.400  0.00  0.00    +0.000 HD
ENDBRANCH  17  20
ENDBRANCH   1  16
BRANCH   1  31
ATOM     31  N   UNL     1      46.930   7.972  13.674  0.00  0.00    +0.000 NA
ATOM     32  H   UNL     1      46.457   8.193  12.795  0.00  0.00    +0.000 HD
ATOM     33  H   UNL     1      47.704   8.627  13.738  0.00  0.00    +0.000 HD
ENDBRANCH   1  31
TORSDOF 7
ENDMDL
MODEL 3
REMARK VINA RESULT:    -8.079      1.992      3.640
REMARK INTER + INTRA:         -12.054
REMARK INTER:                 -11.037
REMARK INTRA:                  -1.018
REMARK UNBOUND:                -0.905
REMARK  Name = 
REMARK  7 active torsions:
REMARK  status: ('A' for Active; 'I' for Inactive)
REMARK    1  A    between atoms: N_1  and  C_2
REMARK    2  A    between atoms: C_2  and  N_3
REMARK    3  A    between atoms: C_2  and  C_16
REMARK    4  A    between atoms: C_4  and  C_6
REMARK    5  A    between atoms: C_19  and  O_20
REMARK    6  A    between atoms: O_20  and  C_21
REMARK    7  A    between atoms: C_21  and  C_22
REMARK                            x       y       z     vdW  Elec       q    Type
REMARK                         _______ _______ _______ _____ _____    ______ ____
ROOT
ATOM      1  C   UNL     1      46.675   4.427  14.627  0.00  0.00    +0.000 C 
ENDROOT
BRANCH   1   2
ATOM      2  C   UNL     1      46.089   4.430  13.229  0.00  0.00    +0.000 A 
ATOM      3  C   UNL     1      45.556   3.257  12.678  0.00  0.00    +0.000 A 
ATOM      4  C   UNL     1      45.042   3.251  11.377  0.00  0.00    +0.000 A 
ATOM      5  C   UNL     1      45.047   4.420  10.616  0.00  0.00    +0.000 A 
ATOM      6  C   UNL     1      45.632   5.575  11.129  0.00  0.00    +0.000 A 
ATOM      7  C   UNL     1      46.146   5.580  12.422  0.00  0.00    +0.000 A 
BRANCH   5   8
ATOM      8  O   UNL     1      44.466   4.335   9.380  0.00  0.00    +0.000 OA
BRANCH   8   9
ATOM      9  C   UNL     1      44.305   2.995   8.895  0.00  0.00    +0.000 C 
BRANCH   9  10
ATOM     10  C   UNL     1      45.506   2.564   8.088  0.00  0.00    +0.000 A 
ATOM     11  C   UNL     1      46.021   3.376   7.082  0.00  0.00    +0.000 A 
ATOM     12  C   UNL     1      47.125   2.929   6.362  0.00  0.00    +0.000 A 
ATOM     13  C   UNL     1      47.671   1.686   6.655  0.00  0.00    +0.000 A 
ATOM     14  C   UNL     1      47.086   0.932   7.656  0.00  0.00    +0.000 A 
ATOM     15  N   UNL     1      46.016   1.338   8.371  0.00  0.00    +0.000 NA
ENDBRANCH   9  10
ENDBRANCH   8   9
ENDBRANCH   5   8
ENDBRANCH   1   2
BRANCH   1  16
ATOM     16  N   UNL     1      47.496   5.584  14.865  0.00  0.00    +0.000 N 
ATOM     17  C   UNL     1      48.273   5.734  15.986  0.00  0.00    +0.000 C 
ATOM     18  O   UNL     1      48.394   4.837  16.817  0.00  0.00    +0.000 OA
ATOM     19  H   UNL     1      47.162   6.442  14.436  0.00  0.00    +0.000 HD
BRANCH  17  20
ATOM     20  C   UNL     1      49.051   6.972  16.090  0.00  0.00    +0.000 A 
ATOM     21  C   UNL     1      49.242   7.544  17.341  0.00  0.00    +0.000 A 
ATOM     22  S   UNL     1      50.164   8.976  17.308  0.00  0.00    +0.000 S 
ATOM     23  C   UNL     1      50.312   8.903  15.614  0.00  0.00    +0.000 A 
ATOM     24  N   UNL     1      50.963   9.879  14.928  0.00  0.00    +0.000 NA
ATOM     25  C   UNL     1      50.979   9.712  13.648  0.00  0.00    +0.000 A 
ATOM     26  N   UNL     1      50.423   8.644  12.993  0.00  0.00    +0.000 N 
ATOM     27  C   UNL     1      49.792   7.611  13.650  0.00  0.00    +0.000 A 
ATOM     28  O   UNL     1      49.365   6.627  13.055  0.00  0.00    +0.000 OA
ATOM     29  C   UNL     1      49.706   7.776  15.087  0.00  0.00    +0.000 A 
ATOM     30  H   UNL     1      50.496   8.563  11.989  0.00  0.00    +0.000 HD
ENDBRANCH  17  20
ENDBRANCH   1  16
BRANCH   1  31
ATOM     31  N   UNL     1      47.529   3.268  14.769  0.00  0.00    +0.000 NA
ATOM     32  H   UNL     1      46.905   2.463  14.868  0.00  0.00    +0.000 HD
ATOM     33  H   UNL     1      48.008   3.351  15.661  0.00  0.00    +0.000 HD
ENDBRANCH   1  31
TORSDOF 7
ENDMDL
MODEL 4
REMARK VINA RESULT:    -7.864      2.871      4.693
REMARK INTER + INTRA:         -11.758
REMARK INTER:                 -10.406
REMARK INTRA:                  -1.352
REMARK UNBOUND:                -0.905
REMARK  Name = 
REMARK  7 active torsions:
REMARK  status: ('A' for Active; 'I' for Inactive)
REMARK    1  A    between atoms: N_1  and  C_2
REMARK    2  A    between atoms: C_2  and  N_3
REMARK    3  A    between atoms: C_2  and  C_16
REMARK    4  A    between atoms: C_4  and  C_6
REMARK    5  A    between atoms: C_19  and  O_20
REMARK    6  A    between atoms: O_20  and  C_21
REMARK    7  A    between atoms: C_21  and  C_22
REMARK                            x       y       z     vdW  Elec       q    Type
REMARK                         _______ _______ _______ _____ _____    ______ ____
ROOT
ATOM      1  C   UNL     1      47.181   5.964  13.954  0.00  0.00    +0.000 C 
ENDROOT
BRANCH   1   2
ATOM      2  C   UNL     1      46.384   5.309  12.844  0.00  0.00    +0.000 A 
ATOM      3  C   UNL     1      46.067   6.021  11.679  0.00  0.00    +0.000 A 
ATOM      4  C   UNL     1      45.306   5.427  10.666  0.00  0.00    +0.000 A 
ATOM      5  C   UNL     1      44.861   4.112  10.803  0.00  0.00    +0.000 A 
ATOM      6  C   UNL     1      45.116   3.417  11.983  0.00  0.00    +0.000 A 
ATOM      7  C   UNL     1      45.869   4.008  12.991  0.00  0.00    +0.000 A 
BRANCH   5   8
ATOM      8  O   UNL     1      44.180   3.595   9.736  0.00  0.00    +0.000 OA
BRANCH   8   9
ATOM      9  C   UNL     1      44.542   2.249   9.400  0.00  0.00    +0.000 C 
BRANCH   9  10
ATOM     10  C   UNL     1      45.610   2.227   8.333  0.00  0.00    +0.000 A 
ATOM     11  C   UNL     1      45.831   3.333   7.519  0.00  0.00    +0.000 A 
ATOM     12  C   UNL     1      46.823   3.259   6.545  0.00  0.00    +0.000 A 
ATOM     13  C   UNL     1      47.551   2.085   6.403  0.00  0.00    +0.000 A 
ATOM     14  C   UNL     1      47.253   1.024   7.240  0.00  0.00    +0.000 A 
ATOM     15  N   UNL     1      46.299   1.065   8.192  0.00  0.00    +0.000 NA
ENDBRANCH   9  10
ENDBRANCH   8   9
ENDBRANCH   5   8
ENDBRANCH   1   2
BRANCH   1  16
ATOM     16  N   UNL     1      48.215   6.820  13.436  0.00  0.00    +0.000 N 
ATOM     17  C   UNL     1      48.932   7.688  14.220  0.00  0.00    +0.000 C 
ATOM     18  O   UNL     1      48.805   7.717  15.442  0.00  0.00    +0.000 OA
ATOM     19  H   UNL     1      48.100   7.089  12.463  0.00  0.00    +0.000 HD
BRANCH  17  20
ATOM     20  C   UNL     1      49.949   8.501  13.546  0.00  0.00    +0.000 A 
ATOM     21  C   UNL     1      51.271   8.405  13.961  0.00  0.00    +0.000 A 
ATOM     22  S   UNL     1      52.338   9.406  13.089  0.00  0.00    +0.000 S 
ATOM     23  C   UNL     1      51.067  10.030  12.146  0.00  0.00    +0.000 A 
ATOM     24  N   UNL     1      51.297  10.990  11.213  0.00  0.00    +0.000 NA
ATOM     25  C   UNL     1      50.240  11.390  10.587  0.00  0.00    +0.000 A 
ATOM     26  N   UNL     1      48.977  10.901  10.795  0.00  0.00    +0.000 N 
ATOM     27  C   UNL     1      48.704   9.899  11.699  0.00  0.00    +0.000 A 
ATOM     28  O   UNL     1      47.581   9.421  11.821  0.00  0.00    +0.000 OA
ATOM     29  C   UNL     1      49.851   9.448  12.462  0.00  0.00    +0.000 A 
ATOM     30  H   UNL     1      48.198  11.242  10.251  0.00  0.00    +0.000 HD
ENDBRANCH  17  20
ENDBRANCH   1  16
BRANCH   1  31
ATOM     31  N   UNL     1      47.838   4.930  14.725  0.00  0.00    +0.000 NA
ATOM     32  H   UNL     1      48.068   5.349  15.629  0.00  0.00    +0.000 HD
ATOM     33  H   UNL     1      48.731   4.740  14.279  0.00  0.00    +0.000 HD
ENDBRANCH   1  31
TORSDOF 7
ENDMDL
MODEL 5
REMARK VINA RESULT:    -7.823      2.468      3.516
REMARK INTER + INTRA:         -11.701
REMARK INTER:                 -10.635
REMARK INTRA:                  -1.065
REMARK UNBOUND:                -0.905
REMARK  Name = 
REMARK  7 active torsions:
REMARK  status: ('A' for Active; 'I' for Inactive)
REMARK    1  A    between atoms: N_1  and  C_2
REMARK    2  A    between atoms: C_2  and  N_3
REMARK    3  A    between atoms: C_2  and  C_16
REMARK    4  A    between atoms: C_4  and  C_6
REMARK    5  A    between atoms: C_19  and  O_20
REMARK    6  A    between atoms: O_20  and  C_21
REMARK    7  A    between atoms: C_21  and  C_22
REMARK                            x       y       z     vdW  Elec       q    Type
REMARK                         _______ _______ _______ _____ _____    ______ ____
ROOT
ATOM      1  C   UNL     1      46.871   4.465  14.840  0.00  0.00    +0.000 C 
ENDROOT
BRANCH   1   2
ATOM      2  C   UNL     1      46.392   4.613  13.409  0.00  0.00    +0.000 A 
ATOM      3  C   UNL     1      46.651   5.788  12.689  0.00  0.00    +0.000 A 
ATOM      4  C   UNL     1      46.184   5.937  11.379  0.00  0.00    +0.000 A 
ATOM      5  C   UNL     1      45.462   4.910  10.770  0.00  0.00    +0.000 A 
ATOM      6  C   UNL     1      45.146   3.765  11.497  0.00  0.00    +0.000 A 
ATOM      7  C   UNL     1      45.606   3.618  12.801  0.00  0.00    +0.000 A 
BRANCH   5   8
ATOM      8  O   UNL     1      45.103   5.120   9.467  0.00  0.00    +0.000 OA
BRANCH   8   9
ATOM      9  C   UNL     1      44.536   3.974   8.819  0.00  0.00    +0.000 C 
BRANCH   9  10
ATOM     10  C   UNL     1      45.601   3.166   8.119  0.00  0.00    +0.000 A 
ATOM     11  C   UNL     1      45.780   1.816   8.406  0.00  0.00    +0.000 A 
ATOM     12  C   UNL     1      46.782   1.118   7.738  0.00  0.00    +0.000 A 
ATOM     13  C   UNL     1      47.581   1.786   6.820  0.00  0.00    +0.000 A 
ATOM     14  C   UNL     1      47.351   3.133   6.608  0.00  0.00    +0.000 A 
ATOM     15  N   UNL     1      46.389   3.837   7.240  0.00  0.00    +0.000 NA
ENDBRANCH   9  10
ENDBRANCH   8   9
ENDBRANCH   5   8
ENDBRANCH   1   2
BRANCH   1  16
ATOM     16  N   UNL     1      47.819   5.487  15.194  0.00  0.00    +0.000 N 
ATOM     17  C   UNL     1      48.280   5.671  16.473  0.00  0.00    +0.000 C 
ATOM     18  O   UNL     1      47.985   4.903  17.386  0.00  0.00    +0.000 OA
ATOM     19  H   UNL     1      47.797   6.314  14.605  0.00  0.00    +0.000 HD
BRANCH  17  20
ATOM     20  C   UNL     1      49.241   6.759  16.679  0.00  0.00    +0.000 A 
ATOM     21  C   UNL     1      48.787   8.071  16.657  0.00  0.00    +0.000 A 
ATOM     22  S   UNL     1      50.013   9.226  16.911  0.00  0.00    +0.000 S 
ATOM     23  C   UNL     1      51.203   8.015  17.025  0.00  0.00    +0.000 A 
ATOM     24  N   UNL     1      52.511   8.337  17.199  0.00  0.00    +0.000 NA
ATOM     25  C   UNL     1      53.309   7.322  17.245  0.00  0.00    +0.000 A 
ATOM     26  N   UNL     1      52.913   6.013  17.155  0.00  0.00    +0.000 N 
ATOM     27  C   UNL     1      51.595   5.639  17.022  0.00  0.00    +0.000 A 
ATOM     28  O   UNL     1      51.250   4.462  17.017  0.00  0.00    +0.000 OA
ATOM     29  C   UNL     1      50.663   6.745  16.918  0.00  0.00    +0.000 A 
ATOM     30  H   UNL     1      53.589   5.267  17.225  0.00  0.00    +0.000 HD
ENDBRANCH  17  20
ENDBRANCH   1  16
BRANCH   1  31
ATOM     31  N   UNL     1      47.550   3.195  14.972  0.00  0.00    +0.000 NA
ATOM     32  H   UNL     1      48.251   3.319  15.707  0.00  0.00    +0.000 HD
ATOM     33  H   UNL     1      48.078   3.042  14.117  0.00  0.00    +0.000 HD
ENDBRANCH   1  31
TORSDOF 7
ENDMDL
MODEL 6
REMARK VINA RESULT:    -7.814      1.942      2.468
REMARK INTER + INTRA:         -11.688
REMARK INTER:                 -10.379
REMARK INTRA:                  -1.309
REMARK UNBOUND:                -0.905
REMARK  Name = 
REMARK  7 active torsions:
REMARK  status: ('A' for Active; 'I' for Inactive)
REMARK    1  A    between atoms: N_1  and  C_2
REMARK    2  A    between atoms: C_2  and  N_3
REMARK    3  A    between atoms: C_2  and  C_16
REMARK    4  A    between atoms: C_4  and  C_6
REMARK    5  A    between atoms: C_19  and  O_20
REMARK    6  A    between atoms: O_20  and  C_21
REMARK    7  A    between atoms: C_21  and  C_22
REMARK                            x       y       z     vdW  Elec       q    Type
REMARK                         _______ _______ _______ _____ _____    ______ ____
ROOT
ATOM      1  C   UNL     1      47.795   7.899  13.487  0.00  0.00    +0.000 C 
ENDROOT
BRANCH   1   2
ATOM      2  C   UNL     1      46.885   6.881  12.827  0.00  0.00    +0.000 A 
ATOM      3  C   UNL     1      46.847   5.557  13.287  0.00  0.00    +0.000 A 
ATOM      4  C   UNL     1      46.031   4.610  12.660  0.00  0.00    +0.000 A 
ATOM      5  C   UNL     1      45.236   4.978  11.574  0.00  0.00    +0.000 A 
ATOM      6  C   UNL     1      45.314   6.274  11.070  0.00  0.00    +0.000 A 
ATOM      7  C   UNL     1      46.128   7.215  11.691  0.00  0.00    +0.000 A 
BRANCH   5   8
ATOM      8  O   UNL     1      44.424   4.001  11.067  0.00  0.00    +0.000 OA
BRANCH   8   9
ATOM      9  C   UNL     1      44.100   4.163   9.680  0.00  0.00    +0.000 C 
BRANCH   9  10
ATOM     10  C   UNL     1      45.110   3.462   8.804  0.00  0.00    +0.000 A 
ATOM     11  C   UNL     1      45.336   2.094   8.926  0.00  0.00    +0.000 A 
ATOM     12  C   UNL     1      46.284   1.497   8.100  0.00  0.00    +0.000 A 
ATOM     13  C   UNL     1      46.986   2.280   7.192  0.00  0.00    +0.000 A 
ATOM     14  C   UNL     1      46.716   3.636   7.150  0.00  0.00    +0.000 A 
ATOM     15  N   UNL     1      45.804   4.243   7.937  0.00  0.00    +0.000 NA
ENDBRANCH   9  10
ENDBRANCH   8   9
ENDBRANCH   5   8
ENDBRANCH   1   2
BRANCH   1  16
ATOM     16  N   UNL     1      48.827   7.269  14.265  0.00  0.00    +0.000 N 
ATOM     17  C   UNL     1      49.822   7.969  14.899  0.00  0.00    +0.000 C 
ATOM     18  O   UNL     1      49.837   9.198  14.924  0.00  0.00    +0.000 OA
ATOM     19  H   UNL     1      49.060   6.322  13.980  0.00  0.00    +0.000 HD
BRANCH  17  20
ATOM     20  C   UNL     1      50.807   7.185  15.650  0.00  0.00    +0.000 A 
ATOM     21  C   UNL     1      52.156   7.478  15.500  0.00  0.00    +0.000 A 
ATOM     22  S   UNL     1      53.182   6.487  16.432  0.00  0.00    +0.000 S 
ATOM     23  C   UNL     1      51.861   5.607  17.045  0.00  0.00    +0.000 A 
ATOM     24  N   UNL     1      52.052   4.558  17.886  0.00  0.00    +0.000 NA
ATOM     25  C   UNL     1      50.966   3.964  18.255  0.00  0.00    +0.000 A 
ATOM     26  N   UNL     1      49.703   4.339  17.875  0.00  0.00    +0.000 N 
ATOM     27  C   UNL     1      49.460   5.421  17.059  0.00  0.00    +0.000 A 
ATOM     28  O   UNL     1      48.321   5.788  16.789  0.00  0.00    +0.000 OA
ATOM     29  C   UNL     1      50.651   6.093  16.579  0.00  0.00    +0.000 A 
ATOM     30  H   UNL     1      48.895   3.845  18.223  0.00  0.00    +0.000 HD
ENDBRANCH  17  20
ENDBRANCH   1  16
BRANCH   1  31
ATOM     31  N   UNL     1      47.008   8.700  14.400  0.00  0.00    +0.000 NA
ATOM     32  H   UNL     1      47.640   9.410  14.777  0.00  0.00    +0.000 HD
ATOM     33  H   UNL     1      46.764   8.109  15.190  0.00  0.00    +0.000 HD
ENDBRANCH   1  31
TORSDOF 7
ENDMDL
MODEL 7
REMARK VINA RESULT:    -7.706      2.509      3.438
REMARK INTER + INTRA:         -11.540
REMARK INTER:                 -10.593
REMARK INTRA:                  -0.947
REMARK UNBOUND:                -0.905
REMARK  Name = 
REMARK  7 active torsions:
REMARK  status: ('A' for Active; 'I' for Inactive)
REMARK    1  A    between atoms: N_1  and  C_2
REMARK    2  A    between atoms: C_2  and  N_3
REMARK    3  A    between atoms: C_2  and  C_16
REMARK    4  A    between atoms: C_4  and  C_6
REMARK    5  A    between atoms: C_19  and  O_20
REMARK    6  A    between atoms: O_20  and  C_21
REMARK    7  A    between atoms: C_21  and  C_22
REMARK                            x       y       z     vdW  Elec       q    Type
REMARK                         _______ _______ _______ _____ _____    ______ ____
ROOT
ATOM      1  C   UNL     1      46.851   4.345  14.860  0.00  0.00    +0.000 C 
ENDROOT
BRANCH   1   2
ATOM      2  C   UNL     1      46.295   4.435  13.452  0.00  0.00    +0.000 A 
ATOM      3  C   UNL     1      46.438   5.612  12.704  0.00  0.00    +0.000 A 
ATOM      4  C   UNL     1      45.899   5.707  11.417  0.00  0.00    +0.000 A 
ATOM      5  C   UNL     1      45.220   4.623  10.859  0.00  0.00    +0.000 A 
ATOM      6  C   UNL     1      45.018   3.473  11.617  0.00  0.00    +0.000 A 
ATOM      7  C   UNL     1      45.550   3.379  12.898  0.00  0.00    +0.000 A 
BRANCH   5   8
ATOM      8  O   UNL     1      44.785   4.786   9.573  0.00  0.00    +0.000 OA
BRANCH   8   9
ATOM      9  C   UNL     1      44.370   3.572   8.932  0.00  0.00    +0.000 C 
BRANCH   9  10
ATOM     10  C   UNL     1      45.531   2.901   8.240  0.00  0.00    +0.000 A 
ATOM     11  C   UNL     1      46.395   3.627   7.426  0.00  0.00    +0.000 A 
ATOM     12  C   UNL     1      47.446   2.960   6.804  0.00  0.00    +0.000 A 
ATOM     13  C   UNL     1      47.596   1.593   6.999  0.00  0.00    +0.000 A 
ATOM     14  C   UNL     1      46.681   0.942   7.807  0.00  0.00    +0.000 A 
ATOM     15  N   UNL     1      45.652   1.561   8.423  0.00  0.00    +0.000 NA
ENDBRANCH   9  10
ENDBRANCH   8   9
ENDBRANCH   5   8
ENDBRANCH   1   2
BRANCH   1  16
ATOM     16  N   UNL     1      47.668   5.483  15.185  0.00  0.00    +0.000 N 
ATOM     17  C   UNL     1      48.392   5.580  16.347  0.00  0.00    +0.000 C 
ATOM     18  O   UNL     1      48.468   4.647  17.143  0.00  0.00    +0.000 OA
ATOM     19  H   UNL     1      47.360   6.362  14.778  0.00  0.00    +0.000 HD
BRANCH  17  20
ATOM     20  C   UNL     1      49.172   6.805  16.540  0.00  0.00    +0.000 A 
ATOM     21  C   UNL     1      50.201   7.095  15.653  0.00  0.00    +0.000 A 
ATOM     22  S   UNL     1      51.018   8.548  16.002  0.00  0.00    +0.000 S 
ATOM     23  C   UNL     1      50.049   8.826  17.372  0.00  0.00    +0.000 A 
ATOM     24  N   UNL     1      50.262   9.906  18.169  0.00  0.00    +0.000 NA
ATOM     25  C   UNL     1      49.471   9.982  19.188  0.00  0.00    +0.000 A 
ATOM     26  N   UNL     1      48.472   9.086  19.469  0.00  0.00    +0.000 N 
ATOM     27  C   UNL     1      48.193   8.002  18.666  0.00  0.00    +0.000 A 
ATOM     28  O   UNL     1      47.249   7.252  18.891  0.00  0.00    +0.000 OA
ATOM     29  C   UNL     1      49.085   7.847  17.534  0.00  0.00    +0.000 A 
ATOM     30  H   UNL     1      47.872   9.220  20.269  0.00  0.00    +0.000 HD
ENDBRANCH  17  20
ENDBRANCH   1  16
BRANCH   1  31
ATOM     31  N   UNL     1      47.701   3.178  14.948  0.00  0.00    +0.000 NA
ATOM     32  H   UNL     1      47.481   2.600  14.133  0.00  0.00    +0.000 HD
ATOM     33  H   UNL     1      47.394   2.639  15.753  0.00  0.00    +0.000 HD
ENDBRANCH   1  31
TORSDOF 7
ENDMDL
MODEL 8
REMARK VINA RESULT:    -7.659      3.004      4.244
REMARK INTER + INTRA:         -11.475
REMARK INTER:                 -10.410
REMARK INTRA:                  -1.065
REMARK UNBOUND:                -0.905
REMARK  Name = 
REMARK  7 active torsions:
REMARK  status: ('A' for Active; 'I' for Inactive)
REMARK    1  A    between atoms: N_1  and  C_2
REMARK    2  A    between atoms: C_2  and  N_3
REMARK    3  A    between atoms: C_2  and  C_16
REMARK    4  A    between atoms: C_4  and  C_6
REMARK    5  A    between atoms: C_19  and  O_20
REMARK    6  A    between atoms: O_20  and  C_21
REMARK    7  A    between atoms: C_21  and  C_22
REMARK                            x       y       z     vdW  Elec       q    Type
REMARK                         _______ _______ _______ _____ _____    ______ ____
ROOT
ATOM      1  C   UNL     1      47.094   6.024  14.011  0.00  0.00    +0.000 C 
ENDROOT
BRANCH   1   2
ATOM      2  C   UNL     1      46.299   5.411  12.875  0.00  0.00    +0.000 A 
ATOM      3  C   UNL     1      45.817   4.098  12.972  0.00  0.00    +0.000 A 
ATOM      4  C   UNL     1      45.108   3.520  11.912  0.00  0.00    +0.000 A 
ATOM      5  C   UNL     1      44.866   4.252  10.750  0.00  0.00    +0.000 A 
ATOM      6  C   UNL     1      45.394   5.534  10.619  0.00  0.00    +0.000 A 
ATOM      7  C   UNL     1      46.101   6.107  11.670  0.00  0.00    +0.000 A 
BRANCH   5   8
ATOM      8  O   UNL     1      44.110   3.628   9.795  0.00  0.00    +0.000 OA
BRANCH   8   9
ATOM      9  C   UNL     1      44.523   2.288   9.498  0.00  0.00    +0.000 C 
BRANCH   9  10
ATOM     10  C   UNL     1      45.548   2.271   8.390  0.00  0.00    +0.000 A 
ATOM     11  C   UNL     1      45.685   3.352   7.525  0.00  0.00    +0.000 A 
ATOM     12  C   UNL     1      46.640   3.283   6.515  0.00  0.00    +0.000 A 
ATOM     13  C   UNL     1      47.415   2.138   6.388  0.00  0.00    +0.000 A 
ATOM     14  C   UNL     1      47.201   1.099   7.275  0.00  0.00    +0.000 A 
ATOM     15  N   UNL     1      46.284   1.136   8.264  0.00  0.00    +0.000 NA
ENDBRANCH   9  10
ENDBRANCH   8   9
ENDBRANCH   5   8
ENDBRANCH   1   2
BRANCH   1  16
ATOM     16  N   UNL     1      48.278   6.688  13.537  0.00  0.00    +0.000 N 
ATOM     17  C   UNL     1      48.388   8.053  13.448  0.00  0.00    +0.000 C 
ATOM     18  O   UNL     1      47.510   8.804  13.868  0.00  0.00    +0.000 OA
ATOM     19  H   UNL     1      48.834   6.153  12.876  0.00  0.00    +0.000 HD
BRANCH  17  20
ATOM     20  C   UNL     1      49.657   8.582  12.939  0.00  0.00    +0.000 A 
ATOM     21  C   UNL     1      49.648   9.363  11.791  0.00  0.00    +0.000 A 
ATOM     22  S   UNL     1      51.192   9.907  11.319  0.00  0.00    +0.000 S 
ATOM     23  C   UNL     1      51.934   9.089  12.614  0.00  0.00    +0.000 A 
ATOM     24  N   UNL     1      53.283   9.107  12.768  0.00  0.00    +0.000 NA
ATOM     25  C   UNL     1      53.714   8.425  13.777  0.00  0.00    +0.000 A 
ATOM     26  N   UNL     1      52.914   7.746  14.659  0.00  0.00    +0.000 N 
ATOM     27  C   UNL     1      51.541   7.736  14.567  0.00  0.00    +0.000 A 
ATOM     28  O   UNL     1      50.837   7.185  15.406  0.00  0.00    +0.000 OA
ATOM     29  C   UNL     1      51.010   8.449  13.421  0.00  0.00    +0.000 A 
ATOM     30  H   UNL     1      53.317   7.254  15.443  0.00  0.00    +0.000 HD
ENDBRANCH  17  20
ENDBRANCH   1  16
BRANCH   1  31
ATOM     31  N   UNL     1      47.530   4.965  14.895  0.00  0.00    +0.000 NA
ATOM     32  H   UNL     1      47.284   4.086  14.434  0.00  0.00    +0.000 HD
ATOM     33  H   UNL     1      46.950   5.007  15.728  0.00  0.00    +0.000 HD
ENDBRANCH   1  31
TORSDOF 7
ENDMDL
MODEL 9
REMARK VINA RESULT:    -7.309      2.591      3.956
REMARK INTER + INTRA:         -10.993
REMARK INTER:                 -10.028
REMARK INTRA:                  -0.965
REMARK UNBOUND:                -0.905
REMARK  Name = 
REMARK  7 active torsions:
REMARK  status: ('A' for Active; 'I' for Inactive)
REMARK    1  A    between atoms: N_1  and  C_2
REMARK    2  A    between atoms: C_2  and  N_3
REMARK    3  A    between atoms: C_2  and  C_16
REMARK    4  A    between atoms: C_4  and  C_6
REMARK    5  A    between atoms: C_19  and  O_20
REMARK    6  A    between atoms: O_20  and  C_21
REMARK    7  A    between atoms: C_21  and  C_22
REMARK                            x       y       z     vdW  Elec       q    Type
REMARK                         _______ _______ _______ _____ _____    ______ ____
ROOT
ATOM      1  C   UNL     1      46.547   5.244  14.388  0.00  0.00    +0.000 C 
ENDROOT
BRANCH   1   2
ATOM      2  C   UNL     1      45.900   4.752  13.109  0.00  0.00    +0.000 A 
ATOM      3  C   UNL     1      45.366   5.662  12.185  0.00  0.00    +0.000 A 
ATOM      4  C   UNL     1      44.742   5.208  11.018  0.00  0.00    +0.000 A 
ATOM      5  C   UNL     1      44.654   3.840  10.757  0.00  0.00    +0.000 A 
ATOM      6  C   UNL     1      45.124   2.927  11.696  0.00  0.00    +0.000 A 
ATOM      7  C   UNL     1      45.741   3.378  12.859  0.00  0.00    +0.000 A 
BRANCH   5   8
ATOM      8  O   UNL     1      44.085   3.494   9.562  0.00  0.00    +0.000 OA
BRANCH   8   9
ATOM      9  C   UNL     1      44.434   2.181   9.101  0.00  0.00    +0.000 C 
BRANCH   9  10
ATOM     10  C   UNL     1      45.599   2.237   8.143  0.00  0.00    +0.000 A 
ATOM     11  C   UNL     1      45.808   3.349   7.334  0.00  0.00    +0.000 A 
ATOM     12  C   UNL     1      46.893   3.347   6.462  0.00  0.00    +0.000 A 
ATOM     13  C   UNL     1      47.724   2.236   6.412  0.00  0.00    +0.000 A 
ATOM     14  C   UNL     1      47.434   1.162   7.235  0.00  0.00    +0.000 A 
ATOM     15  N   UNL     1      46.391   1.134   8.090  0.00  0.00    +0.000 NA
ENDBRANCH   9  10
ENDBRANCH   8   9
ENDBRANCH   5   8
ENDBRANCH   1   2
BRANCH   1  16
ATOM     16  N   UNL     1      47.102   6.562  14.234  0.00  0.00    +0.000 N 
ATOM     17  C   UNL     1      48.254   6.814  13.534  0.00  0.00    +0.000 C 
ATOM     18  O   UNL     1      48.836   5.933  12.904  0.00  0.00    +0.000 OA
ATOM     19  H   UNL     1      46.890   7.207  14.990  0.00  0.00    +0.000 HD
BRANCH  17  20
ATOM     20  C   UNL     1      48.698   8.209  13.470  0.00  0.00    +0.000 A 
ATOM     21  C   UNL     1      48.863   8.807  12.227  0.00  0.00    +0.000 A 
ATOM     22  S   UNL     1      49.382  10.427  12.309  0.00  0.00    +0.000 S 
ATOM     23  C   UNL     1      49.439  10.379  14.008  0.00  0.00    +0.000 A 
ATOM     24  N   UNL     1      49.859  11.455  14.723  0.00  0.00    +0.000 NA
ATOM     25  C   UNL     1      49.876  11.274  16.002  0.00  0.00    +0.000 A 
ATOM     26  N   UNL     1      49.489  10.119  16.631  0.00  0.00    +0.000 N 
ATOM     27  C   UNL     1      49.016   9.019  15.951  0.00  0.00    +0.000 A 
ATOM     28  O   UNL     1      48.605   8.022  16.533  0.00  0.00    +0.000 OA
ATOM     29  C   UNL     1      49.023   9.157  14.508  0.00  0.00    +0.000 A 
ATOM     30  H   UNL     1      49.503  10.055  17.639  0.00  0.00    +0.000 HD
ENDBRANCH  17  20
ENDBRANCH   1  16
BRANCH   1  31
ATOM     31  N   UNL     1      47.644   4.362  14.722  0.00  0.00    +0.000 NA
ATOM     32  H   UNL     1      47.593   3.580  14.065  0.00  0.00    +0.000 HD
ATOM     33  H   UNL     1      47.445   3.962  15.634  0.00  0.00    +0.000 HD
ENDBRANCH   1  31
TORSDOF 7
ENDMDL
