MODEL 1
REMARK VINA RESULT:    -8.455      0.000      0.000
REMARK INTER + INTRA:         -11.886
REMARK INTER:                 -10.927
REMARK INTRA:                  -0.959
REMARK UNBOUND:                -0.959
REMARK  Name = 
REMARK  6 active torsions:
REMARK  status: ('A' for Active; 'I' for Inactive)
REMARK    1  A    between atoms: C_1  and  C_2
REMARK    2  A    between atoms: C_5  and  C_6
REMARK    3  A    between atoms: C_6  and  C_7
REMARK    4  A    between atoms: C_10  and  C_11
REMARK    5  A    between atoms: C_11  and  N_12
REMARK    6  A    between atoms: C_13  and  C_15
REMARK                            x       y       z     vdW  Elec       q    Type
REMARK                         _______ _______ _______ _____ _____    ______ ____
ROOT
ATOM      1  C   UNL     1      47.216   8.113  13.567  0.00  0.00    +0.000 C 
ENDROOT
BRANCH   1   5
ATOM      2  C   UNL     1      44.782   5.720  11.003  0.00  0.00    +0.000 A 
ATOM      3  C   UNL     1      44.405   7.039  11.267  0.00  0.00    +0.000 A 
ATOM      4  C   UNL     1      45.194   7.833  12.095  0.00  0.00    +0.000 A 
ATOM      5  C   UNL     1      46.339   7.282  12.661  0.00  0.00    +0.000 A 
ATOM      6  N   UNL     1      46.733   6.007  12.413  0.00  0.00    +0.000 NA
ATOM      7  C   UNL     1      45.958   5.265  11.587  0.00  0.00    +0.000 A 
BRANCH   2   8
ATOM      8  C   UNL     1      43.952   4.818  10.133  0.00  0.00    +0.000 C 
BRANCH   8  13
ATOM      9  C   UNL     1      47.300   1.489   6.833  0.00  0.00    +0.000 C 
ATOM     10  C   UNL     1      46.365   2.300   7.672  0.00  0.00    +0.000 A 
ATOM     11  C   UNL     1      45.580   1.722   8.668  0.00  0.00    +0.000 A 
ATOM     12  C   UNL     1      44.755   2.527   9.452  0.00  0.00    +0.000 A 
ATOM     13  C   UNL     1      44.739   3.902   9.226  0.00  0.00    +0.000 A 
ATOM     14  N   UNL     1      45.466   4.481   8.239  0.00  0.00    +0.000 NA
ATOM     15  C   UNL     1      46.251   3.673   7.488  0.00  0.00    +0.000 A 
ENDBRANCH   8  13
ENDBRANCH   2   8
ENDBRANCH   1   5
BRANCH   1  16
ATOM     16  N   UNL     1      47.624   7.384  14.747  0.00  0.00    +0.000 N 
ATOM     17  C   UNL     1      48.880   6.866  14.895  0.00  0.00    +0.000 C 
ATOM     18  O   UNL     1      49.748   6.993  14.032  0.00  0.00    +0.000 OA
ATOM     19  H   UNL     1      46.867   7.066  15.345  0.00  0.00    +0.000 HD
BRANCH  17  20
ATOM     20  C   UNL     1      49.168   6.206  16.178  0.00  0.00    +0.000 A 
ATOM     21  C   UNL     1      50.169   6.710  16.998  0.00  0.00    +0.000 A 
ATOM     22  S   UNL     1      50.337   5.872  18.474  0.00  0.00    +0.000 S 
ATOM     23  C   UNL     1      49.110   4.772  18.052  0.00  0.00    +0.000 A 
ATOM     24  N   UNL     1      48.764   3.757  18.888  0.00  0.00    +0.000 NA
ATOM     25  C   UNL     1      47.844   2.976  18.428  0.00  0.00    +0.000 A 
ATOM     26  N   UNL     1      47.233   3.124  17.210  0.00  0.00    +0.000 N 
ATOM     27  C   UNL     1      47.509   4.168  16.359  0.00  0.00    +0.000 A 
ATOM     28  O   UNL     1      46.878   4.322  15.320  0.00  0.00    +0.000 OA
ATOM     29  C   UNL     1      48.564   5.055  16.812  0.00  0.00    +0.000 A 
ATOM     30  H   UNL     1      46.504   2.492  16.915  0.00  0.00    +0.000 HD
ENDBRANCH  17  20
ENDBRANCH   1  16
TORSDOF 5
ENDMDL
MODEL 2
REMARK VINA RESULT:    -8.036      2.131      3.755
REMARK INTER + INTRA:         -11.344
REMARK INTER:                 -10.442
REMARK INTRA:                  -0.902
REMARK UNBOUND:                -0.959
REMARK  Name = 
REMARK  6 active torsions:
REMARK  status: ('A' for Active; 'I' for Inactive)
REMARK    1  A    between atoms: C_1  and  C_2
REMARK    2  A    between atoms: C_5  and  C_6
REMARK    3  A    between atoms: C_6  and  C_7
REMARK    4  A    between atoms: C_10  and  C_11
REMARK    5  A    between atoms: C_11  and  N_12
REMARK    6  A    between atoms: C_13  and  C_15
REMARK                            x       y       z     vdW  Elec       q    Type
REMARK                         _______ _______ _______ _____ _____    ______ ____
ROOT
ATOM      1  C   UNL     1      46.859   4.662  15.052  0.00  0.00    +0.000 C 
ENDROOT
BRANCH   1   5
ATOM      2  C   UNL     1      44.971   4.245  11.245  0.00  0.00    +0.000 A 
ATOM      3  C   UNL     1      45.331   5.518  11.694  0.00  0.00    +0.000 A 
ATOM      4  C   UNL     1      45.954   5.667  12.929  0.00  0.00    +0.000 A 
ATOM      5  C   UNL     1      46.188   4.537  13.704  0.00  0.00    +0.000 A 
ATOM      6  N   UNL     1      45.859   3.287  13.287  0.00  0.00    +0.000 NA
ATOM      7  C   UNL     1      45.273   3.169  12.073  0.00  0.00    +0.000 A 
BRANCH   2   8
ATOM      8  C   UNL     1      44.278   4.035   9.928  0.00  0.00    +0.000 C 
BRANCH   8  13
ATOM      9  C   UNL     1      47.905   2.053   5.916  0.00  0.00    +0.000 C 
ATOM     10  C   UNL     1      46.907   2.506   6.934  0.00  0.00    +0.000 A 
ATOM     11  C   UNL     1      46.340   1.623   7.852  0.00  0.00    +0.000 A 
ATOM     12  C   UNL     1      45.447   2.101   8.808  0.00  0.00    +0.000 A 
ATOM     13  C   UNL     1      45.145   3.462   8.832  0.00  0.00    +0.000 A 
ATOM     14  N   UNL     1      45.656   4.332   7.926  0.00  0.00    +0.000 NA
ATOM     15  C   UNL     1      46.514   3.837   7.004  0.00  0.00    +0.000 A 
ENDBRANCH   8  13
ENDBRANCH   2   8
ENDBRANCH   1   5
BRANCH   1  16
ATOM     16  N   UNL     1      47.641   5.872  15.159  0.00  0.00    +0.000 N 
ATOM     17  C   UNL     1      48.753   5.963  15.949  0.00  0.00    +0.000 C 
ATOM     18  O   UNL     1      49.163   5.013  16.616  0.00  0.00    +0.000 OA
ATOM     19  H   UNL     1      47.188   6.714  14.817  0.00  0.00    +0.000 HD
BRANCH  17  20
ATOM     20  C   UNL     1      49.484   7.239  15.906  0.00  0.00    +0.000 A 
ATOM     21  C   UNL     1      49.799   7.888  17.092  0.00  0.00    +0.000 A 
ATOM     22  S   UNL     1      50.699   9.320  16.875  0.00  0.00    +0.000 S 
ATOM     23  C   UNL     1      50.661   9.153  15.183  0.00  0.00    +0.000 A 
ATOM     24  N   UNL     1      51.242  10.080  14.375  0.00  0.00    +0.000 NA
ATOM     25  C   UNL     1      51.106   9.848  13.112  0.00  0.00    +0.000 A 
ATOM     26  N   UNL     1      50.449   8.767  12.584  0.00  0.00    +0.000 N 
ATOM     27  C   UNL     1      49.898   7.777  13.361  0.00  0.00    +0.000 A 
ATOM     28  O   UNL     1      49.400   6.778  12.854  0.00  0.00    +0.000 OA
ATOM     29  C   UNL     1      49.990   8.008  14.790  0.00  0.00    +0.000 A 
ATOM     30  H   UNL     1      50.395   8.630  11.586  0.00  0.00    +0.000 HD
ENDBRANCH  17  20
ENDBRANCH   1  16
TORSDOF 5
ENDMDL
MODEL 3
REMARK VINA RESULT:    -7.730      2.759      3.470
REMARK INTER + INTRA:         -10.948
REMARK INTER:                 -10.077
REMARK INTRA:                  -0.872
REMARK UNBOUND:                -0.959
REMARK  Name = 
REMARK  6 active torsions:
REMARK  status: ('A' for Active; 'I' for Inactive)
REMARK    1  A    between atoms: C_1  and  C_2
REMARK    2  A    between atoms: C_5  and  C_6
REMARK    3  A    between atoms: C_6  and  C_7
REMARK    4  A    between atoms: C_10  and  C_11
REMARK    5  A    between atoms: C_11  and  N_12
REMARK    6  A    between atoms: C_13  and  C_15
REMARK                            x       y       z     vdW  Elec       q    Type
REMARK                         _______ _______ _______ _____ _____    ______ ____
ROOT
ATOM      1  C   UNL     1      47.609   4.707  15.261  0.00  0.00    +0.000 C 
ENDROOT
BRANCH   1   5
ATOM      2  C   UNL     1      45.337   4.398  11.659  0.00  0.00    +0.000 A 
ATOM      3  C   UNL     1      45.897   5.629  12.010  0.00  0.00    +0.000 A 
ATOM      4  C   UNL     1      46.646   5.742  13.178  0.00  0.00    +0.000 A 
ATOM      5  C   UNL     1      46.805   4.621  13.985  0.00  0.00    +0.000 A 
ATOM      6  N   UNL     1      46.281   3.410  13.661  0.00  0.00    +0.000 NA
ATOM      7  C   UNL     1      45.574   3.325  12.510  0.00  0.00    +0.000 A 
BRANCH   2   8
ATOM      8  C   UNL     1      44.503   4.232  10.420  0.00  0.00    +0.000 C 
BRANCH   8  13
ATOM      9  C   UNL     1      47.627   2.139   6.056  0.00  0.00    +0.000 C 
ATOM     10  C   UNL     1      46.751   2.630   7.164  0.00  0.00    +0.000 A 
ATOM     11  C   UNL     1      46.119   1.755   8.045  0.00  0.00    +0.000 A 
ATOM     12  C   UNL     1      45.346   2.263   9.088  0.00  0.00    +0.000 A 
ATOM     13  C   UNL     1      45.229   3.645   9.233  0.00  0.00    +0.000 A 
ATOM     14  N   UNL     1      45.806   4.513   8.366  0.00  0.00    +0.000 NA
ATOM     15  C   UNL     1      46.543   3.991   7.358  0.00  0.00    +0.000 A 
ENDBRANCH   8  13
ENDBRANCH   2   8
ENDBRANCH   1   5
BRANCH   1  16
ATOM     16  N   UNL     1      47.699   6.062  15.756  0.00  0.00    +0.000 N 
ATOM     17  C   UNL     1      48.891   6.658  16.059  0.00  0.00    +0.000 C 
ATOM     18  O   UNL     1      49.968   6.078  15.923  0.00  0.00    +0.000 OA
ATOM     19  H   UNL     1      46.829   6.459  16.098  0.00  0.00    +0.000 HD
BRANCH  17  20
ATOM     20  C   UNL     1      48.829   8.063  16.490  0.00  0.00    +0.000 A 
ATOM     21  C   UNL     1      49.368   9.053  15.679  0.00  0.00    +0.000 A 
ATOM     22  S   UNL     1      49.162  10.632  16.289  0.00  0.00    +0.000 S 
ATOM     23  C   UNL     1      48.385  10.049  17.685  0.00  0.00    +0.000 A 
ATOM     24  N   UNL     1      47.961  10.902  18.657  0.00  0.00    +0.000 NA
ATOM     25  C   UNL     1      47.422  10.323  19.677  0.00  0.00    +0.000 A 
ATOM     26  N   UNL     1      47.258   8.968  19.809  0.00  0.00    +0.000 N 
ATOM     27  C   UNL     1      47.617   8.075  18.829  0.00  0.00    +0.000 A 
ATOM     28  O   UNL     1      47.372   6.879  18.941  0.00  0.00    +0.000 OA
ATOM     29  C   UNL     1      48.265   8.670  17.675  0.00  0.00    +0.000 A 
ATOM     30  H   UNL     1      46.809   8.577  20.623  0.00  0.00    +0.000 HD
ENDBRANCH  17  20
ENDBRANCH   1  16
TORSDOF 5
ENDMDL
MODEL 4
REMARK VINA RESULT:    -7.590      1.760      2.257
REMARK INTER + INTRA:         -10.768
REMARK INTER:                  -9.764
REMARK INTRA:                  -1.004
REMARK UNBOUND:                -0.959
REMARK  Name = 
REMARK  6 active torsions:
REMARK  status: ('A' for Active; 'I' for Inactive)
REMARK    1  A    between atoms: C_1  and  C_2
REMARK    2  A    between atoms: C_5  and  C_6
REMARK    3  A    between atoms: C_6  and  C_7
REMARK    4  A    between atoms: C_10  and  C_11
REMARK    5  A    between atoms: C_11  and  N_12
REMARK    6  A    between atoms: C_13  and  C_15
REMARK                            x       y       z     vdW  Elec       q    Type
REMARK                         _______ _______ _______ _____ _____    ______ ____
ROOT
ATOM      1  C   UNL     1      46.709   8.973  13.154  0.00  0.00    +0.000 C 
ENDROOT
BRANCH   1   5
ATOM      2  C   UNL     1      44.797   5.760  11.092  0.00  0.00    +0.000 A 
ATOM      3  C   UNL     1      45.978   5.513  11.797  0.00  0.00    +0.000 A 
ATOM      4  C   UNL     1      46.607   6.550  12.480  0.00  0.00    +0.000 A 
ATOM      5  C   UNL     1      46.051   7.823  12.428  0.00  0.00    +0.000 A 
ATOM      6  N   UNL     1      44.899   8.088  11.759  0.00  0.00    +0.000 NA
ATOM      7  C   UNL     1      44.298   7.057  11.121  0.00  0.00    +0.000 A 
BRANCH   2   8
ATOM      8  C   UNL     1      44.093   4.678  10.322  0.00  0.00    +0.000 C 
BRANCH   8  13
ATOM      9  C   UNL     1      47.123   1.411   6.670  0.00  0.00    +0.000 C 
ATOM     10  C   UNL     1      46.408   2.306   7.631  0.00  0.00    +0.000 A 
ATOM     11  C   UNL     1      46.420   3.693   7.493  0.00  0.00    +0.000 A 
ATOM     12  C   UNL     1      45.703   4.483   8.390  0.00  0.00    +0.000 A 
ATOM     13  C   UNL     1      44.978   3.864   9.407  0.00  0.00    +0.000 A 
ATOM     14  N   UNL     1      44.982   2.520   9.582  0.00  0.00    +0.000 NA
ATOM     15  C   UNL     1      45.694   1.779   8.701  0.00  0.00    +0.000 A 
ENDBRANCH   8  13
ENDBRANCH   2   8
ENDBRANCH   1   5
BRANCH   1  16
ATOM     16  N   UNL     1      47.131   8.603  14.486  0.00  0.00    +0.000 N 
ATOM     17  C   UNL     1      48.245   9.130  15.078  0.00  0.00    +0.000 C 
ATOM     18  O   UNL     1      48.958   9.960  14.515  0.00  0.00    +0.000 OA
ATOM     19  H   UNL     1      46.705   7.760  14.859  0.00  0.00    +0.000 HD
BRANCH  17  20
ATOM     20  C   UNL     1      48.511   8.708  16.462  0.00  0.00    +0.000 A 
ATOM     21  C   UNL     1      48.519   9.654  17.478  0.00  0.00    +0.000 A 
ATOM     22  S   UNL     1      48.781   8.998  19.030  0.00  0.00    +0.000 S 
ATOM     23  C   UNL     1      48.943   7.427  18.398  0.00  0.00    +0.000 A 
ATOM     24  N   UNL     1      49.208   6.369  19.211  0.00  0.00    +0.000 NA
ATOM     25  C   UNL     1      49.341   5.242  18.595  0.00  0.00    +0.000 A 
ATOM     26  N   UNL     1      49.224   5.075  17.240  0.00  0.00    +0.000 N 
ATOM     27  C   UNL     1      48.900   6.103  16.387  0.00  0.00    +0.000 A 
ATOM     28  O   UNL     1      48.712   5.900  15.193  0.00  0.00    +0.000 OA
ATOM     29  C   UNL     1      48.776   7.401  17.024  0.00  0.00    +0.000 A 
ATOM     30  H   UNL     1      49.318   4.163  16.819  0.00  0.00    +0.000 HD
ENDBRANCH  17  20
ENDBRANCH   1  16
TORSDOF 5
ENDMDL
MODEL 5
REMARK VINA RESULT:    -7.451      2.487      3.476
REMARK INTER + INTRA:         -10.588
REMARK INTER:                 -10.008
REMARK INTRA:                  -0.580
REMARK UNBOUND:                -0.959
REMARK  Name = 
REMARK  6 active torsions:
REMARK  status: ('A' for Active; 'I' for Inactive)
REMARK    1  A    between atoms: C_1  and  C_2
REMARK    2  A    between atoms: C_5  and  C_6
REMARK    3  A    between atoms: C_6  and  C_7
REMARK    4  A    between atoms: C_10  and  C_11
REMARK    5  A    between atoms: C_11  and  N_12
REMARK    6  A    between atoms: C_13  and  C_15
REMARK                            x       y       z     vdW  Elec       q    Type
REMARK                         _______ _______ _______ _____ _____    ______ ____
ROOT
ATOM      1  C   UNL     1      46.802   4.816  14.912  0.00  0.00    +0.000 C 
ENDROOT
BRANCH   1   5
ATOM      2  C   UNL     1      44.991   4.234  11.090  0.00  0.00    +0.000 A 
ATOM      3  C   UNL     1      45.557   5.474  11.396  0.00  0.00    +0.000 A 
ATOM      4  C   UNL     1      46.158   5.675  12.636  0.00  0.00    +0.000 A 
ATOM      5  C   UNL     1      46.162   4.633  13.557  0.00  0.00    +0.000 A 
ATOM      6  N   UNL     1      45.629   3.414  13.281  0.00  0.00    +0.000 NA
ATOM      7  C   UNL     1      45.070   3.241  12.060  0.00  0.00    +0.000 A 
BRANCH   2   8
ATOM      8  C   UNL     1      44.313   3.975   9.774  0.00  0.00    +0.000 C 
BRANCH   8  13
ATOM      9  C   UNL     1      48.038   2.081   5.810  0.00  0.00    +0.000 C 
ATOM     10  C   UNL     1      47.018   2.508   6.816  0.00  0.00    +0.000 A 
ATOM     11  C   UNL     1      46.477   1.617   7.740  0.00  0.00    +0.000 A 
ATOM     12  C   UNL     1      45.559   2.073   8.685  0.00  0.00    +0.000 A 
ATOM     13  C   UNL     1      45.208   3.422   8.691  0.00  0.00    +0.000 A 
ATOM     14  N   UNL     1      45.694   4.299   7.778  0.00  0.00    +0.000 NA
ATOM     15  C   UNL     1      46.576   3.825   6.867  0.00  0.00    +0.000 A 
ENDBRANCH   8  13
ENDBRANCH   2   8
ENDBRANCH   1   5
BRANCH   1  16
ATOM     16  N   UNL     1      47.864   5.796  14.884  0.00  0.00    +0.000 N 
ATOM     17  C   UNL     1      48.604   6.112  15.989  0.00  0.00    +0.000 C 
ATOM     18  O   UNL     1      48.417   5.575  17.080  0.00  0.00    +0.000 OA
ATOM     19  H   UNL     1      47.868   6.410  14.075  0.00  0.00    +0.000 HD
BRANCH  17  20
ATOM     20  C   UNL     1      49.694   7.080  15.791  0.00  0.00    +0.000 A 
ATOM     21  C   UNL     1      49.415   8.321  15.234  0.00  0.00    +0.000 A 
ATOM     22  S   UNL     1      50.771   9.350  15.128  0.00  0.00    +0.000 S 
ATOM     23  C   UNL     1      51.794   8.157  15.779  0.00  0.00    +0.000 A 
ATOM     24  N   UNL     1      53.125   8.389  15.939  0.00  0.00    +0.000 NA
ATOM     25  C   UNL     1      53.789   7.386  16.409  0.00  0.00    +0.000 A 
ATOM     26  N   UNL     1      53.241   6.175  16.743  0.00  0.00    +0.000 N 
ATOM     27  C   UNL     1      51.894   5.916  16.653  0.00  0.00    +0.000 A 
ATOM     28  O   UNL     1      51.425   4.855  17.047  0.00  0.00    +0.000 OA
ATOM     29  C   UNL     1      51.106   6.998  16.094  0.00  0.00    +0.000 A 
ATOM     30  H   UNL     1      53.810   5.436  17.126  0.00  0.00    +0.000 HD
ENDBRANCH  17  20
ENDBRANCH   1  16
TORSDOF 5
ENDMDL
MODEL 6
REMARK VINA RESULT:    -7.346      1.756      2.038
REMARK INTER + INTRA:         -10.453
REMARK INTER:                  -9.587
REMARK INTRA:                  -0.866
REMARK UNBOUND:                -0.959
REMARK  Name = 
REMARK  6 active torsions:
REMARK  status: ('A' for Active; 'I' for Inactive)
REMARK    1  A    between atoms: C_1  and  C_2
REMARK    2  A    between atoms: C_5  and  C_6
REMARK    3  A    between atoms: C_6  and  C_7
REMARK    4  A    between atoms: C_10  and  C_11
REMARK    5  A    between atoms: C_11  and  N_12
REMARK    6  A    between atoms: C_13  and  C_15
REMARK                            x       y       z     vdW  Elec       q    Type
REMARK                         _______ _______ _______ _____ _____    ______ ____
ROOT
ATOM      1  C   UNL     1      48.789   7.227  14.124  0.00  0.00    +0.000 C 
ENDROOT
BRANCH   1   5
ATOM      2  C   UNL     1      45.737   5.557  11.649  0.00  0.00    +0.000 A 
ATOM      3  C   UNL     1      46.256   6.816  11.339  0.00  0.00    +0.000 A 
ATOM      4  C   UNL     1      47.257   7.369  12.133  0.00  0.00    +0.000 A 
ATOM      5  C   UNL     1      47.707   6.656  13.239  0.00  0.00    +0.000 A 
ATOM      6  N   UNL     1      47.229   5.426  13.556  0.00  0.00    +0.000 NA
ATOM      7  C   UNL     1      46.271   4.904  12.755  0.00  0.00    +0.000 A 
BRANCH   2   8
ATOM      8  C   UNL     1      44.641   4.928  10.835  0.00  0.00    +0.000 C 
BRANCH   8  13
ATOM      9  C   UNL     1      46.822   1.756   6.549  0.00  0.00    +0.000 C 
ATOM     10  C   UNL     1      46.182   2.535   7.654  0.00  0.00    +0.000 A 
ATOM     11  C   UNL     1      45.571   1.908   8.738  0.00  0.00    +0.000 A 
ATOM     12  C   UNL     1      45.025   2.677   9.764  0.00  0.00    +0.000 A 
ATOM     13  C   UNL     1      45.111   4.067   9.687  0.00  0.00    +0.000 A 
ATOM     14  N   UNL     1      45.669   4.698   8.625  0.00  0.00    +0.000 NA
ATOM     15  C   UNL     1      46.182   3.925   7.639  0.00  0.00    +0.000 A 
ENDBRANCH   8  13
ENDBRANCH   2   8
ENDBRANCH   1   5
BRANCH   1  16
ATOM     16  N   UNL     1      48.544   6.961  15.523  0.00  0.00    +0.000 N 
ATOM     17  C   UNL     1      49.031   7.757  16.521  0.00  0.00    +0.000 C 
ATOM     18  O   UNL     1      49.708   8.759  16.290  0.00  0.00    +0.000 OA
ATOM     19  H   UNL     1      48.205   6.027  15.735  0.00  0.00    +0.000 HD
BRANCH  17  20
ATOM     20  C   UNL     1      48.644   7.397  17.894  0.00  0.00    +0.000 A 
ATOM     21  C   UNL     1      48.021   8.340  18.700  0.00  0.00    +0.000 A 
ATOM     22  S   UNL     1      47.580   7.750  20.238  0.00  0.00    +0.000 S 
ATOM     23  C   UNL     1      48.249   6.222  19.903  0.00  0.00    +0.000 A 
ATOM     24  N   UNL     1      48.228   5.230  20.833  0.00  0.00    +0.000 NA
ATOM     25  C   UNL     1      48.802   4.136  20.460  0.00  0.00    +0.000 A 
ATOM     26  N   UNL     1      49.387   3.940  19.236  0.00  0.00    +0.000 N 
ATOM     27  C   UNL     1      49.381   4.892  18.246  0.00  0.00    +0.000 A 
ATOM     28  O   UNL     1      49.831   4.651  17.131  0.00  0.00    +0.000 OA
ATOM     29  C   UNL     1      48.781   6.157  18.626  0.00  0.00    +0.000 A 
ATOM     30  H   UNL     1      49.803   3.053  18.996  0.00  0.00    +0.000 HD
ENDBRANCH  17  20
ENDBRANCH   1  16
TORSDOF 5
ENDMDL
MODEL 7
REMARK VINA RESULT:    -7.179      3.485      8.220
REMARK INTER + INTRA:         -10.237
REMARK INTER:                  -9.307
REMARK INTRA:                  -0.931
REMARK UNBOUND:                -0.959
REMARK  Name = 
REMARK  6 active torsions:
REMARK  status: ('A' for Active; 'I' for Inactive)
REMARK    1  A    between atoms: C_1  and  C_2
REMARK    2  A    between atoms: C_5  and  C_6
REMARK    3  A    between atoms: C_6  and  C_7
REMARK    4  A    between atoms: C_10  and  C_11
REMARK    5  A    between atoms: C_11  and  N_12
REMARK    6  A    between atoms: C_13  and  C_15
REMARK                            x       y       z     vdW  Elec       q    Type
REMARK                         _______ _______ _______ _____ _____    ______ ____
ROOT
ATOM      1  C   UNL     1      48.298   7.289  13.641  0.00  0.00    +0.000 C 
ENDROOT
BRANCH   1   5
ATOM      2  C   UNL     1      49.786   5.385  17.161  0.00  0.00    +0.000 A 
ATOM      3  C   UNL     1      50.540   6.396  16.560  0.00  0.00    +0.000 A 
ATOM      4  C   UNL     1      50.063   7.031  15.417  0.00  0.00    +0.000 A 
ATOM      5  C   UNL     1      48.845   6.626  14.883  0.00  0.00    +0.000 A 
ATOM      6  N   UNL     1      48.087   5.654  15.453  0.00  0.00    +0.000 NA
ATOM      7  C   UNL     1      48.565   5.068  16.576  0.00  0.00    +0.000 A 
BRANCH   2   8
ATOM      8  C   UNL     1      50.269   4.657  18.384  0.00  0.00    +0.000 C 
BRANCH   8  13
ATOM      9  C   UNL     1      53.839   0.179  17.761  0.00  0.00    +0.000 C 
ATOM     10  C   UNL     1      52.894   1.336  17.839  0.00  0.00    +0.000 A 
ATOM     11  C   UNL     1      51.591   1.255  17.352  0.00  0.00    +0.000 A 
ATOM     12  C   UNL     1      50.735   2.347  17.485  0.00  0.00    +0.000 A 
ATOM     13  C   UNL     1      51.202   3.501  18.114  0.00  0.00    +0.000 A 
ATOM     14  N   UNL     1      52.477   3.614  18.561  0.00  0.00    +0.000 NA
ATOM     15  C   UNL     1      53.287   2.540  18.410  0.00  0.00    +0.000 A 
ENDBRANCH   8  13
ENDBRANCH   2   8
ENDBRANCH   1   5
BRANCH   1  16
ATOM     16  N   UNL     1      47.496   6.385  12.849  0.00  0.00    +0.000 N 
ATOM     17  C   UNL     1      46.496   6.817  12.024  0.00  0.00    +0.000 C 
ATOM     18  O   UNL     1      46.219   8.009  11.898  0.00  0.00    +0.000 OA
ATOM     19  H   UNL     1      47.547   5.407  13.121  0.00  0.00    +0.000 HD
BRANCH  17  20
ATOM     20  C   UNL     1      45.810   5.785  11.232  0.00  0.00    +0.000 A 
ATOM     21  C   UNL     1      45.930   5.790   9.849  0.00  0.00    +0.000 A 
ATOM     22  S   UNL     1      45.128   4.495   9.082  0.00  0.00    +0.000 S 
ATOM     23  C   UNL     1      44.548   3.903  10.568  0.00  0.00    +0.000 A 
ATOM     24  N   UNL     1      43.754   2.800  10.619  0.00  0.00    +0.000 NA
ATOM     25  C   UNL     1      43.357   2.483  11.806  0.00  0.00    +0.000 A 
ATOM     26  N   UNL     1      43.689   3.165  12.948  0.00  0.00    +0.000 N 
ATOM     27  C   UNL     1      44.534   4.249  12.950  0.00  0.00    +0.000 A 
ATOM     28  O   UNL     1      44.883   4.778  13.999  0.00  0.00    +0.000 OA
ATOM     29  C   UNL     1      44.980   4.671  11.636  0.00  0.00    +0.000 A 
ATOM     30  H   UNL     1      43.363   2.855  13.851  0.00  0.00    +0.000 HD
ENDBRANCH  17  20
ENDBRANCH   1  16
TORSDOF 5
ENDMDL
MODEL 8
REMARK VINA RESULT:    -7.070      2.051      2.635
REMARK INTER + INTRA:         -10.096
REMARK INTER:                  -9.441
REMARK INTRA:                  -0.655
REMARK UNBOUND:                -0.959
REMARK  Name = 
REMARK  6 active torsions:
REMARK  status: ('A' for Active; 'I' for Inactive)
REMARK    1  A    between atoms: C_1  and  C_2
REMARK    2  A    between atoms: C_5  and  C_6
REMARK    3  A    between atoms: C_6  and  C_7
REMARK    4  A    between atoms: C_10  and  C_11
REMARK    5  A    between atoms: C_11  and  N_12
REMARK    6  A    between atoms: C_13  and  C_15
REMARK                            x       y       z     vdW  Elec       q    Type
REMARK                         _______ _______ _______ _____ _____    ______ ____
ROOT
ATOM      1  C   UNL     1      46.495   8.585  13.150  0.00  0.00    +0.000 C 
ENDROOT
BRANCH   1   5
ATOM      2  C   UNL     1      44.673   5.480  10.853  0.00  0.00    +0.000 A 
ATOM      3  C   UNL     1      46.052   5.447  11.076  0.00  0.00    +0.000 A 
ATOM      4  C   UNL     1      46.658   6.449  11.829  0.00  0.00    +0.000 A 
ATOM      5  C   UNL     1      45.871   7.480  12.331  0.00  0.00    +0.000 A 
ATOM      6  N   UNL     1      44.527   7.530  12.140  0.00  0.00    +0.000 NA
ATOM      7  C   UNL     1      43.963   6.532  11.421  0.00  0.00    +0.000 A 
BRANCH   2   8
ATOM      8  C   UNL     1      43.978   4.434  10.029  0.00  0.00    +0.000 C 
BRANCH   8  13
ATOM      9  C   UNL     1      47.685   1.800   6.492  0.00  0.00    +0.000 C 
ATOM     10  C   UNL     1      46.665   2.422   7.392  0.00  0.00    +0.000 A 
ATOM     11  C   UNL     1      46.008   1.688   8.378  0.00  0.00    +0.000 A 
ATOM     12  C   UNL     1      45.096   2.323   9.219  0.00  0.00    +0.000 A 
ATOM     13  C   UNL     1      44.865   3.689   9.060  0.00  0.00    +0.000 A 
ATOM     14  N   UNL     1      45.466   4.414   8.085  0.00  0.00    +0.000 NA
ATOM     15  C   UNL     1      46.340   3.768   7.277  0.00  0.00    +0.000 A 
ENDBRANCH   8  13
ENDBRANCH   2   8
ENDBRANCH   1   5
BRANCH   1  16
ATOM     16  N   UNL     1      47.867   8.297  13.497  0.00  0.00    +0.000 N 
ATOM     17  C   UNL     1      48.392   8.582  14.727  0.00  0.00    +0.000 C 
ATOM     18  O   UNL     1      47.724   9.098  15.621  0.00  0.00    +0.000 OA
ATOM     19  H   UNL     1      48.482   8.102  12.713  0.00  0.00    +0.000 HD
BRANCH  17  20
ATOM     20  C   UNL     1      49.786   8.170  14.954  0.00  0.00    +0.000 A 
ATOM     21  C   UNL     1      50.810   8.817  14.276  0.00  0.00    +0.000 A 
ATOM     22  S   UNL     1      52.369   8.267  14.696  0.00  0.00    +0.000 S 
ATOM     23  C   UNL     1      51.732   7.107  15.765  0.00  0.00    +0.000 A 
ATOM     24  N   UNL     1      52.549   6.264  16.450  0.00  0.00    +0.000 NA
ATOM     25  C   UNL     1      51.931   5.411  17.197  0.00  0.00    +0.000 A 
ATOM     26  N   UNL     1      50.569   5.332  17.329  0.00  0.00    +0.000 N 
ATOM     27  C   UNL     1      49.708   6.200  16.701  0.00  0.00    +0.000 A 
ATOM     28  O   UNL     1      48.501   6.160  16.913  0.00  0.00    +0.000 OA
ATOM     29  C   UNL     1      50.349   7.156  15.818  0.00  0.00    +0.000 A 
ATOM     30  H   UNL     1      50.146   4.656  17.946  0.00  0.00    +0.000 HD
ENDBRANCH  17  20
ENDBRANCH   1  16
TORSDOF 5
ENDMDL
MODEL 9
REMARK VINA RESULT:    -7.023      2.279      2.889
REMARK INTER + INTRA:         -10.035
REMARK INTER:                  -9.557
REMARK INTRA:                  -0.478
REMARK UNBOUND:                -0.959
REMARK  Name = 
REMARK  6 active torsions:
REMARK  status: ('A' for Active; 'I' for Inactive)
REMARK    1  A    between atoms: C_1  and  C_2
REMARK    2  A    between atoms: C_5  and  C_6
REMARK    3  A    between atoms: C_6  and  C_7
REMARK    4  A    between atoms: C_10  and  C_11
REMARK    5  A    between atoms: C_11  and  N_12
REMARK    6  A    between atoms: C_13  and  C_15
REMARK                            x       y       z     vdW  Elec       q    Type
REMARK                         _______ _______ _______ _____ _____    ______ ____
ROOT
ATOM      1  C   UNL     1      46.444   4.167  15.629  0.00  0.00    +0.000 C 
ENDROOT
BRANCH   1   5
ATOM      2  C   UNL     1      45.746   5.213  11.548  0.00  0.00    +0.000 A 
ATOM      3  C   UNL     1      46.772   5.850  12.252  0.00  0.00    +0.000 A 
ATOM      4  C   UNL     1      47.015   5.513  13.580  0.00  0.00    +0.000 A 
ATOM      5  C   UNL     1      46.211   4.555  14.188  0.00  0.00    +0.000 A 
ATOM      6  N   UNL     1      45.215   3.912  13.524  0.00  0.00    +0.000 NA
ATOM      7  C   UNL     1      45.014   4.245  12.228  0.00  0.00    +0.000 A 
BRANCH   2   8
ATOM      8  C   UNL     1      45.432   5.558  10.120  0.00  0.00    +0.000 C 
BRANCH   8  13
ATOM      9  C   UNL     1      46.849   1.382   6.413  0.00  0.00    +0.000 C 
ATOM     10  C   UNL     1      46.399   2.440   7.369  0.00  0.00    +0.000 A 
ATOM     11  C   UNL     1      45.624   2.139   8.488  0.00  0.00    +0.000 A 
ATOM     12  C   UNL     1      45.265   3.155   9.373  0.00  0.00    +0.000 A 
ATOM     13  C   UNL     1      45.698   4.456   9.122  0.00  0.00    +0.000 A 
ATOM     14  N   UNL     1      46.421   4.777   8.021  0.00  0.00    +0.000 NA
ATOM     15  C   UNL     1      46.748   3.771   7.175  0.00  0.00    +0.000 A 
ENDBRANCH   8  13
ENDBRANCH   2   8
ENDBRANCH   1   5
BRANCH   1  16
ATOM     16  N   UNL     1      47.849   4.132  15.962  0.00  0.00    +0.000 N 
ATOM     17  C   UNL     1      48.355   4.725  17.085  0.00  0.00    +0.000 C 
ATOM     18  O   UNL     1      47.640   5.323  17.890  0.00  0.00    +0.000 OA
ATOM     19  H   UNL     1      48.469   3.863  15.204  0.00  0.00    +0.000 HD
BRANCH  17  20
ATOM     20  C   UNL     1      49.795   4.550  17.325  0.00  0.00    +0.000 A 
ATOM     21  C   UNL     1      50.590   5.664  17.564  0.00  0.00    +0.000 A 
ATOM     22  S   UNL     1      52.223   5.289  17.884  0.00  0.00    +0.000 S 
ATOM     23  C   UNL     1      51.940   3.625  17.667  0.00  0.00    +0.000 A 
ATOM     24  N   UNL     1      52.952   2.723  17.780  0.00  0.00    +0.000 NA
ATOM     25  C   UNL     1      52.605   1.501  17.554  0.00  0.00    +0.000 A 
ATOM     26  N   UNL     1      51.334   1.096  17.237  0.00  0.00    +0.000 N 
ATOM     27  C   UNL     1      50.270   1.964  17.170  0.00  0.00    +0.000 A 
ATOM     28  O   UNL     1      49.131   1.556  16.975  0.00  0.00    +0.000 OA
ATOM     29  C   UNL     1      50.613   3.358  17.377  0.00  0.00    +0.000 A 
ATOM     30  H   UNL     1      51.121   0.121  17.093  0.00  0.00    +0.000 HD
ENDBRANCH  17  20
ENDBRANCH   1  16
TORSDOF 5
ENDMDL
