MODEL 1
REMARK VINA RESULT:    -6.570      0.000      0.000
REMARK INTER + INTRA:         -11.588
REMARK INTER:                 -10.027
REMARK INTRA:                  -1.561
REMARK UNBOUND:                -1.561
REMARK  Name = 
REMARK  11 active torsions:
REMARK  status: ('A' for Active; 'I' for Inactive)
REMARK    1  A    between atoms: C_1  and  C_2
REMARK    2  A    between atoms: C_2  and  N_3
REMARK    3  A    between atoms: C_2  and  C_21
REMARK    4  A    between atoms: N_3  and  C_4
REMARK    5  A    between atoms: C_4  and  C_5
REMARK    6  A    between atoms: C_8  and  C_9
REMARK    7  A    between atoms: C_9  and  O_10
REMARK    8  A    between atoms: C_9  and  C_11
REMARK    9  A    between atoms: C_11  and  N_12
REMARK   10  A    between atoms: C_16  and  C_17
REMARK   11  A    between atoms: C_17  and  O_18
REMARK                            x       y       z     vdW  Elec       q    Type
REMARK                         _______ _______ _______ _____ _____    ______ ____
ROOT
ATOM      1  C   UNL     1      48.053   7.245  14.424  0.00  0.00    +0.000 A 
ATOM      2  C   UNL     1      47.531   6.006  14.032  0.00  0.00    +0.000 A 
ATOM      3  C   UNL     1      46.529   5.923  13.061  0.00  0.00    +0.000 A 
ATOM      4  C   UNL     1      46.017   7.084  12.467  0.00  0.00    +0.000 A 
ATOM      5  C   UNL     1      46.529   8.328  12.874  0.00  0.00    +0.000 A 
ATOM      6  C   UNL     1      47.537   8.407  13.840  0.00  0.00    +0.000 A 
ENDROOT
BRANCH   1   7
ATOM      7  C   UNL     1      49.096   7.327  15.515  0.00  0.00    +0.000 C 
BRANCH   7   8
ATOM      8  N   UNL     1      48.497   7.512  16.840  0.00  0.00    +0.000 NA
ATOM      9  H   UNL     1      47.520   7.233  16.786  0.00  0.00    +0.000 HD
BRANCH   8  11
ATOM     10  C   UNL     1      48.737   7.117  19.301  0.00  0.00    +0.000 C 
ATOM     11  C   UNL     1      49.155   6.704  17.884  0.00  0.00    +0.000 C 
BRANCH  11  12
ATOM     12  C   UNL     1      48.825   5.235  17.641  0.00  0.00    +0.000 A 
ATOM     13  C   UNL     1      47.553   4.693  17.533  0.00  0.00    +0.000 A 
ATOM     14  S   UNL     1      47.556   3.009  17.232  0.00  0.00    +0.000 S 
ATOM     15  C   UNL     1      49.254   2.936  17.307  0.00  0.00    +0.000 A 
ATOM     16  N   UNL     1      49.921   1.758  17.161  0.00  0.00    +0.000 NA
ATOM     17  C   UNL     1      51.201   1.854  17.294  0.00  0.00    +0.000 A 
ATOM     18  N   UNL     1      51.881   3.019  17.552  0.00  0.00    +0.000 N 
ATOM     19  C   UNL     1      51.255   4.236  17.679  0.00  0.00    +0.000 A 
ATOM     20  O   UNL     1      51.889   5.265  17.898  0.00  0.00    +0.000 OA
ATOM     21  C   UNL     1      49.810   4.180  17.545  0.00  0.00    +0.000 A 
ATOM     22  H   UNL     1      52.883   3.020  17.659  0.00  0.00    +0.000 HD
ENDBRANCH  11  12
ENDBRANCH   8  11
ENDBRANCH   7   8
ENDBRANCH   1   7
BRANCH   4  23
ATOM     23  C   UNL     1      44.991   6.979  11.349  0.00  0.00    +0.000 C 
BRANCH  23  24
ATOM     24  O   UNL     1      44.549   8.306  11.040  0.00  0.00    +0.000 OA
ATOM     25  H   UNL     1      45.125   8.678  10.351  0.00  0.00    +0.000 HD
ENDBRANCH  23  24
BRANCH  23  26
ATOM     26  C   UNL     1      43.788   6.060  11.723  0.00  0.00    +0.000 C 
BRANCH  26  27
ATOM     27  N   UNL     1      43.502   4.910  10.814  0.00  0.00    +0.000 NA
ATOM     28  C   UNL     1      43.008   3.714  11.528  0.00  0.00    +0.000 C 
ATOM     29  C   UNL     1      44.248   3.074  12.113  0.00  0.00    +0.000 C 
ATOM     30  C   UNL     1      45.248   3.213  10.979  0.00  0.00    +0.000 C 
ATOM     31  C   UNL     1      44.777   4.439  10.183  0.00  0.00    +0.000 C 
BRANCH  31  32
ATOM     32  C   UNL     1      44.527   4.093   8.703  0.00  0.00    +0.000 C 
BRANCH  32  33
ATOM     33  O   UNL     1      45.660   4.468   7.922  0.00  0.00    +0.000 OA
ATOM     34  H   UNL     1      46.414   4.032   8.368  0.00  0.00    +0.000 HD
ENDBRANCH  32  33
ENDBRANCH  31  32
ENDBRANCH  26  27
ENDBRANCH  23  26
ENDBRANCH   4  23
TORSDOF 10
ENDMDL
MODEL 2
REMARK VINA RESULT:    -6.465      2.386      3.269
REMARK INTER + INTRA:         -11.428
REMARK INTER:                 -11.885
REMARK INTRA:                   0.457
REMARK UNBOUND:                -1.561
REMARK  Name = 
REMARK  11 active torsions:
REMARK  status: ('A' for Active; 'I' for Inactive)
REMARK    1  A    between atoms: C_1  and  C_2
REMARK    2  A    between atoms: C_2  and  N_3
REMARK    3  A    between atoms: C_2  and  C_21
REMARK    4  A    between atoms: N_3  and  C_4
REMARK    5  A    between atoms: C_4  and  C_5
REMARK    6  A    between atoms: C_8  and  C_9
REMARK    7  A    between atoms: C_9  and  O_10
REMARK    8  A    between atoms: C_9  and  C_11
REMARK    9  A    between atoms: C_11  and  N_12
REMARK   10  A    between atoms: C_16  and  C_17
REMARK   11  A    between atoms: C_17  and  O_18
REMARK                            x       y       z     vdW  Elec       q    Type
REMARK                         _______ _______ _______ _____ _____    ______ ____
ROOT
ATOM      1  C   UNL     1      46.370   4.658  13.782  0.00  0.00    +0.000 A 
ATOM      2  C   UNL     1      45.755   3.664  13.011  0.00  0.00    +0.000 A 
ATOM      3  C   UNL     1      45.341   3.923  11.702  0.00  0.00    +0.000 A 
ATOM      4  C   UNL     1      45.524   5.191  11.136  0.00  0.00    +0.000 A 
ATOM      5  C   UNL     1      46.125   6.194  11.916  0.00  0.00    +0.000 A 
ATOM      6  C   UNL     1      46.545   5.929  13.223  0.00  0.00    +0.000 A 
ENDROOT
BRANCH   1   7
ATOM      7  C   UNL     1      46.763   4.384  15.216  0.00  0.00    +0.000 C 
BRANCH   7   8
ATOM      8  N   UNL     1      48.154   4.758  15.489  0.00  0.00    +0.000 NA
ATOM      9  H   UNL     1      48.413   5.500  14.843  0.00  0.00    +0.000 HD
BRANCH   8  11
ATOM     10  C   UNL     1      47.363   4.633  17.861  0.00  0.00    +0.000 C 
ATOM     11  C   UNL     1      48.355   5.247  16.865  0.00  0.00    +0.000 C 
BRANCH  11  12
ATOM     12  C   UNL     1      49.788   4.936  17.286  0.00  0.00    +0.000 A 
ATOM     13  C   UNL     1      50.752   5.867  17.643  0.00  0.00    +0.000 A 
ATOM     14  S   UNL     1      52.246   5.162  18.087  0.00  0.00    +0.000 S 
ATOM     15  C   UNL     1      51.677   3.595  17.749  0.00  0.00    +0.000 A 
ATOM     16  N   UNL     1      52.478   2.502  17.891  0.00  0.00    +0.000 NA
ATOM     17  C   UNL     1      51.921   1.389  17.547  0.00  0.00    +0.000 A 
ATOM     18  N   UNL     1      50.636   1.263  17.082  0.00  0.00    +0.000 N 
ATOM     19  C   UNL     1      49.781   2.330  16.950  0.00  0.00    +0.000 A 
ATOM     20  O   UNL     1      48.631   2.186  16.543  0.00  0.00    +0.000 OA
ATOM     21  C   UNL     1      50.363   3.609  17.317  0.00  0.00    +0.000 A 
ATOM     22  H   UNL     1      50.269   0.362  16.818  0.00  0.00    +0.000 HD
ENDBRANCH  11  12
ENDBRANCH   8  11
ENDBRANCH   7   8
ENDBRANCH   1   7
BRANCH   4  23
ATOM     23  C   UNL     1      45.152   5.438   9.682  0.00  0.00    +0.000 C 
BRANCH  23  24
ATOM     24  O   UNL     1      43.878   4.825   9.450  0.00  0.00    +0.000 OA
ATOM     25  H   UNL     1      43.530   5.136   8.599  0.00  0.00    +0.000 HD
ENDBRANCH  23  24
BRANCH  23  26
ATOM     26  C   UNL     1      46.225   4.895   8.688  0.00  0.00    +0.000 C 
BRANCH  26  27
ATOM     27  N   UNL     1      45.745   4.009   7.586  0.00  0.00    +0.000 NA
ATOM     28  C   UNL     1      44.778   2.989   8.039  0.00  0.00    +0.000 C 
ATOM     29  C   UNL     1      45.625   1.908   8.675  0.00  0.00    +0.000 C 
ATOM     30  C   UNL     1      46.797   1.811   7.714  0.00  0.00    +0.000 C 
ATOM     31  C   UNL     1      46.890   3.197   7.060  0.00  0.00    +0.000 C 
BRANCH  31  32
ATOM     32  C   UNL     1      46.801   3.108   5.525  0.00  0.00    +0.000 C 
BRANCH  32  33
ATOM     33  O   UNL     1      48.063   2.714   4.991  0.00  0.00    +0.000 OA
ATOM     34  H   UNL     1      48.264   1.871   5.446  0.00  0.00    +0.000 HD
ENDBRANCH  32  33
ENDBRANCH  31  32
ENDBRANCH  26  27
ENDBRANCH  23  26
ENDBRANCH   4  23
TORSDOF 10
ENDMDL
MODEL 3
REMARK VINA RESULT:    -6.216      1.502      2.093
REMARK INTER + INTRA:         -11.047
REMARK INTER:                  -9.423
REMARK INTRA:                  -1.624
REMARK UNBOUND:                -1.561
REMARK  Name = 
REMARK  11 active torsions:
REMARK  status: ('A' for Active; 'I' for Inactive)
REMARK    1  A    between atoms: C_1  and  C_2
REMARK    2  A    between atoms: C_2  and  N_3
REMARK    3  A    between atoms: C_2  and  C_21
REMARK    4  A    between atoms: N_3  and  C_4
REMARK    5  A    between atoms: C_4  and  C_5
REMARK    6  A    between atoms: C_8  and  C_9
REMARK    7  A    between atoms: C_9  and  O_10
REMARK    8  A    between atoms: C_9  and  C_11
REMARK    9  A    between atoms: C_11  and  N_12
REMARK   10  A    between atoms: C_16  and  C_17
REMARK   11  A    between atoms: C_17  and  O_18
REMARK                            x       y       z     vdW  Elec       q    Type
REMARK                         _______ _______ _______ _____ _____    ______ ____
ROOT
ATOM      1  C   UNL     1      48.922   7.805  16.018  0.00  0.00    +0.000 A 
ATOM      2  C   UNL     1      48.274   8.947  15.530  0.00  0.00    +0.000 A 
ATOM      3  C   UNL     1      47.676   8.949  14.266  0.00  0.00    +0.000 A 
ATOM      4  C   UNL     1      47.722   7.808  13.455  0.00  0.00    +0.000 A 
ATOM      5  C   UNL     1      48.387   6.668  13.938  0.00  0.00    +0.000 A 
ATOM      6  C   UNL     1      48.978   6.666  15.206  0.00  0.00    +0.000 A 
ENDROOT
BRANCH   1   7
ATOM      7  C   UNL     1      49.614   7.831  17.361  0.00  0.00    +0.000 C 
BRANCH   7   8
ATOM      8  N   UNL     1      48.694   7.531  18.463  0.00  0.00    +0.000 NA
ATOM      9  H   UNL     1      47.768   7.382  18.068  0.00  0.00    +0.000 HD
BRANCH   8  11
ATOM     10  C   UNL     1      48.431   6.265  20.606  0.00  0.00    +0.000 C 
ATOM     11  C   UNL     1      49.079   6.324  19.217  0.00  0.00    +0.000 C 
BRANCH  11  12
ATOM     12  C   UNL     1      48.692   5.096  18.399  0.00  0.00    +0.000 A 
ATOM     13  C   UNL     1      47.415   4.780  17.959  0.00  0.00    +0.000 A 
ATOM     14  S   UNL     1      47.352   3.337  17.041  0.00  0.00    +0.000 S 
ATOM     15  C   UNL     1      49.014   3.051  17.262  0.00  0.00    +0.000 A 
ATOM     16  N   UNL     1      49.618   1.943  16.748  0.00  0.00    +0.000 NA
ATOM     17  C   UNL     1      50.871   1.839  17.042  0.00  0.00    +0.000 A 
ATOM     18  N   UNL     1      51.581   2.741  17.795  0.00  0.00    +0.000 N 
ATOM     19  C   UNL     1      51.023   3.887  18.309  0.00  0.00    +0.000 A 
ATOM     20  O   UNL     1      51.685   4.684  18.969  0.00  0.00    +0.000 OA
ATOM     21  C   UNL     1      49.611   4.048  18.013  0.00  0.00    +0.000 A 
ATOM     22  H   UNL     1      52.556   2.590  17.999  0.00  0.00    +0.000 HD
ENDBRANCH  11  12
ENDBRANCH   8  11
ENDBRANCH   7   8
ENDBRANCH   1   7
BRANCH   4  23
ATOM     23  C   UNL     1      46.992   7.791  12.122  0.00  0.00    +0.000 C 
BRANCH  23  24
ATOM     24  O   UNL     1      45.861   8.663  12.235  0.00  0.00    +0.000 OA
ATOM     25  H   UNL     1      46.158   9.580  12.122  0.00  0.00    +0.000 HD
ENDBRANCH  23  24
BRANCH  23  26
ATOM     26  C   UNL     1      46.553   6.356  11.696  0.00  0.00    +0.000 C 
BRANCH  26  27
ATOM     27  N   UNL     1      45.219   5.882  12.171  0.00  0.00    +0.000 NA
ATOM     28  C   UNL     1      45.308   4.872  13.245  0.00  0.00    +0.000 C 
ATOM     29  C   UNL     1      45.625   3.576  12.530  0.00  0.00    +0.000 C 
ATOM     30  C   UNL     1      44.726   3.653  11.309  0.00  0.00    +0.000 C 
ATOM     31  C   UNL     1      44.520   5.155  11.063  0.00  0.00    +0.000 C 
BRANCH  31  32
ATOM     32  C   UNL     1      43.026   5.530  11.057  0.00  0.00    +0.000 C 
BRANCH  32  33
ATOM     33  O   UNL     1      42.881   6.936  11.246  0.00  0.00    +0.000 OA
ATOM     34  H   UNL     1      43.784   7.291  11.118  0.00  0.00    +0.000 HD
ENDBRANCH  32  33
ENDBRANCH  31  32
ENDBRANCH  26  27
ENDBRANCH  23  26
ENDBRANCH   4  23
TORSDOF 10
ENDMDL
MODEL 4
REMARK VINA RESULT:    -6.026      2.169      3.016
REMARK INTER + INTRA:         -10.758
REMARK INTER:                  -9.833
REMARK INTRA:                  -0.925
REMARK UNBOUND:                -1.561
REMARK  Name = 
REMARK  11 active torsions:
REMARK  status: ('A' for Active; 'I' for Inactive)
REMARK    1  A    between atoms: C_1  and  C_2
REMARK    2  A    between atoms: C_2  and  N_3
REMARK    3  A    between atoms: C_2  and  C_21
REMARK    4  A    between atoms: N_3  and  C_4
REMARK    5  A    between atoms: C_4  and  C_5
REMARK    6  A    between atoms: C_8  and  C_9
REMARK    7  A    between atoms: C_9  and  O_10
REMARK    8  A    between atoms: C_9  and  C_11
REMARK    9  A    between atoms: C_11  and  N_12
REMARK   10  A    between atoms: C_16  and  C_17
REMARK   11  A    between atoms: C_17  and  O_18
REMARK                            x       y       z     vdW  Elec       q    Type
REMARK                         _______ _______ _______ _____ _____    ______ ____
ROOT
ATOM      1  C   UNL     1      48.081   5.021  16.267  0.00  0.00    +0.000 A 
ATOM      2  C   UNL     1      47.329   4.081  15.552  0.00  0.00    +0.000 A 
ATOM      3  C   UNL     1      46.847   4.369  14.272  0.00  0.00    +0.000 A 
ATOM      4  C   UNL     1      47.100   5.613  13.680  0.00  0.00    +0.000 A 
ATOM      5  C   UNL     1      47.841   6.563  14.405  0.00  0.00    +0.000 A 
ATOM      6  C   UNL     1      48.328   6.269  15.683  0.00  0.00    +0.000 A 
ENDROOT
BRANCH   1   7
ATOM      7  C   UNL     1      48.549   4.720  17.672  0.00  0.00    +0.000 C 
BRANCH   7   8
ATOM      8  N   UNL     1      49.773   5.451  18.016  0.00  0.00    +0.000 NA
ATOM      9  H   UNL     1      50.060   5.162  18.950  0.00  0.00    +0.000 HD
BRANCH   8  11
ATOM     10  C   UNL     1      51.476   6.465  16.488  0.00  0.00    +0.000 C 
ATOM     11  C   UNL     1      50.882   5.182  17.083  0.00  0.00    +0.000 C 
BRANCH  11  12
ATOM     12  C   UNL     1      51.957   4.393  17.822  0.00  0.00    +0.000 A 
ATOM     13  C   UNL     1      53.017   4.932  18.537  0.00  0.00    +0.000 A 
ATOM     14  S   UNL     1      54.018   3.750  19.263  0.00  0.00    +0.000 S 
ATOM     15  C   UNL     1      53.111   2.479  18.588  0.00  0.00    +0.000 A 
ATOM     16  N   UNL     1      53.452   1.176  18.793  0.00  0.00    +0.000 NA
ATOM     17  C   UNL     1      52.701   0.328  18.174  0.00  0.00    +0.000 A 
ATOM     18  N   UNL     1      51.634   0.658  17.375  0.00  0.00    +0.000 N 
ATOM     19  C   UNL     1      51.233   1.955  17.162  0.00  0.00    +0.000 A 
ATOM     20  O   UNL     1      50.267   2.221  16.453  0.00  0.00    +0.000 OA
ATOM     21  C   UNL     1      52.053   2.950  17.831  0.00  0.00    +0.000 A 
ATOM     22  H   UNL     1      51.097  -0.057  16.910  0.00  0.00    +0.000 HD
ENDBRANCH  11  12
ENDBRANCH   8  11
ENDBRANCH   7   8
ENDBRANCH   1   7
BRANCH   4  23
ATOM     23  C   UNL     1      46.650   5.885  12.253  0.00  0.00    +0.000 C 
BRANCH  23  24
ATOM     24  O   UNL     1      47.549   6.847  11.690  0.00  0.00    +0.000 OA
ATOM     25  H   UNL     1      48.390   6.408  11.482  0.00  0.00    +0.000 HD
ENDBRANCH  23  24
BRANCH  23  26
ATOM     26  C   UNL     1      45.174   6.383  12.175  0.00  0.00    +0.000 C 
BRANCH  26  27
ATOM     27  N   UNL     1      44.225   5.574  11.352  0.00  0.00    +0.000 NA
ATOM     28  C   UNL     1      42.885   5.453  11.961  0.00  0.00    +0.000 C 
ATOM     29  C   UNL     1      43.037   4.381  13.019  0.00  0.00    +0.000 C 
ATOM     30  C   UNL     1      43.907   3.355  12.315  0.00  0.00    +0.000 C 
ATOM     31  C   UNL     1      44.706   4.157  11.277  0.00  0.00    +0.000 C 
BRANCH  31  32
ATOM     32  C   UNL     1      44.496   3.612   9.852  0.00  0.00    +0.000 C 
BRANCH  32  33
ATOM     33  O   UNL     1      44.466   4.692   8.922  0.00  0.00    +0.000 OA
ATOM     34  H   UNL     1      44.673   5.481   9.462  0.00  0.00    +0.000 HD
ENDBRANCH  32  33
ENDBRANCH  31  32
ENDBRANCH  26  27
ENDBRANCH  23  26
ENDBRANCH   4  23
TORSDOF 10
ENDMDL
MODEL 5
REMARK VINA RESULT:    -5.993      2.198      2.941
REMARK INTER + INTRA:         -10.706
REMARK INTER:                  -9.188
REMARK INTRA:                  -1.519
REMARK UNBOUND:                -1.561
REMARK  Name = 
REMARK  11 active torsions:
REMARK  status: ('A' for Active; 'I' for Inactive)
REMARK    1  A    between atoms: C_1  and  C_2
REMARK    2  A    between atoms: C_2  and  N_3
REMARK    3  A    between atoms: C_2  and  C_21
REMARK    4  A    between atoms: N_3  and  C_4
REMARK    5  A    between atoms: C_4  and  C_5
REMARK    6  A    between atoms: C_8  and  C_9
REMARK    7  A    between atoms: C_9  and  O_10
REMARK    8  A    between atoms: C_9  and  C_11
REMARK    9  A    between atoms: C_11  and  N_12
REMARK   10  A    between atoms: C_16  and  C_17
REMARK   11  A    between atoms: C_17  and  O_18
REMARK                            x       y       z     vdW  Elec       q    Type
REMARK                         _______ _______ _______ _____ _____    ______ ____
ROOT
ATOM      1  C   UNL     1      48.460   7.826  13.790  0.00  0.00    +0.000 A 
ATOM      2  C   UNL     1      47.859   6.572  13.626  0.00  0.00    +0.000 A 
ATOM      3  C   UNL     1      46.680   6.430  12.889  0.00  0.00    +0.000 A 
ATOM      4  C   UNL     1      46.067   7.546  12.305  0.00  0.00    +0.000 A 
ATOM      5  C   UNL     1      46.661   8.807  12.485  0.00  0.00    +0.000 A 
ATOM      6  C   UNL     1      47.845   8.945  13.216  0.00  0.00    +0.000 A 
ENDROOT
BRANCH   1   7
ATOM      7  C   UNL     1      49.703   7.976  14.636  0.00  0.00    +0.000 C 
BRANCH   7   8
ATOM      8  N   UNL     1      50.339   6.685  14.918  0.00  0.00    +0.000 NA
ATOM      9  H   UNL     1      50.944   6.454  14.132  0.00  0.00    +0.000 HD
BRANCH   8  11
ATOM     10  C   UNL     1      52.393   7.601  16.016  0.00  0.00    +0.000 C 
ATOM     11  C   UNL     1      51.155   6.705  16.145  0.00  0.00    +0.000 C 
BRANCH  11  12
ATOM     12  C   UNL     1      50.280   7.174  17.303  0.00  0.00    +0.000 A 
ATOM     13  C   UNL     1      50.547   8.245  18.143  0.00  0.00    +0.000 A 
ATOM     14  S   UNL     1      49.331   8.504  19.319  0.00  0.00    +0.000 S 
ATOM     15  C   UNL     1      48.445   7.152  18.790  0.00  0.00    +0.000 A 
ATOM     16  N   UNL     1      47.284   6.781  19.399  0.00  0.00    +0.000 NA
ATOM     17  C   UNL     1      46.754   5.707  18.919  0.00  0.00    +0.000 A 
ATOM     18  N   UNL     1      47.269   4.971  17.880  0.00  0.00    +0.000 N 
ATOM     19  C   UNL     1      48.419   5.322  17.215  0.00  0.00    +0.000 A 
ATOM     20  O   UNL     1      48.850   4.652  16.280  0.00  0.00    +0.000 OA
ATOM     21  C   UNL     1      49.060   6.521  17.723  0.00  0.00    +0.000 A 
ATOM     22  H   UNL     1      46.809   4.132  17.563  0.00  0.00    +0.000 HD
ENDBRANCH  11  12
ENDBRANCH   8  11
ENDBRANCH   7   8
ENDBRANCH   1   7
BRANCH   4  23
ATOM     23  C   UNL     1      44.836   7.370  11.431  0.00  0.00    +0.000 C 
BRANCH  23  24
ATOM     24  O   UNL     1      44.178   8.640  11.347  0.00  0.00    +0.000 OA
ATOM     25  H   UNL     1      44.569   9.241  12.001  0.00  0.00    +0.000 HD
ENDBRANCH  23  24
BRANCH  23  26
ATOM     26  C   UNL     1      43.869   6.272  11.971  0.00  0.00    +0.000 C 
BRANCH  26  27
ATOM     27  N   UNL     1      43.565   5.126  11.063  0.00  0.00    +0.000 NA
ATOM     28  C   UNL     1      42.952   3.977  11.762  0.00  0.00    +0.000 C 
ATOM     29  C   UNL     1      44.111   3.270  12.432  0.00  0.00    +0.000 C 
ATOM     30  C   UNL     1      45.185   3.325  11.360  0.00  0.00    +0.000 C 
ATOM     31  C   UNL     1      44.843   4.564  10.519  0.00  0.00    +0.000 C 
BRANCH  31  32
ATOM     32  C   UNL     1      44.661   4.208   9.031  0.00  0.00    +0.000 C 
BRANCH  32  33
ATOM     33  O   UNL     1      45.551   4.989   8.237  0.00  0.00    +0.000 OA
ATOM     34  H   UNL     1      46.045   5.528   8.887  0.00  0.00    +0.000 HD
ENDBRANCH  32  33
ENDBRANCH  31  32
ENDBRANCH  26  27
ENDBRANCH  23  26
ENDBRANCH   4  23
TORSDOF 10
ENDMDL
MODEL 6
REMARK VINA RESULT:    -5.888      2.327      7.617
REMARK INTER + INTRA:         -10.546
REMARK INTER:                  -9.122
REMARK INTRA:                  -1.424
REMARK UNBOUND:                -1.561
REMARK  Name = 
REMARK  11 active torsions:
REMARK  status: ('A' for Active; 'I' for Inactive)
REMARK    1  A    between atoms: C_1  and  C_2
REMARK    2  A    between atoms: C_2  and  N_3
REMARK    3  A    between atoms: C_2  and  C_21
REMARK    4  A    between atoms: N_3  and  C_4
REMARK    5  A    between atoms: C_4  and  C_5
REMARK    6  A    between atoms: C_8  and  C_9
REMARK    7  A    between atoms: C_9  and  O_10
REMARK    8  A    between atoms: C_9  and  C_11
REMARK    9  A    between atoms: C_11  and  N_12
REMARK   10  A    between atoms: C_16  and  C_17
REMARK   11  A    between atoms: C_17  and  O_18
REMARK                            x       y       z     vdW  Elec       q    Type
REMARK                         _______ _______ _______ _____ _____    ______ ____
ROOT
ATOM      1  C   UNL     1      49.201   9.258  15.187  0.00  0.00    +0.000 A 
ATOM      2  C   UNL     1      48.260   8.995  16.190  0.00  0.00    +0.000 A 
ATOM      3  C   UNL     1      48.572   8.164  17.269  0.00  0.00    +0.000 A 
ATOM      4  C   UNL     1      49.835   7.566  17.364  0.00  0.00    +0.000 A 
ATOM      5  C   UNL     1      50.773   7.816  16.348  0.00  0.00    +0.000 A 
ATOM      6  C   UNL     1      50.461   8.654  15.273  0.00  0.00    +0.000 A 
ENDROOT
BRANCH   1   7
ATOM      7  C   UNL     1      48.834  10.112  13.996  0.00  0.00    +0.000 C 
BRANCH   7   8
ATOM      8  N   UNL     1      47.457   9.877  13.550  0.00  0.00    +0.000 NA
ATOM      9  H   UNL     1      47.016  10.782  13.398  0.00  0.00    +0.000 HD
BRANCH   8  11
ATOM     10  C   UNL     1      48.753   8.955  11.616  0.00  0.00    +0.000 C 
ATOM     11  C   UNL     1      47.385   9.108  12.295  0.00  0.00    +0.000 C 
BRANCH  11  12
ATOM     12  C   UNL     1      46.789   7.738  12.599  0.00  0.00    +0.000 A 
ATOM     13  C   UNL     1      47.437   6.691  13.238  0.00  0.00    +0.000 A 
ATOM     14  S   UNL     1      46.454   5.305  13.438  0.00  0.00    +0.000 S 
ATOM     15  C   UNL     1      45.155   6.031  12.614  0.00  0.00    +0.000 A 
ATOM     16  N   UNL     1      43.987   5.364  12.401  0.00  0.00    +0.000 NA
ATOM     17  C   UNL     1      43.115   6.027  11.718  0.00  0.00    +0.000 A 
ATOM     18  N   UNL     1      43.297   7.298  11.232  0.00  0.00    +0.000 N 
ATOM     19  C   UNL     1      44.445   8.022  11.446  0.00  0.00    +0.000 A 
ATOM     20  O   UNL     1      44.576   9.163  11.011  0.00  0.00    +0.000 OA
ATOM     21  C   UNL     1      45.463   7.317  12.205  0.00  0.00    +0.000 A 
ATOM     22  H   UNL     1      42.577   7.752  10.692  0.00  0.00    +0.000 HD
ENDBRANCH  11  12
ENDBRANCH   8  11
ENDBRANCH   7   8
ENDBRANCH   1   7
BRANCH   4  23
ATOM     23  C   UNL     1      50.196   6.736  18.586  0.00  0.00    +0.000 C 
BRANCH  23  24
ATOM     24  O   UNL     1      51.603   6.476  18.535  0.00  0.00    +0.000 OA
ATOM     25  H   UNL     1      52.069   7.303  18.327  0.00  0.00    +0.000 HD
ENDBRANCH  23  24
BRANCH  23  26
ATOM     26  C   UNL     1      49.383   5.407  18.671  0.00  0.00    +0.000 C 
BRANCH  26  27
ATOM     27  N   UNL     1      49.439   4.499  17.486  0.00  0.00    +0.000 NA
ATOM     28  C   UNL     1      48.338   4.726  16.527  0.00  0.00    +0.000 C 
ATOM     29  C   UNL     1      47.144   4.023  17.137  0.00  0.00    +0.000 C 
ATOM     30  C   UNL     1      47.760   2.736  17.659  0.00  0.00    +0.000 C 
ATOM     31  C   UNL     1      49.231   3.083  17.929  0.00  0.00    +0.000 C 
BRANCH  31  32
ATOM     32  C   UNL     1      50.185   2.152  17.157  0.00  0.00    +0.000 C 
BRANCH  32  33
ATOM     33  O   UNL     1      49.518   1.619  16.015  0.00  0.00    +0.000 OA
ATOM     34  H   UNL     1      50.020   0.806  15.801  0.00  0.00    +0.000 HD
ENDBRANCH  32  33
ENDBRANCH  31  32
ENDBRANCH  26  27
ENDBRANCH  23  26
ENDBRANCH   4  23
TORSDOF 10
ENDMDL
MODEL 7
REMARK VINA RESULT:    -5.721      2.847      8.813
REMARK INTER + INTRA:         -10.293
REMARK INTER:                  -8.885
REMARK INTRA:                  -1.408
REMARK UNBOUND:                -1.561
REMARK  Name = 
REMARK  11 active torsions:
REMARK  status: ('A' for Active; 'I' for Inactive)
REMARK    1  A    between atoms: C_1  and  C_2
REMARK    2  A    between atoms: C_2  and  N_3
REMARK    3  A    between atoms: C_2  and  C_21
REMARK    4  A    between atoms: N_3  and  C_4
REMARK    5  A    between atoms: C_4  and  C_5
REMARK    6  A    between atoms: C_8  and  C_9
REMARK    7  A    between atoms: C_9  and  O_10
REMARK    8  A    between atoms: C_9  and  C_11
REMARK    9  A    between atoms: C_11  and  N_12
REMARK   10  A    between atoms: C_16  and  C_17
REMARK   11  A    between atoms: C_17  and  O_18
REMARK                            x       y       z     vdW  Elec       q    Type
REMARK                         _______ _______ _______ _____ _____    ______ ____
ROOT
ATOM      1  C   UNL     1      47.606   5.424  14.836  0.00  0.00    +0.000 A 
ATOM      2  C   UNL     1      48.555   6.137  15.581  0.00  0.00    +0.000 A 
ATOM      3  C   UNL     1      49.096   5.604  16.754  0.00  0.00    +0.000 A 
ATOM      4  C   UNL     1      48.690   4.345  17.217  0.00  0.00    +0.000 A 
ATOM      5  C   UNL     1      47.725   3.638  16.478  0.00  0.00    +0.000 A 
ATOM      6  C   UNL     1      47.192   4.171  15.301  0.00  0.00    +0.000 A 
ENDROOT
BRANCH   1   7
ATOM      7  C   UNL     1      46.987   6.034  13.600  0.00  0.00    +0.000 C 
BRANCH   7   8
ATOM      8  N   UNL     1      45.522   5.975  13.630  0.00  0.00    +0.000 NA
ATOM      9  H   UNL     1      45.203   6.466  14.463  0.00  0.00    +0.000 HD
BRANCH   8  11
ATOM     10  C   UNL     1      45.519   7.967  12.114  0.00  0.00    +0.000 C 
ATOM     11  C   UNL     1      44.900   6.605  12.451  0.00  0.00    +0.000 C 
BRANCH  11  12
ATOM     12  C   UNL     1      45.033   5.655  11.266  0.00  0.00    +0.000 A 
ATOM     13  C   UNL     1      45.629   5.949  10.049  0.00  0.00    +0.000 A 
ATOM     14  S   UNL     1      45.625   4.634   8.955  0.00  0.00    +0.000 S 
ATOM     15  C   UNL     1      44.764   3.651  10.044  0.00  0.00    +0.000 A 
ATOM     16  N   UNL     1      44.399   2.380   9.717  0.00  0.00    +0.000 NA
ATOM     17  C   UNL     1      43.707   1.778  10.625  0.00  0.00    +0.000 A 
ATOM     18  N   UNL     1      43.351   2.323  11.834  0.00  0.00    +0.000 N 
ATOM     19  C   UNL     1      43.721   3.589  12.221  0.00  0.00    +0.000 A 
ATOM     20  O   UNL     1      43.399   4.046  13.314  0.00  0.00    +0.000 OA
ATOM     21  C   UNL     1      44.496   4.312  11.229  0.00  0.00    +0.000 A 
ATOM     22  H   UNL     1      42.795   1.800  12.493  0.00  0.00    +0.000 HD
ENDBRANCH  11  12
ENDBRANCH   8  11
ENDBRANCH   7   8
ENDBRANCH   1   7
BRANCH   4  23
ATOM     23  C   UNL     1      49.349   3.735  18.444  0.00  0.00    +0.000 C 
BRANCH  23  24
ATOM     24  O   UNL     1      48.312   3.195  19.270  0.00  0.00    +0.000 OA
ATOM     25  H   UNL     1      47.675   3.898  19.477  0.00  0.00    +0.000 HD
ENDBRANCH  23  24
BRANCH  23  26
ATOM     26  C   UNL     1      50.216   4.764  19.233  0.00  0.00    +0.000 C 
BRANCH  26  27
ATOM     27  N   UNL     1      51.681   4.488  19.329  0.00  0.00    +0.000 NA
ATOM     28  C   UNL     1      52.479   5.690  19.646  0.00  0.00    +0.000 C 
ATOM     29  C   UNL     1      52.603   6.429  18.331  0.00  0.00    +0.000 C 
ATOM     30  C   UNL     1      52.853   5.299  17.348  0.00  0.00    +0.000 C 
ATOM     31  C   UNL     1      52.202   4.065  17.989  0.00  0.00    +0.000 C 
BRANCH  31  32
ATOM     32  C   UNL     1      53.212   2.915  18.165  0.00  0.00    +0.000 C 
BRANCH  32  33
ATOM     33  O   UNL     1      52.532   1.736  18.588  0.00  0.00    +0.000 OA
ATOM     34  H   UNL     1      53.078   1.004  18.237  0.00  0.00    +0.000 HD
ENDBRANCH  32  33
ENDBRANCH  31  32
ENDBRANCH  26  27
ENDBRANCH  23  26
ENDBRANCH   4  23
TORSDOF 10
ENDMDL
MODEL 8
REMARK VINA RESULT:    -5.459      2.317      3.855
REMARK INTER + INTRA:          -9.892
REMARK INTER:                  -8.149
REMARK INTRA:                  -1.742
REMARK UNBOUND:                -1.561
REMARK  Name = 
REMARK  11 active torsions:
REMARK  status: ('A' for Active; 'I' for Inactive)
REMARK    1  A    between atoms: C_1  and  C_2
REMARK    2  A    between atoms: C_2  and  N_3
REMARK    3  A    between atoms: C_2  and  C_21
REMARK    4  A    between atoms: N_3  and  C_4
REMARK    5  A    between atoms: C_4  and  C_5
REMARK    6  A    between atoms: C_8  and  C_9
REMARK    7  A    between atoms: C_9  and  O_10
REMARK    8  A    between atoms: C_9  and  C_11
REMARK    9  A    between atoms: C_11  and  N_12
REMARK   10  A    between atoms: C_16  and  C_17
REMARK   11  A    between atoms: C_17  and  O_18
REMARK                            x       y       z     vdW  Elec       q    Type
REMARK                         _______ _______ _______ _____ _____    ______ ____
ROOT
ATOM      1  C   UNL     1      48.066   5.023  15.873  0.00  0.00    +0.000 A 
ATOM      2  C   UNL     1      47.099   4.230  15.241  0.00  0.00    +0.000 A 
ATOM      3  C   UNL     1      46.538   4.617  14.020  0.00  0.00    +0.000 A 
ATOM      4  C   UNL     1      46.927   5.815  13.407  0.00  0.00    +0.000 A 
ATOM      5  C   UNL     1      47.884   6.618  14.050  0.00  0.00    +0.000 A 
ATOM      6  C   UNL     1      48.449   6.226  15.267  0.00  0.00    +0.000 A 
ENDROOT
BRANCH   1   7
ATOM      7  C   UNL     1      48.624   4.624  17.219  0.00  0.00    +0.000 C 
BRANCH   7   8
ATOM      8  N   UNL     1      50.008   4.150  17.126  0.00  0.00    +0.000 NA
ATOM      9  H   UNL     1      50.339   4.329  16.180  0.00  0.00    +0.000 HD
BRANCH   8  11
ATOM     10  C   UNL     1      52.134   3.978  18.437  0.00  0.00    +0.000 C 
ATOM     11  C   UNL     1      50.911   4.830  18.072  0.00  0.00    +0.000 C 
BRANCH  11  12
ATOM     12  C   UNL     1      51.352   6.154  17.457  0.00  0.00    +0.000 A 
ATOM     13  C   UNL     1      52.299   6.311  16.455  0.00  0.00    +0.000 A 
ATOM     14  S   UNL     1      52.526   7.940  15.986  0.00  0.00    +0.000 S 
ATOM     15  C   UNL     1      51.419   8.495  17.152  0.00  0.00    +0.000 A 
ATOM     16  N   UNL     1      51.160   9.823  17.310  0.00  0.00    +0.000 NA
ATOM     17  C   UNL     1      50.338  10.092  18.268  0.00  0.00    +0.000 A 
ATOM     18  N   UNL     1      49.743   9.158  19.081  0.00  0.00    +0.000 N 
ATOM     19  C   UNL     1      49.951   7.807  18.941  0.00  0.00    +0.000 A 
ATOM     20  O   UNL     1      49.395   6.992  19.674  0.00  0.00    +0.000 OA
ATOM     21  C   UNL     1      50.875   7.452  17.880  0.00  0.00    +0.000 A 
ATOM     22  H   UNL     1      49.120   9.440  19.821  0.00  0.00    +0.000 HD
ENDBRANCH  11  12
ENDBRANCH   8  11
ENDBRANCH   7   8
ENDBRANCH   1   7
BRANCH   4  23
ATOM     23  C   UNL     1      46.378   6.182  12.037  0.00  0.00    +0.000 C 
BRANCH  23  24
ATOM     24  O   UNL     1      47.003   7.407  11.634  0.00  0.00    +0.000 OA
ATOM     25  H   UNL     1      47.671   7.212  10.957  0.00  0.00    +0.000 HD
ENDBRANCH  23  24
BRANCH  23  26
ATOM     26  C   UNL     1      44.824   6.316  12.029  0.00  0.00    +0.000 C 
BRANCH  26  27
ATOM     27  N   UNL     1      44.078   5.533  10.999  0.00  0.00    +0.000 NA
ATOM     28  C   UNL     1      42.879   4.858  11.537  0.00  0.00    +0.000 C 
ATOM     29  C   UNL     1      43.411   3.625  12.235  0.00  0.00    +0.000 C 
ATOM     30  C   UNL     1      44.475   3.140  11.267  0.00  0.00    +0.000 C 
ATOM     31  C   UNL     1      44.931   4.400  10.515  0.00  0.00    +0.000 C 
BRANCH  31  32
ATOM     32  C   UNL     1      44.769   4.242   8.992  0.00  0.00    +0.000 C 
BRANCH  32  33
ATOM     33  O   UNL     1      44.153   2.990   8.699  0.00  0.00    +0.000 OA
ATOM     34  H   UNL     1      44.832   2.326   8.936  0.00  0.00    +0.000 HD
ENDBRANCH  32  33
ENDBRANCH  31  32
ENDBRANCH  26  27
ENDBRANCH  23  26
ENDBRANCH   4  23
TORSDOF 10
ENDMDL
MODEL 9
REMARK VINA RESULT:    -5.346      2.573      3.403
REMARK INTER + INTRA:          -9.719
REMARK INTER:                  -8.389
REMARK INTRA:                  -1.330
REMARK UNBOUND:                -1.561
REMARK  Name = 
REMARK  11 active torsions:
REMARK  status: ('A' for Active; 'I' for Inactive)
REMARK    1  A    between atoms: C_1  and  C_2
REMARK    2  A    between atoms: C_2  and  N_3
REMARK    3  A    between atoms: C_2  and  C_21
REMARK    4  A    between atoms: N_3  and  C_4
REMARK    5  A    between atoms: C_4  and  C_5
REMARK    6  A    between atoms: C_8  and  C_9
REMARK    7  A    between atoms: C_9  and  O_10
REMARK    8  A    between atoms: C_9  and  C_11
REMARK    9  A    between atoms: C_11  and  N_12
REMARK   10  A    between atoms: C_16  and  C_17
REMARK   11  A    between atoms: C_17  and  O_18
REMARK                            x       y       z     vdW  Elec       q    Type
REMARK                         _______ _______ _______ _____ _____    ______ ____
ROOT
ATOM      1  C   UNL     1      48.094   5.112  16.012  0.00  0.00    +0.000 A 
ATOM      2  C   UNL     1      47.148   4.283  15.397  0.00  0.00    +0.000 A 
ATOM      3  C   UNL     1      46.628   4.595  14.138  0.00  0.00    +0.000 A 
ATOM      4  C   UNL     1      47.038   5.755  13.467  0.00  0.00    +0.000 A 
ATOM      5  C   UNL     1      47.974   6.596  14.092  0.00  0.00    +0.000 A 
ATOM      6  C   UNL     1      48.498   6.277  15.349  0.00  0.00    +0.000 A 
ENDROOT
BRANCH   1   7
ATOM      7  C   UNL     1      48.606   4.795  17.398  0.00  0.00    +0.000 C 
BRANCH   7   8
ATOM      8  N   UNL     1      50.009   4.368  17.384  0.00  0.00    +0.000 NA
ATOM      9  H   UNL     1      50.364   4.483  16.437  0.00  0.00    +0.000 HD
BRANCH   8  11
ATOM     10  C   UNL     1      50.386   5.075  19.756  0.00  0.00    +0.000 C 
ATOM     11  C   UNL     1      50.856   5.156  18.298  0.00  0.00    +0.000 C 
BRANCH  11  12
ATOM     12  C   UNL     1      52.293   4.661  18.176  0.00  0.00    +0.000 A 
ATOM     13  C   UNL     1      52.889   3.687  18.965  0.00  0.00    +0.000 A 
ATOM     14  S   UNL     1      54.511   3.360  18.530  0.00  0.00    +0.000 S 
ATOM     15  C   UNL     1      54.493   4.558  17.322  0.00  0.00    +0.000 A 
ATOM     16  N   UNL     1      55.598   4.825  16.571  0.00  0.00    +0.000 NA
ATOM     17  C   UNL     1      55.446   5.794  15.732  0.00  0.00    +0.000 A 
ATOM     18  N   UNL     1      54.291   6.517  15.565  0.00  0.00    +0.000 N 
ATOM     19  C   UNL     1      53.143   6.266  16.278  0.00  0.00    +0.000 A 
ATOM     20  O   UNL     1      52.119   6.920  16.099  0.00  0.00    +0.000 OA
ATOM     21  C   UNL     1      53.264   5.188  17.243  0.00  0.00    +0.000 A 
ATOM     22  H   UNL     1      54.246   7.272  14.899  0.00  0.00    +0.000 HD
ENDBRANCH  11  12
ENDBRANCH   8  11
ENDBRANCH   7   8
ENDBRANCH   1   7
BRANCH   4  23
ATOM     23  C   UNL     1      46.536   6.039  12.060  0.00  0.00    +0.000 C 
BRANCH  23  24
ATOM     24  O   UNL     1      47.327   7.107  11.524  0.00  0.00    +0.000 OA
ATOM     25  H   UNL     1      47.954   6.741  10.879  0.00  0.00    +0.000 HD
ENDBRANCH  23  24
BRANCH  23  26
ATOM     26  C   UNL     1      45.018   6.396  12.026  0.00  0.00    +0.000 C 
BRANCH  26  27
ATOM     27  N   UNL     1      44.163   5.640  11.062  0.00  0.00    +0.000 NA
ATOM     28  C   UNL     1      42.942   5.083  11.679  0.00  0.00    +0.000 C 
ATOM     29  C   UNL     1      43.408   3.836  12.399  0.00  0.00    +0.000 C 
ATOM     30  C   UNL     1      44.382   3.233  11.401  0.00  0.00    +0.000 C 
ATOM     31  C   UNL     1      44.898   4.426  10.582  0.00  0.00    +0.000 C 
BRANCH  31  32
ATOM     32  C   UNL     1      44.650   4.230   9.075  0.00  0.00    +0.000 C 
BRANCH  32  33
ATOM     33  O   UNL     1      44.178   2.907   8.832  0.00  0.00    +0.000 OA
ATOM     34  H   UNL     1      44.939   2.451   8.420  0.00  0.00    +0.000 HD
ENDBRANCH  32  33
ENDBRANCH  31  32
ENDBRANCH  26  27
ENDBRANCH  23  26
ENDBRANCH   4  23
TORSDOF 10
ENDMDL
