MODEL 1
REMARK VINA RESULT:    -7.979      0.000      0.000
REMARK INTER + INTRA:         -12.945
REMARK INTER:                 -11.945
REMARK INTRA:                  -1.000
REMARK UNBOUND:                -1.000
REMARK  Name = 
REMARK  9 active torsions:
REMARK  status: ('A' for Active; 'I' for Inactive)
REMARK    1  A    between atoms: C_2  and  C_22
REMARK    2  A    between atoms: N_3  and  C_4
REMARK    3  A    between atoms: C_4  and  C_5
REMARK    4  A    between atoms: C_8  and  C_9
REMARK    5  A    between atoms: C_9  and  N_10
REMARK    6  A    between atoms: N_10  and  C_11
REMARK    7  A    between atoms: C_11  and  C_12
REMARK    8  A    between atoms: C_15  and  C_16
REMARK    9  A    between atoms: C_16  and  O_17
REMARK                            x       y       z     vdW  Elec       q    Type
REMARK                         _______ _______ _______ _____ _____    ______ ____
ROOT
ATOM      1  C   UNL     1      46.771   6.508  12.440  0.00  0.00    +0.000 A 
ATOM      2  N   UNL     1      46.670   6.515  11.092  0.00  0.00    +0.000 NA
ATOM      3  C   UNL     1      45.591   5.888  10.571  0.00  0.00    +0.000 A 
ATOM      4  C   UNL     1      44.605   5.296  11.335  0.00  0.00    +0.000 A 
ATOM      5  C   UNL     1      44.784   5.408  12.696  0.00  0.00    +0.000 A 
ATOM      6  N   UNL     1      45.843   6.002  13.269  0.00  0.00    +0.000 NA
ENDROOT
BRANCH   1   7
ATOM      7  C   UNL     1      47.988   7.153  13.070  0.00  0.00    +0.000 C 
BRANCH   7  10
ATOM      8  O   UNL     1      50.137   6.821  14.903  0.00  0.00    +0.000 OA
ATOM      9  C   UNL     1      48.987   6.906  15.302  0.00  0.00    +0.000 C 
ATOM     10  N   UNL     1      47.890   7.175  14.509  0.00  0.00    +0.000 N 
ATOM     11  H   UNL     1      46.994   6.872  14.860  0.00  0.00    +0.000 HD
BRANCH   9  12
ATOM     12  C   UNL     1      48.567   6.512  16.637  0.00  0.00    +0.000 A 
ATOM     13  C   UNL     1      48.643   7.381  17.711  0.00  0.00    +0.000 A 
ATOM     14  S   UNL     1      48.856   6.509  19.174  0.00  0.00    +0.000 S 
ATOM     15  C   UNL     1      48.591   5.015  18.387  0.00  0.00    +0.000 A 
ATOM     16  N   UNL     1      48.768   3.820  19.010  0.00  0.00    +0.000 NA
ATOM     17  C   UNL     1      48.444   2.797  18.292  0.00  0.00    +0.000 A 
ATOM     18  N   UNL     1      47.913   2.856  17.023  0.00  0.00    +0.000 N 
ATOM     19  C   UNL     1      47.748   4.041  16.331  0.00  0.00    +0.000 A 
ATOM     20  O   UNL     1      47.246   4.081  15.227  0.00  0.00    +0.000 OA
ATOM     21  C   UNL     1      48.208   5.199  17.078  0.00  0.00    +0.000 A 
ATOM     22  H   UNL     1      47.592   2.023  16.559  0.00  0.00    +0.000 HD
ENDBRANCH   9  12
ENDBRANCH   7  10
ENDBRANCH   1   7
BRANCH   4  23
ATOM     23  C   UNL     1      43.426   4.579  10.759  0.00  0.00    +0.000 C 
BRANCH  23  24
ATOM     24  N   UNL     1      43.637   3.133  10.749  0.00  0.00    +0.000 NA
ATOM     25  H   UNL     1      42.864   2.698  10.246  0.00  0.00    +0.000 HD
BRANCH  24  26
ATOM     26  C   UNL     1      44.896   2.794  10.080  0.00  0.00    +0.000 C 
BRANCH  26  27
ATOM     27  C   UNL     1      44.675   2.430   8.594  0.00  0.00    +0.000 C 
ATOM     28  C   UNL     1      44.920   3.599   7.624  0.00  0.00    +0.000 C 
ATOM     29  C   UNL     1      46.395   3.996   7.554  0.00  0.00    +0.000 C 
ATOM     30  C   UNL     1      47.297   2.819   7.145  0.00  0.00    +0.000 C 
ATOM     31  C   UNL     1      47.040   1.596   8.042  0.00  0.00    +0.000 C 
ATOM     32  C   UNL     1      45.560   1.233   8.198  0.00  0.00    +0.000 C 
BRANCH  30  33
ATOM     33  C   UNL     1      47.153   2.473   5.654  0.00  0.00    +0.000 C 
BRANCH  33  34
ATOM     34  O   UNL     1      48.356   1.899   5.154  0.00  0.00    +0.000 OA
ATOM     35  H   UNL     1      48.324   1.944   4.184  0.00  0.00    +0.000 HD
ENDBRANCH  33  34
ENDBRANCH  30  33
ENDBRANCH  26  27
ENDBRANCH  24  26
ENDBRANCH  23  24
ENDBRANCH   4  23
TORSDOF 9
ENDMDL
MODEL 2
REMARK VINA RESULT:    -7.452      1.452      2.334
REMARK INTER + INTRA:         -12.156
REMARK INTER:                 -11.208
REMARK INTRA:                  -0.947
REMARK UNBOUND:                -1.000
REMARK  Name = 
REMARK  9 active torsions:
REMARK  status: ('A' for Active; 'I' for Inactive)
REMARK    1  A    between atoms: C_2  and  C_22
REMARK    2  A    between atoms: N_3  and  C_4
REMARK    3  A    between atoms: C_4  and  C_5
REMARK    4  A    between atoms: C_8  and  C_9
REMARK    5  A    between atoms: C_9  and  N_10
REMARK    6  A    between atoms: N_10  and  C_11
REMARK    7  A    between atoms: C_11  and  C_12
REMARK    8  A    between atoms: C_15  and  C_16
REMARK    9  A    between atoms: C_16  and  O_17
REMARK                            x       y       z     vdW  Elec       q    Type
REMARK                         _______ _______ _______ _____ _____    ______ ____
ROOT
ATOM      1  C   UNL     1      46.743   6.533  12.878  0.00  0.00    +0.000 A 
ATOM      2  N   UNL     1      46.113   5.530  13.529  0.00  0.00    +0.000 NA
ATOM      3  C   UNL     1      45.092   4.938  12.869  0.00  0.00    +0.000 A 
ATOM      4  C   UNL     1      44.706   5.281  11.588  0.00  0.00    +0.000 A 
ATOM      5  C   UNL     1      45.462   6.272  11.003  0.00  0.00    +0.000 A 
ATOM      6  N   UNL     1      46.474   6.906  11.616  0.00  0.00    +0.000 NA
ENDROOT
BRANCH   1   7
ATOM      7  C   UNL     1      47.861   7.260  13.595  0.00  0.00    +0.000 C 
BRANCH   7  10
ATOM      8  O   UNL     1      50.209   6.809  15.137  0.00  0.00    +0.000 OA
ATOM      9  C   UNL     1      49.104   6.621  15.618  0.00  0.00    +0.000 C 
ATOM     10  N   UNL     1      47.907   6.911  14.994  0.00  0.00    +0.000 N 
ATOM     11  H   UNL     1      47.097   6.402  15.314  0.00  0.00    +0.000 HD
BRANCH   9  12
ATOM     12  C   UNL     1      48.874   5.853  16.830  0.00  0.00    +0.000 A 
ATOM     13  C   UNL     1      48.528   4.514  16.791  0.00  0.00    +0.000 A 
ATOM     14  S   UNL     1      47.595   4.094  18.167  0.00  0.00    +0.000 S 
ATOM     15  C   UNL     1      47.884   5.613  18.896  0.00  0.00    +0.000 A 
ATOM     16  N   UNL     1      47.263   6.005  20.040  0.00  0.00    +0.000 NA
ATOM     17  C   UNL     1      47.662   7.147  20.492  0.00  0.00    +0.000 A 
ATOM     18  N   UNL     1      48.659   7.916  19.935  0.00  0.00    +0.000 N 
ATOM     19  C   UNL     1      49.296   7.582  18.756  0.00  0.00    +0.000 A 
ATOM     20  O   UNL     1      50.197   8.251  18.295  0.00  0.00    +0.000 OA
ATOM     21  C   UNL     1      48.787   6.354  18.168  0.00  0.00    +0.000 A 
ATOM     22  H   UNL     1      48.987   8.747  20.396  0.00  0.00    +0.000 HD
ENDBRANCH   9  12
ENDBRANCH   7  10
ENDBRANCH   1   7
BRANCH   4  23
ATOM     23  C   UNL     1      43.560   4.646  10.868  0.00  0.00    +0.000 C 
BRANCH  23  24
ATOM     24  N   UNL     1      43.676   3.189  10.867  0.00  0.00    +0.000 NA
ATOM     25  H   UNL     1      42.857   2.801  10.399  0.00  0.00    +0.000 HD
BRANCH  24  26
ATOM     26  C   UNL     1      44.883   2.762  10.154  0.00  0.00    +0.000 C 
BRANCH  26  27
ATOM     27  C   UNL     1      44.601   2.500   8.657  0.00  0.00    +0.000 C 
ATOM     28  C   UNL     1      44.881   3.711   7.749  0.00  0.00    +0.000 C 
ATOM     29  C   UNL     1      46.372   4.034   7.657  0.00  0.00    +0.000 C 
ATOM     30  C   UNL     1      47.198   2.839   7.152  0.00  0.00    +0.000 C 
ATOM     31  C   UNL     1      46.901   1.579   7.983  0.00  0.00    +0.000 C 
ATOM     32  C   UNL     1      45.409   1.284   8.164  0.00  0.00    +0.000 C 
BRANCH  30  33
ATOM     33  C   UNL     1      46.995   2.591   5.649  0.00  0.00    +0.000 C 
BRANCH  33  34
ATOM     34  O   UNL     1      48.249   2.466   4.987  0.00  0.00    +0.000 OA
ATOM     35  H   UNL     1      48.437   3.313   4.548  0.00  0.00    +0.000 HD
ENDBRANCH  33  34
ENDBRANCH  30  33
ENDBRANCH  26  27
ENDBRANCH  24  26
ENDBRANCH  23  24
ENDBRANCH   4  23
TORSDOF 9
ENDMDL
MODEL 3
REMARK VINA RESULT:    -7.193      1.982      2.254
REMARK INTER + INTRA:         -11.768
REMARK INTER:                 -10.977
REMARK INTRA:                  -0.791
REMARK UNBOUND:                -1.000
REMARK  Name = 
REMARK  9 active torsions:
REMARK  status: ('A' for Active; 'I' for Inactive)
REMARK    1  A    between atoms: C_2  and  C_22
REMARK    2  A    between atoms: N_3  and  C_4
REMARK    3  A    between atoms: C_4  and  C_5
REMARK    4  A    between atoms: C_8  and  C_9
REMARK    5  A    between atoms: C_9  and  N_10
REMARK    6  A    between atoms: N_10  and  C_11
REMARK    7  A    between atoms: C_11  and  C_12
REMARK    8  A    between atoms: C_15  and  C_16
REMARK    9  A    between atoms: C_16  and  O_17
REMARK                            x       y       z     vdW  Elec       q    Type
REMARK                         _______ _______ _______ _____ _____    ______ ____
ROOT
ATOM      1  C   UNL     1      47.704   6.174  14.178  0.00  0.00    +0.000 A 
ATOM      2  N   UNL     1      46.948   7.060  13.491  0.00  0.00    +0.000 NA
ATOM      3  C   UNL     1      45.912   6.546  12.791  0.00  0.00    +0.000 A 
ATOM      4  C   UNL     1      45.584   5.204  12.781  0.00  0.00    +0.000 A 
ATOM      5  C   UNL     1      46.387   4.408  13.568  0.00  0.00    +0.000 A 
ATOM      6  N   UNL     1      47.439   4.860  14.269  0.00  0.00    +0.000 NA
ENDROOT
BRANCH   1   7
ATOM      7  C   UNL     1      48.906   6.696  14.937  0.00  0.00    +0.000 C 
BRANCH   7  10
ATOM      8  O   UNL     1      48.554   7.029  17.740  0.00  0.00    +0.000 OA
ATOM      9  C   UNL     1      49.188   6.083  17.301  0.00  0.00    +0.000 C 
ATOM     10  N   UNL     1      49.325   5.773  15.963  0.00  0.00    +0.000 N 
ATOM     11  H   UNL     1      50.129   5.218  15.708  0.00  0.00    +0.000 HD
BRANCH   9  12
ATOM     12  C   UNL     1      50.082   5.270  18.108  0.00  0.00    +0.000 A 
ATOM     13  C   UNL     1      50.945   5.832  19.032  0.00  0.00    +0.000 A 
ATOM     14  S   UNL     1      52.335   4.847  19.232  0.00  0.00    +0.000 S 
ATOM     15  C   UNL     1      51.651   3.594  18.292  0.00  0.00    +0.000 A 
ATOM     16  N   UNL     1      52.354   2.490  17.923  0.00  0.00    +0.000 NA
ATOM     17  C   UNL     1      51.657   1.609  17.287  0.00  0.00    +0.000 A 
ATOM     18  N   UNL     1      50.309   1.703  17.024  0.00  0.00    +0.000 N 
ATOM     19  C   UNL     1      49.557   2.817  17.345  0.00  0.00    +0.000 A 
ATOM     20  O   UNL     1      48.362   2.872  17.139  0.00  0.00    +0.000 OA
ATOM     21  C   UNL     1      50.343   3.870  17.965  0.00  0.00    +0.000 A 
ATOM     22  H   UNL     1      49.809   0.935  16.610  0.00  0.00    +0.000 HD
ENDBRANCH   9  12
ENDBRANCH   7  10
ENDBRANCH   1   7
BRANCH   4  23
ATOM     23  C   UNL     1      44.456   4.631  11.987  0.00  0.00    +0.000 C 
BRANCH  23  24
ATOM     24  N   UNL     1      44.842   4.419  10.593  0.00  0.00    +0.000 NA
ATOM     25  H   UNL     1      45.742   4.872  10.436  0.00  0.00    +0.000 HD
BRANCH  24  26
ATOM     26  C   UNL     1      44.965   2.989  10.297  0.00  0.00    +0.000 C 
BRANCH  26  27
ATOM     27  C   UNL     1      44.598   2.675   8.828  0.00  0.00    +0.000 C 
ATOM     28  C   UNL     1      44.870   3.837   7.856  0.00  0.00    +0.000 C 
ATOM     29  C   UNL     1      46.364   4.103   7.675  0.00  0.00    +0.000 C 
ATOM     30  C   UNL     1      47.123   2.860   7.182  0.00  0.00    +0.000 C 
ATOM     31  C   UNL     1      46.829   1.647   8.080  0.00  0.00    +0.000 C 
ATOM     32  C   UNL     1      45.339   1.413   8.348  0.00  0.00    +0.000 C 
BRANCH  30  33
ATOM     33  C   UNL     1      46.834   2.557   5.702  0.00  0.00    +0.000 C 
BRANCH  33  34
ATOM     34  O   UNL     1      48.019   2.683   4.924  0.00  0.00    +0.000 OA
ATOM     35  H   UNL     1      47.843   2.290   4.052  0.00  0.00    +0.000 HD
ENDBRANCH  33  34
ENDBRANCH  30  33
ENDBRANCH  26  27
ENDBRANCH  24  26
ENDBRANCH  23  24
ENDBRANCH   4  23
TORSDOF 9
ENDMDL
MODEL 4
REMARK VINA RESULT:    -7.058      3.715      8.443
REMARK INTER + INTRA:         -11.565
REMARK INTER:                  -9.869
REMARK INTRA:                  -1.697
REMARK UNBOUND:                -1.000
REMARK  Name = 
REMARK  9 active torsions:
REMARK  status: ('A' for Active; 'I' for Inactive)
REMARK    1  A    between atoms: C_2  and  C_22
REMARK    2  A    between atoms: N_3  and  C_4
REMARK    3  A    between atoms: C_4  and  C_5
REMARK    4  A    between atoms: C_8  and  C_9
REMARK    5  A    between atoms: C_9  and  N_10
REMARK    6  A    between atoms: N_10  and  C_11
REMARK    7  A    between atoms: C_11  and  C_12
REMARK    8  A    between atoms: C_15  and  C_16
REMARK    9  A    between atoms: C_16  and  O_17
REMARK                            x       y       z     vdW  Elec       q    Type
REMARK                         _______ _______ _______ _____ _____    ______ ____
ROOT
ATOM      1  C   UNL     1      47.904   8.275  13.988  0.00  0.00    +0.000 A 
ATOM      2  N   UNL     1      48.935   7.563  13.482  0.00  0.00    +0.000 NA
ATOM      3  C   UNL     1      50.082   7.581  14.197  0.00  0.00    +0.000 A 
ATOM      4  C   UNL     1      50.225   8.246  15.399  0.00  0.00    +0.000 A 
ATOM      5  C   UNL     1      49.089   8.883  15.845  0.00  0.00    +0.000 A 
ATOM      6  N   UNL     1      47.929   8.913  15.170  0.00  0.00    +0.000 NA
ENDROOT
BRANCH   1   7
ATOM      7  C   UNL     1      46.613   8.326  13.198  0.00  0.00    +0.000 C 
BRANCH   7  10
ATOM      8  O   UNL     1      44.454   7.808  11.418  0.00  0.00    +0.000 OA
ATOM      9  C   UNL     1      45.437   7.083  11.433  0.00  0.00    +0.000 C 
ATOM     10  N   UNL     1      46.577   7.308  12.176  0.00  0.00    +0.000 N 
ATOM     11  H   UNL     1      47.145   6.500  12.387  0.00  0.00    +0.000 HD
BRANCH   9  12
ATOM     12  C   UNL     1      45.465   5.755  10.843  0.00  0.00    +0.000 A 
ATOM     13  C   UNL     1      45.818   5.551   9.521  0.00  0.00    +0.000 A 
ATOM     14  S   UNL     1      45.047   4.148   8.904  0.00  0.00    +0.000 S 
ATOM     15  C   UNL     1      44.475   3.712  10.454  0.00  0.00    +0.000 A 
ATOM     16  N   UNL     1      43.610   2.682  10.650  0.00  0.00    +0.000 NA
ATOM     17  C   UNL     1      43.348   2.442  11.892  0.00  0.00    +0.000 A 
ATOM     18  N   UNL     1      43.907   3.104  12.962  0.00  0.00    +0.000 N 
ATOM     19  C   UNL     1      44.762   4.180  12.818  0.00  0.00    +0.000 A 
ATOM     20  O   UNL     1      45.274   4.731  13.769  0.00  0.00    +0.000 OA
ATOM     21  C   UNL     1      44.986   4.539  11.428  0.00  0.00    +0.000 A 
ATOM     22  H   UNL     1      43.732   2.799  13.905  0.00  0.00    +0.000 HD
ENDBRANCH   9  12
ENDBRANCH   7  10
ENDBRANCH   1   7
BRANCH   4  23
ATOM     23  C   UNL     1      51.502   8.290  16.177  0.00  0.00    +0.000 C 
BRANCH  23  24
ATOM     24  N   UNL     1      51.320   7.755  17.525  0.00  0.00    +0.000 NA
ATOM     25  H   UNL     1      50.416   8.068  17.877  0.00  0.00    +0.000 HD
BRANCH  24  26
ATOM     26  C   UNL     1      51.350   6.290  17.513  0.00  0.00    +0.000 C 
BRANCH  26  27
ATOM     27  C   UNL     1      50.307   5.689  18.483  0.00  0.00    +0.000 C 
ATOM     28  C   UNL     1      48.850   5.861  18.016  0.00  0.00    +0.000 C 
ATOM     29  C   UNL     1      48.535   5.021  16.779  0.00  0.00    +0.000 C 
ATOM     30  C   UNL     1      48.806   3.524  17.006  0.00  0.00    +0.000 C 
ATOM     31  C   UNL     1      50.230   3.301  17.543  0.00  0.00    +0.000 C 
ATOM     32  C   UNL     1      50.599   4.197  18.730  0.00  0.00    +0.000 C 
BRANCH  30  33
ATOM     33  C   UNL     1      47.747   2.877  17.913  0.00  0.00    +0.000 C 
BRANCH  33  34
ATOM     34  O   UNL     1      46.437   3.258  17.504  0.00  0.00    +0.000 OA
ATOM     35  H   UNL     1      46.284   2.886  16.619  0.00  0.00    +0.000 HD
ENDBRANCH  33  34
ENDBRANCH  30  33
ENDBRANCH  26  27
ENDBRANCH  24  26
ENDBRANCH  23  24
ENDBRANCH   4  23
TORSDOF 9
ENDMDL
MODEL 5
REMARK VINA RESULT:    -6.946      2.986      8.526
REMARK INTER + INTRA:         -11.398
REMARK INTER:                  -9.607
REMARK INTRA:                  -1.791
REMARK UNBOUND:                -1.000
REMARK  Name = 
REMARK  9 active torsions:
REMARK  status: ('A' for Active; 'I' for Inactive)
REMARK    1  A    between atoms: C_2  and  C_22
REMARK    2  A    between atoms: N_3  and  C_4
REMARK    3  A    between atoms: C_4  and  C_5
REMARK    4  A    between atoms: C_8  and  C_9
REMARK    5  A    between atoms: C_9  and  N_10
REMARK    6  A    between atoms: N_10  and  C_11
REMARK    7  A    between atoms: C_11  and  C_12
REMARK    8  A    between atoms: C_15  and  C_16
REMARK    9  A    between atoms: C_16  and  O_17
REMARK                            x       y       z     vdW  Elec       q    Type
REMARK                         _______ _______ _______ _____ _____    ______ ____
ROOT
ATOM      1  C   UNL     1      48.686   8.071  13.326  0.00  0.00    +0.000 A 
ATOM      2  N   UNL     1      47.800   8.668  14.154  0.00  0.00    +0.000 NA
ATOM      3  C   UNL     1      48.280   9.073  15.352  0.00  0.00    +0.000 A 
ATOM      4  C   UNL     1      49.600   8.938  15.733  0.00  0.00    +0.000 A 
ATOM      5  C   UNL     1      50.421   8.373  14.783  0.00  0.00    +0.000 A 
ATOM      6  N   UNL     1      49.997   7.937  13.586  0.00  0.00    +0.000 NA
ENDROOT
BRANCH   1   7
ATOM      7  C   UNL     1      48.184   7.555  11.993  0.00  0.00    +0.000 C 
BRANCH   7  10
ATOM      8  O   UNL     1      47.617   4.999  13.105  0.00  0.00    +0.000 OA
ATOM      9  C   UNL     1      46.733   5.662  12.586  0.00  0.00    +0.000 C 
ATOM     10  N   UNL     1      46.880   6.951  12.117  0.00  0.00    +0.000 N 
ATOM     11  H   UNL     1      46.223   7.252  11.412  0.00  0.00    +0.000 HD
BRANCH   9  12
ATOM     12  C   UNL     1      45.450   5.113  12.178  0.00  0.00    +0.000 A 
ATOM     13  C   UNL     1      44.460   4.812  13.096  0.00  0.00    +0.000 A 
ATOM     14  S   UNL     1      43.471   3.536  12.516  0.00  0.00    +0.000 S 
ATOM     15  C   UNL     1      44.213   3.585  10.977  0.00  0.00    +0.000 A 
ATOM     16  N   UNL     1      43.958   2.662  10.013  0.00  0.00    +0.000 NA
ATOM     17  C   UNL     1      44.543   2.901   8.886  0.00  0.00    +0.000 A 
ATOM     18  N   UNL     1      45.323   4.002   8.615  0.00  0.00    +0.000 N 
ATOM     19  C   UNL     1      45.643   4.949   9.568  0.00  0.00    +0.000 A 
ATOM     20  O   UNL     1      46.302   5.934   9.307  0.00  0.00    +0.000 OA
ATOM     21  C   UNL     1      45.086   4.646  10.875  0.00  0.00    +0.000 A 
ATOM     22  H   UNL     1      45.667   4.174   7.686  0.00  0.00    +0.000 HD
ENDBRANCH   9  12
ENDBRANCH   7  10
ENDBRANCH   1   7
BRANCH   4  23
ATOM     23  C   UNL     1      50.126   9.360  17.067  0.00  0.00    +0.000 C 
BRANCH  23  24
ATOM     24  N   UNL     1      50.632   8.216  17.824  0.00  0.00    +0.000 NA
ATOM     25  H   UNL     1      51.345   8.549  18.473  0.00  0.00    +0.000 HD
BRANCH  24  26
ATOM     26  C   UNL     1      49.555   7.574  18.582  0.00  0.00    +0.000 C 
BRANCH  26  27
ATOM     27  C   UNL     1      49.738   6.040  18.650  0.00  0.00    +0.000 C 
ATOM     28  C   UNL     1      48.576   5.305  19.340  0.00  0.00    +0.000 C 
ATOM     29  C   UNL     1      47.289   5.353  18.518  0.00  0.00    +0.000 C 
ATOM     30  C   UNL     1      47.475   4.767  17.108  0.00  0.00    +0.000 C 
ATOM     31  C   UNL     1      48.673   5.420  16.398  0.00  0.00    +0.000 C 
ATOM     32  C   UNL     1      49.953   5.462  17.239  0.00  0.00    +0.000 C 
BRANCH  30  33
ATOM     33  C   UNL     1      47.592   3.235  17.132  0.00  0.00    +0.000 C 
BRANCH  33  34
ATOM     34  O   UNL     1      46.458   2.655  17.770  0.00  0.00    +0.000 OA
ATOM     35  H   UNL     1      46.728   2.386  18.664  0.00  0.00    +0.000 HD
ENDBRANCH  33  34
ENDBRANCH  30  33
ENDBRANCH  26  27
ENDBRANCH  24  26
ENDBRANCH  23  24
ENDBRANCH   4  23
TORSDOF 9
ENDMDL
MODEL 6
REMARK VINA RESULT:    -6.543      3.766      9.429
REMARK INTER + INTRA:         -10.794
REMARK INTER:                  -9.352
REMARK INTRA:                  -1.443
REMARK UNBOUND:                -1.000
REMARK  Name = 
REMARK  9 active torsions:
REMARK  status: ('A' for Active; 'I' for Inactive)
REMARK    1  A    between atoms: C_2  and  C_22
REMARK    2  A    between atoms: N_3  and  C_4
REMARK    3  A    between atoms: C_4  and  C_5
REMARK    4  A    between atoms: C_8  and  C_9
REMARK    5  A    between atoms: C_9  and  N_10
REMARK    6  A    between atoms: N_10  and  C_11
REMARK    7  A    between atoms: C_11  and  C_12
REMARK    8  A    between atoms: C_15  and  C_16
REMARK    9  A    between atoms: C_16  and  O_17
REMARK                            x       y       z     vdW  Elec       q    Type
REMARK                         _______ _______ _______ _____ _____    ______ ____
ROOT
ATOM      1  C   UNL     1      48.451   5.470  16.872  0.00  0.00    +0.000 A 
ATOM      2  N   UNL     1      48.448   5.781  18.188  0.00  0.00    +0.000 NA
ATOM      3  C   UNL     1      49.319   6.739  18.577  0.00  0.00    +0.000 A 
ATOM      4  C   UNL     1      50.156   7.414  17.709  0.00  0.00    +0.000 A 
ATOM      5  C   UNL     1      50.025   7.056  16.386  0.00  0.00    +0.000 A 
ATOM      6  N   UNL     1      49.190   6.101  15.944  0.00  0.00    +0.000 NA
ENDROOT
BRANCH   1   7
ATOM      7  C   UNL     1      47.529   4.368  16.395  0.00  0.00    +0.000 C 
BRANCH   7  10
ATOM      8  O   UNL     1      47.259   2.987  13.923  0.00  0.00    +0.000 OA
ATOM      9  C   UNL     1      46.758   4.089  14.077  0.00  0.00    +0.000 C 
ATOM     10  N   UNL     1      46.739   4.792  15.265  0.00  0.00    +0.000 N 
ATOM     11  H   UNL     1      46.632   5.793  15.195  0.00  0.00    +0.000 HD
BRANCH   9  12
ATOM     12  C   UNL     1      46.305   4.928  12.980  0.00  0.00    +0.000 A 
ATOM     13  C   UNL     1      47.035   6.020  12.547  0.00  0.00    +0.000 A 
ATOM     14  S   UNL     1      45.996   7.208  11.874  0.00  0.00    +0.000 S 
ATOM     15  C   UNL     1      44.653   6.153  11.942  0.00  0.00    +0.000 A 
ATOM     16  N   UNL     1      43.388   6.560  11.658  0.00  0.00    +0.000 NA
ATOM     17  C   UNL     1      42.511   5.613  11.679  0.00  0.00    +0.000 A 
ATOM     18  N   UNL     1      42.785   4.284  11.912  0.00  0.00    +0.000 N 
ATOM     19  C   UNL     1      44.045   3.823  12.241  0.00  0.00    +0.000 A 
ATOM     20  O   UNL     1      44.279   2.644  12.409  0.00  0.00    +0.000 OA
ATOM     21  C   UNL     1      45.030   4.887  12.331  0.00  0.00    +0.000 A 
ATOM     22  H   UNL     1      42.068   3.586  11.816  0.00  0.00    +0.000 HD
ENDBRANCH   9  12
ENDBRANCH   7  10
ENDBRANCH   1   7
BRANCH   4  23
ATOM     23  C   UNL     1      51.138   8.454  18.143  0.00  0.00    +0.000 C 
BRANCH  23  24
ATOM     24  N   UNL     1      52.513   8.010  17.921  0.00  0.00    +0.000 NA
ATOM     25  H   UNL     1      53.115   8.832  17.881  0.00  0.00    +0.000 HD
BRANCH  24  26
ATOM     26  C   UNL     1      52.962   7.139  19.010  0.00  0.00    +0.000 C 
BRANCH  26  27
ATOM     27  C   UNL     1      53.891   6.014  18.498  0.00  0.00    +0.000 C 
ATOM     28  C   UNL     1      54.257   4.972  19.571  0.00  0.00    +0.000 C 
ATOM     29  C   UNL     1      53.057   4.119  19.982  0.00  0.00    +0.000 C 
ATOM     30  C   UNL     1      52.420   3.392  18.786  0.00  0.00    +0.000 C 
ATOM     31  C   UNL     1      52.099   4.382  17.653  0.00  0.00    +0.000 C 
ATOM     32  C   UNL     1      53.262   5.309  17.283  0.00  0.00    +0.000 C 
BRANCH  30  33
ATOM     33  C   UNL     1      53.287   2.222  18.294  0.00  0.00    +0.000 C 
BRANCH  33  34
ATOM     34  O   UNL     1      52.567   0.996  18.372  0.00  0.00    +0.000 OA
ATOM     35  H   UNL     1      51.805   1.138  18.959  0.00  0.00    +0.000 HD
ENDBRANCH  33  34
ENDBRANCH  30  33
ENDBRANCH  26  27
ENDBRANCH  24  26
ENDBRANCH  23  24
ENDBRANCH   4  23
TORSDOF 9
ENDMDL
MODEL 7
REMARK VINA RESULT:    -6.370      3.749      8.123
REMARK INTER + INTRA:         -10.535
REMARK INTER:                  -8.717
REMARK INTRA:                  -1.818
REMARK UNBOUND:                -1.000
REMARK  Name = 
REMARK  9 active torsions:
REMARK  status: ('A' for Active; 'I' for Inactive)
REMARK    1  A    between atoms: C_2  and  C_22
REMARK    2  A    between atoms: N_3  and  C_4
REMARK    3  A    between atoms: C_4  and  C_5
REMARK    4  A    between atoms: C_8  and  C_9
REMARK    5  A    between atoms: C_9  and  N_10
REMARK    6  A    between atoms: N_10  and  C_11
REMARK    7  A    between atoms: C_11  and  C_12
REMARK    8  A    between atoms: C_15  and  C_16
REMARK    9  A    between atoms: C_16  and  O_17
REMARK                            x       y       z     vdW  Elec       q    Type
REMARK                         _______ _______ _______ _____ _____    ______ ____
ROOT
ATOM      1  C   UNL     1      48.600   5.325  17.076  0.00  0.00    +0.000 A 
ATOM      2  N   UNL     1      49.860   5.145  16.622  0.00  0.00    +0.000 NA
ATOM      3  C   UNL     1      50.755   6.106  16.946  0.00  0.00    +0.000 A 
ATOM      4  C   UNL     1      50.452   7.204  17.727  0.00  0.00    +0.000 A 
ATOM      5  C   UNL     1      49.153   7.247  18.184  0.00  0.00    +0.000 A 
ATOM      6  N   UNL     1      48.218   6.332  17.880  0.00  0.00    +0.000 NA
ENDROOT
BRANCH   1   7
ATOM      7  C   UNL     1      47.549   4.302  16.696  0.00  0.00    +0.000 C 
BRANCH   7  10
ATOM      8  O   UNL     1      47.357   2.975  14.187  0.00  0.00    +0.000 OA
ATOM      9  C   UNL     1      46.831   4.064  14.357  0.00  0.00    +0.000 C 
ATOM     10  N   UNL     1      46.774   4.738  15.560  0.00  0.00    +0.000 N 
ATOM     11  H   UNL     1      46.649   5.738  15.512  0.00  0.00    +0.000 HD
BRANCH   9  12
ATOM     12  C   UNL     1      46.383   4.919  13.271  0.00  0.00    +0.000 A 
ATOM     13  C   UNL     1      47.068   6.068  12.917  0.00  0.00    +0.000 A 
ATOM     14  S   UNL     1      45.996   7.221  12.238  0.00  0.00    +0.000 S 
ATOM     15  C   UNL     1      44.715   6.090  12.197  0.00  0.00    +0.000 A 
ATOM     16  N   UNL     1      43.444   6.437  11.864  0.00  0.00    +0.000 NA
ATOM     17  C   UNL     1      42.623   5.442  11.805  0.00  0.00    +0.000 A 
ATOM     18  N   UNL     1      42.963   4.122  12.002  0.00  0.00    +0.000 N 
ATOM     19  C   UNL     1      44.230   3.720  12.377  0.00  0.00    +0.000 A 
ATOM     20  O   UNL     1      44.524   2.550  12.512  0.00  0.00    +0.000 OA
ATOM     21  C   UNL     1      45.146   4.833  12.557  0.00  0.00    +0.000 A 
ATOM     22  H   UNL     1      42.293   3.389  11.844  0.00  0.00    +0.000 HD
ENDBRANCH   9  12
ENDBRANCH   7  10
ENDBRANCH   1   7
BRANCH   4  23
ATOM     23  C   UNL     1      51.433   8.280  18.064  0.00  0.00    +0.000 C 
BRANCH  23  24
ATOM     24  N   UNL     1      52.149   8.737  16.874  0.00  0.00    +0.000 NA
ATOM     25  H   UNL     1      52.252   7.947  16.238  0.00  0.00    +0.000 HD
BRANCH  24  26
ATOM     26  C   UNL     1      51.408   9.805  16.197  0.00  0.00    +0.000 C 
BRANCH  26  27
ATOM     27  C   UNL     1      51.718   9.846  14.683  0.00  0.00    +0.000 C 
ATOM     28  C   UNL     1      51.553   8.488  13.977  0.00  0.00    +0.000 C 
ATOM     29  C   UNL     1      50.092   8.044  13.908  0.00  0.00    +0.000 C 
ATOM     30  C   UNL     1      49.201   9.080  13.201  0.00  0.00    +0.000 C 
ATOM     31  C   UNL     1      49.382  10.474  13.824  0.00  0.00    +0.000 C 
ATOM     32  C   UNL     1      50.844  10.904  13.985  0.00  0.00    +0.000 C 
BRANCH  30  33
ATOM     33  C   UNL     1      49.434   9.099  11.682  0.00  0.00    +0.000 C 
BRANCH  33  34
ATOM     34  O   UNL     1      49.541   7.773  11.173  0.00  0.00    +0.000 OA
ATOM     35  H   UNL     1      49.709   7.836  10.218  0.00  0.00    +0.000 HD
ENDBRANCH  33  34
ENDBRANCH  30  33
ENDBRANCH  26  27
ENDBRANCH  24  26
ENDBRANCH  23  24
ENDBRANCH   4  23
TORSDOF 9
ENDMDL
MODEL 8
REMARK VINA RESULT:    -6.070      3.432      5.149
REMARK INTER + INTRA:         -10.087
REMARK INTER:                  -9.505
REMARK INTRA:                  -0.582
REMARK UNBOUND:                -1.000
REMARK  Name = 
REMARK  9 active torsions:
REMARK  status: ('A' for Active; 'I' for Inactive)
REMARK    1  A    between atoms: C_2  and  C_22
REMARK    2  A    between atoms: N_3  and  C_4
REMARK    3  A    between atoms: C_4  and  C_5
REMARK    4  A    between atoms: C_8  and  C_9
REMARK    5  A    between atoms: C_9  and  N_10
REMARK    6  A    between atoms: N_10  and  C_11
REMARK    7  A    between atoms: C_11  and  C_12
REMARK    8  A    between atoms: C_15  and  C_16
REMARK    9  A    between atoms: C_16  and  O_17
REMARK                            x       y       z     vdW  Elec       q    Type
REMARK                         _______ _______ _______ _____ _____    ______ ____
ROOT
ATOM      1  C   UNL     1      49.567   7.961  16.687  0.00  0.00    +0.000 A 
ATOM      2  N   UNL     1      49.866   7.252  15.576  0.00  0.00    +0.000 NA
ATOM      3  C   UNL     1      49.141   7.538  14.471  0.00  0.00    +0.000 A 
ATOM      4  C   UNL     1      48.168   8.517  14.425  0.00  0.00    +0.000 A 
ATOM      5  C   UNL     1      47.996   9.215  15.599  0.00  0.00    +0.000 A 
ATOM      6  N   UNL     1      48.674   8.963  16.731  0.00  0.00    +0.000 NA
ENDROOT
BRANCH   1   7
ATOM      7  C   UNL     1      50.318   7.642  17.963  0.00  0.00    +0.000 C 
BRANCH   7  10
ATOM      8  O   UNL     1      52.490   6.013  18.813  0.00  0.00    +0.000 OA
ATOM      9  C   UNL     1      51.396   5.522  18.586  0.00  0.00    +0.000 C 
ATOM     10  N   UNL     1      50.256   6.234  18.275  0.00  0.00    +0.000 N 
ATOM     11  H   UNL     1      49.536   5.737  17.772  0.00  0.00    +0.000 HD
BRANCH   9  12
ATOM     12  C   UNL     1      51.179   4.099  18.386  0.00  0.00    +0.000 A 
ATOM     13  C   UNL     1      52.216   3.186  18.458  0.00  0.00    +0.000 A 
ATOM     14  S   UNL     1      51.888   1.826  17.465  0.00  0.00    +0.000 S 
ATOM     15  C   UNL     1      50.291   2.357  17.169  0.00  0.00    +0.000 A 
ATOM     16  N   UNL     1      49.471   1.745  16.274  0.00  0.00    +0.000 NA
ATOM     17  C   UNL     1      48.274   2.228  16.238  0.00  0.00    +0.000 A 
ATOM     18  N   UNL     1      47.801   3.236  17.048  0.00  0.00    +0.000 N 
ATOM     19  C   UNL     1      48.601   3.915  17.947  0.00  0.00    +0.000 A 
ATOM     20  O   UNL     1      48.163   4.777  18.680  0.00  0.00    +0.000 OA
ATOM     21  C   UNL     1      49.982   3.463  17.928  0.00  0.00    +0.000 A 
ATOM     22  H   UNL     1      46.830   3.495  17.035  0.00  0.00    +0.000 HD
ENDBRANCH   9  12
ENDBRANCH   7  10
ENDBRANCH   1   7
BRANCH   4  23
ATOM     23  C   UNL     1      47.347   8.815  13.212  0.00  0.00    +0.000 C 
BRANCH  23  24
ATOM     24  N   UNL     1      46.027   8.194  13.299  0.00  0.00    +0.000 NA
ATOM     25  H   UNL     1      45.358   8.899  13.609  0.00  0.00    +0.000 HD
BRANCH  24  26
ATOM     26  C   UNL     1      45.607   7.675  11.994  0.00  0.00    +0.000 C 
BRANCH  26  27
ATOM     27  C   UNL     1      46.083   6.220  11.776  0.00  0.00    +0.000 C 
ATOM     28  C   UNL     1      45.846   5.300  12.987  0.00  0.00    +0.000 C 
ATOM     29  C   UNL     1      44.361   5.029  13.228  0.00  0.00    +0.000 C 
ATOM     30  C   UNL     1      43.673   4.413  11.999  0.00  0.00    +0.000 C 
ATOM     31  C   UNL     1      43.939   5.259  10.742  0.00  0.00    +0.000 C 
ATOM     32  C   UNL     1      45.413   5.617  10.527  0.00  0.00    +0.000 C 
BRANCH  30  33
ATOM     33  C   UNL     1      44.072   2.943  11.791  0.00  0.00    +0.000 C 
BRANCH  33  34
ATOM     34  O   UNL     1      42.915   2.124  11.653  0.00  0.00    +0.000 OA
ATOM     35  H   UNL     1      42.528   2.305  10.780  0.00  0.00    +0.000 HD
ENDBRANCH  33  34
ENDBRANCH  30  33
ENDBRANCH  26  27
ENDBRANCH  24  26
ENDBRANCH  23  24
ENDBRANCH   4  23
TORSDOF 9
ENDMDL
MODEL 9
REMARK VINA RESULT:    -5.996      3.885      9.117
REMARK INTER + INTRA:          -9.976
REMARK INTER:                  -8.339
REMARK INTRA:                  -1.637
REMARK UNBOUND:                -1.000
REMARK  Name = 
REMARK  9 active torsions:
REMARK  status: ('A' for Active; 'I' for Inactive)
REMARK    1  A    between atoms: C_2  and  C_22
REMARK    2  A    between atoms: N_3  and  C_4
REMARK    3  A    between atoms: C_4  and  C_5
REMARK    4  A    between atoms: C_8  and  C_9
REMARK    5  A    between atoms: C_9  and  N_10
REMARK    6  A    between atoms: N_10  and  C_11
REMARK    7  A    between atoms: C_11  and  C_12
REMARK    8  A    between atoms: C_15  and  C_16
REMARK    9  A    between atoms: C_16  and  O_17
REMARK                            x       y       z     vdW  Elec       q    Type
REMARK                         _______ _______ _______ _____ _____    ______ ____
ROOT
ATOM      1  C   UNL     1      48.083   4.069  17.055  0.00  0.00    +0.000 A 
ATOM      2  N   UNL     1      49.406   3.858  16.880  0.00  0.00    +0.000 NA
ATOM      3  C   UNL     1      50.211   4.229  17.901  0.00  0.00    +0.000 A 
ATOM      4  C   UNL     1      49.747   4.761  19.089  0.00  0.00    +0.000 A 
ATOM      5  C   UNL     1      48.377   4.870  19.176  0.00  0.00    +0.000 A 
ATOM      6  N   UNL     1      47.531   4.534  18.188  0.00  0.00    +0.000 NA
ENDROOT
BRANCH   1   7
ATOM      7  C   UNL     1      47.145   3.717  15.918  0.00  0.00    +0.000 C 
BRANCH   7  10
ATOM      8  O   UNL     1      46.113   3.587  13.270  0.00  0.00    +0.000 OA
ATOM      9  C   UNL     1      46.540   4.638  13.721  0.00  0.00    +0.000 C 
ATOM     10  N   UNL     1      46.959   4.832  15.021  0.00  0.00    +0.000 N 
ATOM     11  H   UNL     1      47.603   5.593  15.180  0.00  0.00    +0.000 HD
BRANCH   9  12
ATOM     12  C   UNL     1      46.883   5.786  12.898  0.00  0.00    +0.000 A 
ATOM     13  C   UNL     1      48.152   6.336  12.906  0.00  0.00    +0.000 A 
ATOM     14  S   UNL     1      48.083   8.009  12.530  0.00  0.00    +0.000 S 
ATOM     15  C   UNL     1      46.426   7.907  12.123  0.00  0.00    +0.000 A 
ATOM     16  N   UNL     1      45.673   9.004  11.848  0.00  0.00    +0.000 NA
ATOM     17  C   UNL     1      44.464   8.735  11.480  0.00  0.00    +0.000 A 
ATOM     18  N   UNL     1      43.949   7.469  11.315  0.00  0.00    +0.000 N 
ATOM     19  C   UNL     1      44.659   6.323  11.616  0.00  0.00    +0.000 A 
ATOM     20  O   UNL     1      44.205   5.213  11.433  0.00  0.00    +0.000 OA
ATOM     21  C   UNL     1      45.987   6.602  12.137  0.00  0.00    +0.000 A 
ATOM     22  H   UNL     1      43.029   7.333  10.932  0.00  0.00    +0.000 HD
ENDBRANCH   9  12
ENDBRANCH   7  10
ENDBRANCH   1   7
BRANCH   4  23
ATOM     23  C   UNL     1      50.637   5.196  20.208  0.00  0.00    +0.000 C 
BRANCH  23  24
ATOM     24  N   UNL     1      50.521   6.633  20.449  0.00  0.00    +0.000 NA
ATOM     25  H   UNL     1      50.938   6.842  21.356  0.00  0.00    +0.000 HD
BRANCH  24  26
ATOM     26  C   UNL     1      51.223   7.394  19.412  0.00  0.00    +0.000 C 
BRANCH  26  27
ATOM     27  C   UNL     1      50.482   8.707  19.066  0.00  0.00    +0.000 C 
ATOM     28  C   UNL     1      51.220   9.586  18.040  0.00  0.00    +0.000 C 
ATOM     29  C   UNL     1      51.246   8.954  16.648  0.00  0.00    +0.000 C 
ATOM     30  C   UNL     1      49.835   8.655  16.116  0.00  0.00    +0.000 C 
ATOM     31  C   UNL     1      49.027   7.836  17.138  0.00  0.00    +0.000 C 
ATOM     32  C   UNL     1      49.059   8.403  18.561  0.00  0.00    +0.000 C 
BRANCH  30  33
ATOM     33  C   UNL     1      49.093   9.935  15.697  0.00  0.00    +0.000 C 
BRANCH  33  34
ATOM     34  O   UNL     1      47.687   9.716  15.677  0.00  0.00    +0.000 OA
ATOM     35  H   UNL     1      47.417   9.611  14.748  0.00  0.00    +0.000 HD
ENDBRANCH  33  34
ENDBRANCH  30  33
ENDBRANCH  26  27
ENDBRANCH  24  26
ENDBRANCH  23  24
ENDBRANCH   4  23
TORSDOF 9
ENDMDL
