MODEL 1
REMARK VINA RESULT:    -5.958      0.000      0.000
REMARK INTER + INTRA:          -8.999
REMARK INTER:                  -8.222
REMARK INTRA:                  -0.777
REMARK UNBOUND:                -0.777
REMARK  Name = 
REMARK  7 active torsions:
REMARK  status: ('A' for Active; 'I' for Inactive)
REMARK    1  A    between atoms: C_2  and  C_3
REMARK    2  A    between atoms: N_5  and  C_6
REMARK    3  A    between atoms: C_6  and  C_7
REMARK    4  A    between atoms: C_10  and  C_11
REMARK    5  A    between atoms: N_13  and  C_14
REMARK    6  A    between atoms: C_14  and  C_15
REMARK    7  A    between atoms: C_15  and  N_16
REMARK                            x       y       z     vdW  Elec       q    Type
REMARK                         _______ _______ _______ _____ _____    ______ ____
ROOT
ATOM      1  C   UNL     1      45.720   6.790  12.611  0.00  0.00    +0.000 A 
ATOM      2  C   UNL     1      46.007   5.551  13.194  0.00  0.00    +0.000 A 
ATOM      3  C   UNL     1      45.579   4.375  12.576  0.00  0.00    +0.000 A 
ATOM      4  C   UNL     1      44.842   4.470  11.398  0.00  0.00    +0.000 A 
ATOM      5  N   UNL     1      44.453   5.660  10.862  0.00  0.00    +0.000 NA
ATOM      6  C   UNL     1      44.907   6.780  11.478  0.00  0.00    +0.000 A 
ENDROOT
BRANCH   4   7
ATOM      7  C   UNL     1      44.498   3.230  10.613  0.00  0.00    +0.000 C 
ATOM      8  O   UNL     1      43.496   2.573  10.881  0.00  0.00    +0.000 OA
ATOM      9  N   UNL     1      45.377   2.882   9.603  0.00  0.00    +0.000 N 
ATOM     10  H   UNL     1      46.132   3.522   9.380  0.00  0.00    +0.000 HD
BRANCH   9  11
ATOM     11  C   UNL     1      45.167   1.711   8.766  0.00  0.00    +0.000 C 
BRANCH  11  12
ATOM     12  C   UNL     1      46.407   1.370   7.928  0.00  0.00    +0.000 C 
BRANCH  12  13
ATOM     13  N   UNL     1      46.708  -0.068   7.952  0.00  0.00    +0.000 NA
ATOM     14  H   UNL     1      47.719  -0.185   8.018  0.00  0.00    +0.000 HD
ATOM     15  H   UNL     1      46.434  -0.475   7.058  0.00  0.00    +0.000 HD
ENDBRANCH  12  13
ENDBRANCH  11  12
ENDBRANCH   9  11
ENDBRANCH   4   7
BRANCH   1  16
ATOM     16  C   UNL     1      46.339   8.065  13.129  0.00  0.00    +0.000 C 
BRANCH  16  19
ATOM     17  C   UNL     1      49.834   7.888  12.108  0.00  0.00    +0.000 A 
ATOM     18  C   UNL     1      48.487   7.942  11.819  0.00  0.00    +0.000 A 
ATOM     19  N   UNL     1      47.798   8.040  13.010  0.00  0.00    +0.000 N 
ATOM     20  C   UNL     1      48.701   8.148  14.057  0.00  0.00    +0.000 A 
ATOM     21  C   UNL     1      48.497   8.320  15.435  0.00  0.00    +0.000 A 
ATOM     22  C   UNL     1      49.617   8.381  16.270  0.00  0.00    +0.000 A 
ATOM     23  C   UNL     1      50.903   8.272  15.752  0.00  0.00    +0.000 A 
ATOM     24  C   UNL     1      51.101   8.099  14.379  0.00  0.00    +0.000 A 
ATOM     25  C   UNL     1      49.986   8.041  13.514  0.00  0.00    +0.000 A 
BRANCH  17  27
ATOM     26  N   UNL     1      51.730   7.573  10.373  0.00  0.00    +0.000 NA
ATOM     27  C   UNL     1      50.879   7.712  11.144  0.00  0.00    +0.000 C 
ENDBRANCH  17  27
ENDBRANCH  16  19
ENDBRANCH   1  16
TORSDOF 7
ENDMDL
MODEL 2
REMARK VINA RESULT:    -5.779      4.245      5.718
REMARK INTER + INTRA:          -8.752
REMARK INTER:                  -7.810
REMARK INTRA:                  -0.942
REMARK UNBOUND:                -0.777
REMARK  Name = 
REMARK  7 active torsions:
REMARK  status: ('A' for Active; 'I' for Inactive)
REMARK    1  A    between atoms: C_2  and  C_3
REMARK    2  A    between atoms: N_5  and  C_6
REMARK    3  A    between atoms: C_6  and  C_7
REMARK    4  A    between atoms: C_10  and  C_11
REMARK    5  A    between atoms: N_13  and  C_14
REMARK    6  A    between atoms: C_14  and  C_15
REMARK    7  A    between atoms: C_15  and  N_16
REMARK                            x       y       z     vdW  Elec       q    Type
REMARK                         _______ _______ _______ _____ _____    ______ ____
ROOT
ATOM      1  C   UNL     1      48.063   5.129  16.096  0.00  0.00    +0.000 A 
ATOM      2  C   UNL     1      48.298   6.107  15.125  0.00  0.00    +0.000 A 
ATOM      3  C   UNL     1      47.565   6.101  13.937  0.00  0.00    +0.000 A 
ATOM      4  C   UNL     1      46.630   5.089  13.736  0.00  0.00    +0.000 A 
ATOM      5  N   UNL     1      46.451   4.061  14.611  0.00  0.00    +0.000 NA
ATOM      6  C   UNL     1      47.165   4.115  15.763  0.00  0.00    +0.000 A 
ENDROOT
BRANCH   4   7
ATOM      7  C   UNL     1      45.705   5.133  12.546  0.00  0.00    +0.000 C 
ATOM      8  O   UNL     1      46.006   5.765  11.538  0.00  0.00    +0.000 OA
ATOM      9  N   UNL     1      44.514   4.440  12.671  0.00  0.00    +0.000 N 
ATOM     10  H   UNL     1      44.375   3.866  13.497  0.00  0.00    +0.000 HD
BRANCH   9  11
ATOM     11  C   UNL     1      43.530   4.396  11.600  0.00  0.00    +0.000 C 
BRANCH  11  12
ATOM     12  C   UNL     1      42.439   5.462  11.775  0.00  0.00    +0.000 C 
BRANCH  12  13
ATOM     13  N   UNL     1      42.826   6.746  11.174  0.00  0.00    +0.000 NA
ATOM     14  H   UNL     1      43.643   7.101  11.670  0.00  0.00    +0.000 HD
ATOM     15  H   UNL     1      42.081   7.422  11.338  0.00  0.00    +0.000 HD
ENDBRANCH  12  13
ENDBRANCH  11  12
ENDBRANCH   9  11
ENDBRANCH   4   7
BRANCH   1  16
ATOM     16  C   UNL     1      48.678   5.221  17.471  0.00  0.00    +0.000 C 
BRANCH  16  19
ATOM     17  C   UNL     1      51.568   3.012  17.703  0.00  0.00    +0.000 A 
ATOM     18  C   UNL     1      50.208   3.227  17.641  0.00  0.00    +0.000 A 
ATOM     19  N   UNL     1      49.995   4.584  17.513  0.00  0.00    +0.000 N 
ATOM     20  C   UNL     1      51.215   5.232  17.392  0.00  0.00    +0.000 A 
ATOM     21  C   UNL     1      51.523   6.587  17.191  0.00  0.00    +0.000 A 
ATOM     22  C   UNL     1      52.868   6.959  17.124  0.00  0.00    +0.000 A 
ATOM     23  C   UNL     1      53.881   6.014  17.256  0.00  0.00    +0.000 A 
ATOM     24  C   UNL     1      53.570   4.667  17.459  0.00  0.00    +0.000 A 
ATOM     25  C   UNL     1      52.217   4.264  17.523  0.00  0.00    +0.000 A 
BRANCH  17  27
ATOM     26  N   UNL     1      52.696   0.712  18.084  0.00  0.00    +0.000 NA
ATOM     27  C   UNL     1      52.194   1.740  17.908  0.00  0.00    +0.000 C 
ENDBRANCH  17  27
ENDBRANCH  16  19
ENDBRANCH   1  16
TORSDOF 7
ENDMDL
MODEL 3
REMARK VINA RESULT:    -5.777      3.111      7.109
REMARK INTER + INTRA:          -8.749
REMARK INTER:                  -8.158
REMARK INTRA:                  -0.590
REMARK UNBOUND:                -0.777
REMARK  Name = 
REMARK  7 active torsions:
REMARK  status: ('A' for Active; 'I' for Inactive)
REMARK    1  A    between atoms: C_2  and  C_3
REMARK    2  A    between atoms: N_5  and  C_6
REMARK    3  A    between atoms: C_6  and  C_7
REMARK    4  A    between atoms: C_10  and  C_11
REMARK    5  A    between atoms: N_13  and  C_14
REMARK    6  A    between atoms: C_14  and  C_15
REMARK    7  A    between atoms: C_15  and  N_16
REMARK                            x       y       z     vdW  Elec       q    Type
REMARK                         _______ _______ _______ _____ _____    ______ ____
ROOT
ATOM      1  C   UNL     1      47.205   7.659  12.283  0.00  0.00    +0.000 A 
ATOM      2  C   UNL     1      47.689   8.904  11.869  0.00  0.00    +0.000 A 
ATOM      3  C   UNL     1      49.065   9.119  11.769  0.00  0.00    +0.000 A 
ATOM      4  C   UNL     1      49.928   8.085  12.120  0.00  0.00    +0.000 A 
ATOM      5  N   UNL     1      49.495   6.899  12.630  0.00  0.00    +0.000 NA
ATOM      6  C   UNL     1      48.152   6.720  12.690  0.00  0.00    +0.000 A 
ENDROOT
BRANCH   4   7
ATOM      7  C   UNL     1      51.410   8.215  11.877  0.00  0.00    +0.000 C 
ATOM      8  O   UNL     1      52.070   9.073  12.456  0.00  0.00    +0.000 OA
ATOM      9  N   UNL     1      51.961   7.331  10.966  0.00  0.00    +0.000 N 
ATOM     10  H   UNL     1      51.372   6.591  10.597  0.00  0.00    +0.000 HD
BRANCH   9  11
ATOM     11  C   UNL     1      53.378   7.344  10.638  0.00  0.00    +0.000 C 
BRANCH  11  12
ATOM     12  C   UNL     1      53.789   6.120   9.807  0.00  0.00    +0.000 C 
BRANCH  12  13
ATOM     13  N   UNL     1      53.944   4.919  10.638  0.00  0.00    +0.000 NA
ATOM     14  H   UNL     1      53.021   4.624  10.955  0.00  0.00    +0.000 HD
ATOM     15  H   UNL     1      54.465   5.166  11.479  0.00  0.00    +0.000 HD
ENDBRANCH  12  13
ENDBRANCH  11  12
ENDBRANCH   9  11
ENDBRANCH   4   7
BRANCH   1  16
ATOM     16  C   UNL     1      45.737   7.320  12.204  0.00  0.00    +0.000 C 
BRANCH  16  19
ATOM     17  C   UNL     1      45.534   4.821   9.557  0.00  0.00    +0.000 A 
ATOM     18  C   UNL     1      46.021   6.002  10.076  0.00  0.00    +0.000 A 
ATOM     19  N   UNL     1      45.500   6.159  11.344  0.00  0.00    +0.000 N 
ATOM     20  C   UNL     1      44.759   5.036  11.679  0.00  0.00    +0.000 A 
ATOM     21  C   UNL     1      44.083   4.699  12.863  0.00  0.00    +0.000 A 
ATOM     22  C   UNL     1      43.394   3.484  12.910  0.00  0.00    +0.000 A 
ATOM     23  C   UNL     1      43.373   2.628  11.813  0.00  0.00    +0.000 A 
ATOM     24  C   UNL     1      44.045   2.970  10.636  0.00  0.00    +0.000 A 
ATOM     25  C   UNL     1      44.756   4.189  10.566  0.00  0.00    +0.000 A 
BRANCH  17  27
ATOM     26  N   UNL     1      45.997   3.946   7.165  0.00  0.00    +0.000 NA
ATOM     27  C   UNL     1      45.784   4.336   8.233  0.00  0.00    +0.000 C 
ENDBRANCH  17  27
ENDBRANCH  16  19
ENDBRANCH   1  16
TORSDOF 7
ENDMDL
MODEL 4
REMARK VINA RESULT:    -5.765      3.118      7.454
REMARK INTER + INTRA:          -8.732
REMARK INTER:                  -8.235
REMARK INTRA:                  -0.497
REMARK UNBOUND:                -0.777
REMARK  Name = 
REMARK  7 active torsions:
REMARK  status: ('A' for Active; 'I' for Inactive)
REMARK    1  A    between atoms: C_2  and  C_3
REMARK    2  A    between atoms: N_5  and  C_6
REMARK    3  A    between atoms: C_6  and  C_7
REMARK    4  A    between atoms: C_10  and  C_11
REMARK    5  A    between atoms: N_13  and  C_14
REMARK    6  A    between atoms: C_14  and  C_15
REMARK    7  A    between atoms: C_15  and  N_16
REMARK                            x       y       z     vdW  Elec       q    Type
REMARK                         _______ _______ _______ _____ _____    ______ ____
ROOT
ATOM      1  C   UNL     1      46.622   7.380  12.458  0.00  0.00    +0.000 A 
ATOM      2  C   UNL     1      47.343   6.205  12.695  0.00  0.00    +0.000 A 
ATOM      3  C   UNL     1      48.144   6.096  13.833  0.00  0.00    +0.000 A 
ATOM      4  C   UNL     1      48.229   7.186  14.696  0.00  0.00    +0.000 A 
ATOM      5  N   UNL     1      47.628   8.381  14.440  0.00  0.00    +0.000 NA
ATOM      6  C   UNL     1      46.841   8.440  13.337  0.00  0.00    +0.000 A 
ENDROOT
BRANCH   4   7
ATOM      7  C   UNL     1      48.949   7.060  16.014  0.00  0.00    +0.000 C 
ATOM      8  O   UNL     1      50.160   7.243  16.089  0.00  0.00    +0.000 OA
ATOM      9  N   UNL     1      48.172   6.715  17.106  0.00  0.00    +0.000 N 
ATOM     10  H   UNL     1      47.165   6.670  16.985  0.00  0.00    +0.000 HD
BRANCH   9  11
ATOM     11  C   UNL     1      48.736   6.561  18.437  0.00  0.00    +0.000 C 
BRANCH  11  12
ATOM     12  C   UNL     1      47.930   5.576  19.295  0.00  0.00    +0.000 C 
BRANCH  12  13
ATOM     13  N   UNL     1      46.568   5.385  18.778  0.00  0.00    +0.000 NA
ATOM     14  H   UNL     1      45.979   6.135  19.138  0.00  0.00    +0.000 HD
ATOM     15  H   UNL     1      46.190   4.520  19.163  0.00  0.00    +0.000 HD
ENDBRANCH  12  13
ENDBRANCH  11  12
ENDBRANCH   9  11
ENDBRANCH   4   7
BRANCH   1  16
ATOM     16  C   UNL     1      45.590   7.462  11.361  0.00  0.00    +0.000 C 
BRANCH  16  19
ATOM     17  C   UNL     1      45.455   4.528   9.202  0.00  0.00    +0.000 A 
ATOM     18  C   UNL     1      45.915   5.792   9.503  0.00  0.00    +0.000 A 
ATOM     19  N   UNL     1      45.383   6.162  10.721  0.00  0.00    +0.000 N 
ATOM     20  C   UNL     1      44.663   5.101  11.250  0.00  0.00    +0.000 A 
ATOM     21  C   UNL     1      43.986   4.966  12.472  0.00  0.00    +0.000 A 
ATOM     22  C   UNL     1      43.321   3.765  12.734  0.00  0.00    +0.000 A 
ATOM     23  C   UNL     1      43.325   2.727  11.807  0.00  0.00    +0.000 A 
ATOM     24  C   UNL     1      43.998   2.867  10.590  0.00  0.00    +0.000 A 
ATOM     25  C   UNL     1      44.684   4.069  10.306  0.00  0.00    +0.000 A 
BRANCH  17  27
ATOM     26  N   UNL     1      45.934   3.240   7.008  0.00  0.00    +0.000 NA
ATOM     27  C   UNL     1      45.724   3.819   7.987  0.00  0.00    +0.000 C 
ENDBRANCH  17  27
ENDBRANCH  16  19
ENDBRANCH   1  16
TORSDOF 7
ENDMDL
MODEL 5
REMARK VINA RESULT:    -5.731      1.503      2.461
REMARK INTER + INTRA:          -8.685
REMARK INTER:                  -7.985
REMARK INTRA:                  -0.701
REMARK UNBOUND:                -0.777
REMARK  Name = 
REMARK  7 active torsions:
REMARK  status: ('A' for Active; 'I' for Inactive)
REMARK    1  A    between atoms: C_2  and  C_3
REMARK    2  A    between atoms: N_5  and  C_6
REMARK    3  A    between atoms: C_6  and  C_7
REMARK    4  A    between atoms: C_10  and  C_11
REMARK    5  A    between atoms: N_13  and  C_14
REMARK    6  A    between atoms: C_14  and  C_15
REMARK    7  A    between atoms: C_15  and  N_16
REMARK                            x       y       z     vdW  Elec       q    Type
REMARK                         _______ _______ _______ _____ _____    ______ ____
ROOT
ATOM      1  C   UNL     1      46.224   6.288  13.021  0.00  0.00    +0.000 A 
ATOM      2  C   UNL     1      46.450   4.945  13.339  0.00  0.00    +0.000 A 
ATOM      3  C   UNL     1      45.924   3.938  12.528  0.00  0.00    +0.000 A 
ATOM      4  C   UNL     1      45.152   4.304  11.428  0.00  0.00    +0.000 A 
ATOM      5  N   UNL     1      44.823   5.596  11.150  0.00  0.00    +0.000 NA
ATOM      6  C   UNL     1      45.372   6.546  11.948  0.00  0.00    +0.000 A 
ENDROOT
BRANCH   4   7
ATOM      7  C   UNL     1      44.700   3.263  10.436  0.00  0.00    +0.000 C 
ATOM      8  O   UNL     1      43.511   2.981  10.317  0.00  0.00    +0.000 OA
ATOM      9  N   UNL     1      45.695   2.649   9.696  0.00  0.00    +0.000 N 
ATOM     10  H   UNL     1      46.644   2.999   9.782  0.00  0.00    +0.000 HD
BRANCH   9  11
ATOM     11  C   UNL     1      45.400   1.628   8.702  0.00  0.00    +0.000 C 
BRANCH  11  12
ATOM     12  C   UNL     1      46.639   1.251   7.877  0.00  0.00    +0.000 C 
BRANCH  12  13
ATOM     13  N   UNL     1      46.771  -0.204   7.720  0.00  0.00    +0.000 NA
ATOM     14  H   UNL     1      47.665  -0.400   7.271  0.00  0.00    +0.000 HD
ATOM     15  H   UNL     1      46.053  -0.531   7.074  0.00  0.00    +0.000 HD
ENDBRANCH  12  13
ENDBRANCH  11  12
ENDBRANCH   9  11
ENDBRANCH   4   7
BRANCH   1  16
ATOM     16  C   UNL     1      46.943   7.400  13.744  0.00  0.00    +0.000 C 
BRANCH  16  19
ATOM     17  C   UNL     1      49.907   8.373  11.859  0.00  0.00    +0.000 A 
ATOM     18  C   UNL     1      49.208   7.482  12.645  0.00  0.00    +0.000 A 
ATOM     19  N   UNL     1      47.963   8.020  12.897  0.00  0.00    +0.000 N 
ATOM     20  C   UNL     1      47.824   9.207  12.194  0.00  0.00    +0.000 A 
ATOM     21  C   UNL     1      46.738  10.090  12.083  0.00  0.00    +0.000 A 
ATOM     22  C   UNL     1      46.894  11.239  11.303  0.00  0.00    +0.000 A 
ATOM     23  C   UNL     1      48.094  11.507  10.653  0.00  0.00    +0.000 A 
ATOM     24  C   UNL     1      49.174  10.627  10.770  0.00  0.00    +0.000 A 
ATOM     25  C   UNL     1      49.039   9.455  11.546  0.00  0.00    +0.000 A 
BRANCH  17  27
ATOM     26  N   UNL     1      52.369   8.079  11.110  0.00  0.00    +0.000 NA
ATOM     27  C   UNL     1      51.268   8.212  11.439  0.00  0.00    +0.000 C 
ENDBRANCH  17  27
ENDBRANCH  16  19
ENDBRANCH   1  16
TORSDOF 7
ENDMDL
MODEL 6
REMARK VINA RESULT:    -5.701      4.632      6.138
REMARK INTER + INTRA:          -8.645
REMARK INTER:                  -7.838
REMARK INTRA:                  -0.807
REMARK UNBOUND:                -0.777
REMARK  Name = 
REMARK  7 active torsions:
REMARK  status: ('A' for Active; 'I' for Inactive)
REMARK    1  A    between atoms: C_2  and  C_3
REMARK    2  A    between atoms: N_5  and  C_6
REMARK    3  A    between atoms: C_6  and  C_7
REMARK    4  A    between atoms: C_10  and  C_11
REMARK    5  A    between atoms: N_13  and  C_14
REMARK    6  A    between atoms: C_14  and  C_15
REMARK    7  A    between atoms: C_15  and  N_16
REMARK                            x       y       z     vdW  Elec       q    Type
REMARK                         _______ _______ _______ _____ _____    ______ ____
ROOT
ATOM      1  C   UNL     1      48.236   5.027  16.500  0.00  0.00    +0.000 A 
ATOM      2  C   UNL     1      48.514   6.126  15.681  0.00  0.00    +0.000 A 
ATOM      3  C   UNL     1      47.914   6.228  14.424  0.00  0.00    +0.000 A 
ATOM      4  C   UNL     1      47.071   5.204  14.003  0.00  0.00    +0.000 A 
ATOM      5  N   UNL     1      46.863   4.070  14.728  0.00  0.00    +0.000 NA
ATOM      6  C   UNL     1      47.444   4.018  15.952  0.00  0.00    +0.000 A 
ENDROOT
BRANCH   4   7
ATOM      7  C   UNL     1      46.279   5.346  12.728  0.00  0.00    +0.000 C 
ATOM      8  O   UNL     1      46.685   6.053  11.810  0.00  0.00    +0.000 OA
ATOM      9  N   UNL     1      45.082   4.654  12.671  0.00  0.00    +0.000 N 
ATOM     10  H   UNL     1      44.857   4.019  13.430  0.00  0.00    +0.000 HD
BRANCH   9  11
ATOM     11  C   UNL     1      44.218   4.701  11.501  0.00  0.00    +0.000 C 
BRANCH  11  12
ATOM     12  C   UNL     1      42.828   5.262  11.831  0.00  0.00    +0.000 C 
BRANCH  12  13
ATOM     13  N   UNL     1      42.614   5.378  13.280  0.00  0.00    +0.000 NA
ATOM     14  H   UNL     1      42.508   6.366  13.513  0.00  0.00    +0.000 HD
ATOM     15  H   UNL     1      43.454   5.063  13.763  0.00  0.00    +0.000 HD
ENDBRANCH  12  13
ENDBRANCH  11  12
ENDBRANCH   9  11
ENDBRANCH   4   7
BRANCH   1  16
ATOM     16  C   UNL     1      48.693   4.981  17.938  0.00  0.00    +0.000 C 
BRANCH  16  19
ATOM     17  C   UNL     1      52.310   5.262  18.292  0.00  0.00    +0.000 A 
ATOM     18  C   UNL     1      51.039   5.794  18.360  0.00  0.00    +0.000 A 
ATOM     19  N   UNL     1      50.142   4.798  18.034  0.00  0.00    +0.000 N 
ATOM     20  C   UNL     1      50.824   3.604  17.854  0.00  0.00    +0.000 A 
ATOM     21  C   UNL     1      50.358   2.312  17.565  0.00  0.00    +0.000 A 
ATOM     22  C   UNL     1      51.296   1.285  17.421  0.00  0.00    +0.000 A 
ATOM     23  C   UNL     1      52.658   1.534  17.555  0.00  0.00    +0.000 A 
ATOM     24  C   UNL     1      53.117   2.823  17.839  0.00  0.00    +0.000 A 
ATOM     25  C   UNL     1      52.189   3.876  17.998  0.00  0.00    +0.000 A 
BRANCH  17  27
ATOM     26  N   UNL     1      54.503   6.594  18.643  0.00  0.00    +0.000 NA
ATOM     27  C   UNL     1      53.523   5.997  18.491  0.00  0.00    +0.000 C 
ENDBRANCH  17  27
ENDBRANCH  16  19
ENDBRANCH   1  16
TORSDOF 7
ENDMDL
MODEL 7
REMARK VINA RESULT:    -5.651      2.571      4.401
REMARK INTER + INTRA:          -8.576
REMARK INTER:                  -7.971
REMARK INTRA:                  -0.605
REMARK UNBOUND:                -0.777
REMARK  Name = 
REMARK  7 active torsions:
REMARK  status: ('A' for Active; 'I' for Inactive)
REMARK    1  A    between atoms: C_2  and  C_3
REMARK    2  A    between atoms: N_5  and  C_6
REMARK    3  A    between atoms: C_6  and  C_7
REMARK    4  A    between atoms: C_10  and  C_11
REMARK    5  A    between atoms: N_13  and  C_14
REMARK    6  A    between atoms: C_14  and  C_15
REMARK    7  A    between atoms: C_15  and  N_16
REMARK                            x       y       z     vdW  Elec       q    Type
REMARK                         _______ _______ _______ _____ _____    ______ ____
ROOT
ATOM      1  C   UNL     1      44.315   5.431  11.328  0.00  0.00    +0.000 A 
ATOM      2  C   UNL     1      45.240   5.613  10.294  0.00  0.00    +0.000 A 
ATOM      3  C   UNL     1      45.618   4.531   9.498  0.00  0.00    +0.000 A 
ATOM      4  C   UNL     1      45.081   3.277   9.778  0.00  0.00    +0.000 A 
ATOM      5  N   UNL     1      44.263   3.042  10.841  0.00  0.00    +0.000 NA
ATOM      6  C   UNL     1      43.901   4.123  11.577  0.00  0.00    +0.000 A 
ENDROOT
BRANCH   4   7
ATOM      7  C   UNL     1      45.334   2.116   8.851  0.00  0.00    +0.000 C 
ATOM      8  O   UNL     1      44.527   1.195   8.761  0.00  0.00    +0.000 OA
ATOM      9  N   UNL     1      46.517   2.151   8.134  0.00  0.00    +0.000 N 
ATOM     10  H   UNL     1      47.089   2.988   8.190  0.00  0.00    +0.000 HD
BRANCH   9  11
ATOM     11  C   UNL     1      46.886   1.097   7.202  0.00  0.00    +0.000 C 
BRANCH  11  12
ATOM     12  C   UNL     1      47.558   1.653   5.938  0.00  0.00    +0.000 C 
BRANCH  12  13
ATOM     13  N   UNL     1      48.677   2.550   6.260  0.00  0.00    +0.000 NA
ATOM     14  H   UNL     1      49.166   2.779   5.396  0.00  0.00    +0.000 HD
ATOM     15  H   UNL     1      49.347   2.044   6.838  0.00  0.00    +0.000 HD
ENDBRANCH  12  13
ENDBRANCH  11  12
ENDBRANCH   9  11
ENDBRANCH   4   7
BRANCH   1  16
ATOM     16  C   UNL     1      43.725   6.603  12.071  0.00  0.00    +0.000 C 
BRANCH  16  19
ATOM     17  C   UNL     1      46.449   8.908  12.817  0.00  0.00    +0.000 A 
ATOM     18  C   UNL     1      45.846   7.671  12.910  0.00  0.00    +0.000 A 
ATOM     19  N   UNL     1      44.679   7.708  12.175  0.00  0.00    +0.000 N 
ATOM     20  C   UNL     1      44.581   8.931  11.529  0.00  0.00    +0.000 A 
ATOM     21  C   UNL     1      43.617   9.427  10.637  0.00  0.00    +0.000 A 
ATOM     22  C   UNL     1      43.770  10.727  10.149  0.00  0.00    +0.000 A 
ATOM     23  C   UNL     1      44.848  11.516  10.537  0.00  0.00    +0.000 A 
ATOM     24  C   UNL     1      45.804  11.019  11.428  0.00  0.00    +0.000 A 
ATOM     25  C   UNL     1      45.675   9.705  11.929  0.00  0.00    +0.000 A 
BRANCH  17  27
ATOM     26  N   UNL     1      48.610   9.615  14.056  0.00  0.00    +0.000 NA
ATOM     27  C   UNL     1      47.647   9.295  13.499  0.00  0.00    +0.000 C 
ENDBRANCH  17  27
ENDBRANCH  16  19
ENDBRANCH   1  16
TORSDOF 7
ENDMDL
MODEL 8
REMARK VINA RESULT:    -5.427      2.964      8.026
REMARK INTER + INTRA:          -8.266
REMARK INTER:                  -7.765
REMARK INTRA:                  -0.501
REMARK UNBOUND:                -0.777
REMARK  Name = 
REMARK  7 active torsions:
REMARK  status: ('A' for Active; 'I' for Inactive)
REMARK    1  A    between atoms: C_2  and  C_3
REMARK    2  A    between atoms: N_5  and  C_6
REMARK    3  A    between atoms: C_6  and  C_7
REMARK    4  A    between atoms: C_10  and  C_11
REMARK    5  A    between atoms: N_13  and  C_14
REMARK    6  A    between atoms: C_14  and  C_15
REMARK    7  A    between atoms: C_15  and  N_16
REMARK                            x       y       z     vdW  Elec       q    Type
REMARK                         _______ _______ _______ _____ _____    ______ ____
ROOT
ATOM      1  C   UNL     1      46.355   6.892  12.034  0.00  0.00    +0.000 A 
ATOM      2  C   UNL     1      46.828   5.757  12.701  0.00  0.00    +0.000 A 
ATOM      3  C   UNL     1      47.719   5.895  13.767  0.00  0.00    +0.000 A 
ATOM      4  C   UNL     1      48.143   7.174  14.120  0.00  0.00    +0.000 A 
ATOM      5  N   UNL     1      47.788   8.290  13.425  0.00  0.00    +0.000 NA
ATOM      6  C   UNL     1      46.903   8.117  12.411  0.00  0.00    +0.000 A 
ENDROOT
BRANCH   4   7
ATOM      7  C   UNL     1      48.974   7.384  15.359  0.00  0.00    +0.000 C 
ATOM      8  O   UNL     1      50.196   7.478  15.290  0.00  0.00    +0.000 OA
ATOM      9  N   UNL     1      48.283   7.449  16.556  0.00  0.00    +0.000 N 
ATOM     10  H   UNL     1      47.268   7.457  16.527  0.00  0.00    +0.000 HD
BRANCH   9  11
ATOM     11  C   UNL     1      48.959   7.651  17.829  0.00  0.00    +0.000 C 
BRANCH  11  12
ATOM     12  C   UNL     1      48.465   6.676  18.906  0.00  0.00    +0.000 C 
BRANCH  12  13
ATOM     13  N   UNL     1      47.059   6.300  18.703  0.00  0.00    +0.000 NA
ATOM     14  H   UNL     1      46.657   6.054  19.607  0.00  0.00    +0.000 HD
ATOM     15  H   UNL     1      47.025   5.451  18.139  0.00  0.00    +0.000 HD
ENDBRANCH  12  13
ENDBRANCH  11  12
ENDBRANCH   9  11
ENDBRANCH   4   7
BRANCH   1  16
ATOM     16  C   UNL     1      45.239   6.802  11.023  0.00  0.00    +0.000 C 
BRANCH  16  19
ATOM     17  C   UNL     1      44.066   3.354  10.868  0.00  0.00    +0.000 A 
ATOM     18  C   UNL     1      44.076   4.607  11.442  0.00  0.00    +0.000 A 
ATOM     19  N   UNL     1      44.917   5.411  10.701  0.00  0.00    +0.000 N 
ATOM     20  C   UNL     1      45.371   4.706   9.596  0.00  0.00    +0.000 A 
ATOM     21  C   UNL     1      46.196   5.097   8.530  0.00  0.00    +0.000 A 
ATOM     22  C   UNL     1      46.504   4.152   7.548  0.00  0.00    +0.000 A 
ATOM     23  C   UNL     1      46.010   2.854   7.622  0.00  0.00    +0.000 A 
ATOM     24  C   UNL     1      45.192   2.468   8.687  0.00  0.00    +0.000 A 
ATOM     25  C   UNL     1      44.859   3.408   9.689  0.00  0.00    +0.000 A 
BRANCH  17  27
ATOM     26  N   UNL     1      42.803   1.291  11.792  0.00  0.00    +0.000 NA
ATOM     27  C   UNL     1      43.369   2.215  11.385  0.00  0.00    +0.000 C 
ENDBRANCH  17  27
ENDBRANCH  16  19
ENDBRANCH   1  16
TORSDOF 7
ENDMDL
MODEL 9
REMARK VINA RESULT:    -5.409      4.329      5.929
REMARK INTER + INTRA:          -8.241
REMARK INTER:                  -7.308
REMARK INTRA:                  -0.933
REMARK UNBOUND:                -0.777
REMARK  Name = 
REMARK  7 active torsions:
REMARK  status: ('A' for Active; 'I' for Inactive)
REMARK    1  A    between atoms: C_2  and  C_3
REMARK    2  A    between atoms: N_5  and  C_6
REMARK    3  A    between atoms: C_6  and  C_7
REMARK    4  A    between atoms: C_10  and  C_11
REMARK    5  A    between atoms: N_13  and  C_14
REMARK    6  A    between atoms: C_14  and  C_15
REMARK    7  A    between atoms: C_15  and  N_16
REMARK                            x       y       z     vdW  Elec       q    Type
REMARK                         _______ _______ _______ _____ _____    ______ ____
ROOT
ATOM      1  C   UNL     1      48.765   5.644  17.073  0.00  0.00    +0.000 A 
ATOM      2  C   UNL     1      47.903   4.564  17.286  0.00  0.00    +0.000 A 
ATOM      3  C   UNL     1      47.142   4.059  16.229  0.00  0.00    +0.000 A 
ATOM      4  C   UNL     1      47.240   4.675  14.984  0.00  0.00    +0.000 A 
ATOM      5  N   UNL     1      47.985   5.794  14.767  0.00  0.00    +0.000 NA
ATOM      6  C   UNL     1      48.727   6.240  15.812  0.00  0.00    +0.000 A 
ENDROOT
BRANCH   4   7
ATOM      7  C   UNL     1      46.564   4.070  13.780  0.00  0.00    +0.000 C 
ATOM      8  O   UNL     1      46.757   2.897  13.474  0.00  0.00    +0.000 OA
ATOM      9  N   UNL     1      45.741   4.911  13.052  0.00  0.00    +0.000 N 
ATOM     10  H   UNL     1      45.558   5.840  13.418  0.00  0.00    +0.000 HD
BRANCH   9  11
ATOM     11  C   UNL     1      45.026   4.458  11.869  0.00  0.00    +0.000 C 
BRANCH  11  12
ATOM     12  C   UNL     1      43.660   3.851  12.218  0.00  0.00    +0.000 C 
BRANCH  12  13
ATOM     13  N   UNL     1      43.752   2.409  12.484  0.00  0.00    +0.000 NA
ATOM     14  H   UNL     1      44.681   2.089  12.213  0.00  0.00    +0.000 HD
ATOM     15  H   UNL     1      43.096   1.921  11.876  0.00  0.00    +0.000 HD
ENDBRANCH  12  13
ENDBRANCH  11  12
ENDBRANCH   9  11
ENDBRANCH   4   7
BRANCH   1  16
ATOM     16  C   UNL     1      49.753   6.082  18.125  0.00  0.00    +0.000 C 
BRANCH  16  19
ATOM     17  C   UNL     1      52.603   3.817  18.304  0.00  0.00    +0.000 A 
ATOM     18  C   UNL     1      51.296   4.148  18.594  0.00  0.00    +0.000 A 
ATOM     19  N   UNL     1      51.021   5.363  18.002  0.00  0.00    +0.000 N 
ATOM     20  C   UNL     1      52.115   5.767  17.251  0.00  0.00    +0.000 A 
ATOM     21  C   UNL     1      52.306   6.892  16.433  0.00  0.00    +0.000 A 
ATOM     22  C   UNL     1      53.541   7.050  15.799  0.00  0.00    +0.000 A 
ATOM     23  C   UNL     1      54.561   6.120  15.974  0.00  0.00    +0.000 A 
ATOM     24  C   UNL     1      54.367   5.003  16.792  0.00  0.00    +0.000 A 
ATOM     25  C   UNL     1      53.125   4.816  17.437  0.00  0.00    +0.000 A 
BRANCH  17  27
ATOM     26  N   UNL     1      53.853   1.734  19.200  0.00  0.00    +0.000 NA
ATOM     27  C   UNL     1      53.290   2.661  18.797  0.00  0.00    +0.000 C 
ENDBRANCH  17  27
ENDBRANCH  16  19
ENDBRANCH   1  16
TORSDOF 7
ENDMDL
