MODEL 1
REMARK VINA RESULT:    -8.822      0.000      0.000
REMARK INTER + INTRA:         -12.568
REMARK INTER:                 -11.401
REMARK INTRA:                  -1.167
REMARK UNBOUND:                -1.167
REMARK  Name = 
REMARK  7 active torsions:
REMARK  status: ('A' for Active; 'I' for Inactive)
REMARK    1  A    between atoms: C_1  and  C_2
REMARK    2  A    between atoms: C_2  and  C_3
REMARK    3  A    between atoms: C_2  and  C_4
REMARK    4  A    between atoms: C_2  and  C_19
REMARK    5  A    between atoms: C_5  and  C_6
REMARK    6  A    between atoms: C_10  and  C_11
REMARK    7  A    between atoms: C_22  and  C_23
REMARK                            x       y       z     vdW  Elec       q    Type
REMARK                         _______ _______ _______ _____ _____    ______ ____
ROOT
ATOM      1  C   UNL     1      45.279   4.549  11.977  0.00  0.00    +0.000 C 
ATOM      2  C   UNL     1      45.928   5.727  11.974  0.00  0.00    +0.000 C 
ENDROOT
BRANCH   2   3
ATOM      3  C   UNL     1      46.892   6.180  12.986  0.00  0.00    +0.000 A 
ATOM      4  C   UNL     1      47.492   7.441  12.944  0.00  0.00    +0.000 A 
ATOM      5  C   UNL     1      48.364   7.840  13.952  0.00  0.00    +0.000 A 
ATOM      6  C   UNL     1      48.612   6.996  15.035  0.00  0.00    +0.000 A 
ATOM      7  C   UNL     1      47.978   5.746  15.152  0.00  0.00    +0.000 A 
ATOM      8  C   UNL     1      47.141   5.348  14.093  0.00  0.00    +0.000 A 
BRANCH   7   9
ATOM      9  C   UNL     1      48.116   4.929  16.380  0.00  0.00    +0.000 A 
ATOM     10  C   UNL     1      48.784   5.453  17.507  0.00  0.00    +0.000 A 
ATOM     11  C   UNL     1      48.890   4.730  18.697  0.00  0.00    +0.000 A 
ATOM     12  C   UNL     1      48.316   3.473  18.785  0.00  0.00    +0.000 A 
ATOM     13  F   UNL     1      48.402   2.786  19.931  0.00  0.00    +0.000 F 
ATOM     14  C   UNL     1      47.648   2.922  17.700  0.00  0.00    +0.000 A 
ATOM     15  C   UNL     1      47.554   3.643  16.503  0.00  0.00    +0.000 A 
ENDBRANCH   7   9
ENDBRANCH   2   3
BRANCH   1  17
ATOM     16  C   UNL     1      43.466   2.904  11.551  0.00  0.00    +0.000 C 
ATOM     17  C   UNL     1      44.300   4.042  10.912  0.00  0.00    +0.000 C 
ATOM     18  C   UNL     1      43.296   5.187  10.614  0.00  0.00    +0.000 C 
BRANCH  17  19
ATOM     19  C   UNL     1      45.032   3.577   9.634  0.00  0.00    +0.000 A 
ATOM     20  C   UNL     1      45.616   4.497   8.745  0.00  0.00    +0.000 A 
ATOM     21  C   UNL     1      46.351   4.076   7.630  0.00  0.00    +0.000 A 
ATOM     22  C   UNL     1      46.549   2.715   7.393  0.00  0.00    +0.000 A 
ATOM     23  C   UNL     1      45.976   1.779   8.255  0.00  0.00    +0.000 A 
ATOM     24  C   UNL     1      45.226   2.208   9.356  0.00  0.00    +0.000 A 
BRANCH  22  25
ATOM     25  C   UNL     1      47.367   2.313   6.221  0.00  0.00    +0.000 C 
ATOM     26  N   UNL     1      47.143   2.972   5.042  0.00  0.00    +0.000 N 
ATOM     27  O   UNL     1      48.185   1.403   6.284  0.00  0.00    +0.000 OA
ATOM     28  H   UNL     1      46.325   3.540   4.883  0.00  0.00    +0.000 HD
ATOM     29  H   UNL     1      47.629   2.609   4.231  0.00  0.00    +0.000 HD
ENDBRANCH  22  25
ENDBRANCH  17  19
ENDBRANCH   1  17
TORSDOF 5
ENDMDL
MODEL 2
REMARK VINA RESULT:    -8.399      2.563      4.152
REMARK INTER + INTRA:         -12.021
REMARK INTER:                 -10.749
REMARK INTRA:                  -1.272
REMARK UNBOUND:                -1.167
REMARK  Name = 
REMARK  7 active torsions:
REMARK  status: ('A' for Active; 'I' for Inactive)
REMARK    1  A    between atoms: C_1  and  C_2
REMARK    2  A    between atoms: C_2  and  C_3
REMARK    3  A    between atoms: C_2  and  C_4
REMARK    4  A    between atoms: C_2  and  C_19
REMARK    5  A    between atoms: C_5  and  C_6
REMARK    6  A    between atoms: C_10  and  C_11
REMARK    7  A    between atoms: C_22  and  C_23
REMARK                            x       y       z     vdW  Elec       q    Type
REMARK                         _______ _______ _______ _____ _____    ______ ____
ROOT
ATOM      1  C   UNL     1      45.147   4.792  12.084  0.00  0.00    +0.000 C 
ATOM      2  C   UNL     1      45.926   4.177  12.993  0.00  0.00    +0.000 C 
ENDROOT
BRANCH   2   3
ATOM      3  C   UNL     1      46.804   4.845  13.964  0.00  0.00    +0.000 A 
ATOM      4  C   UNL     1      47.013   4.349  15.254  0.00  0.00    +0.000 A 
ATOM      5  C   UNL     1      47.890   4.994  16.121  0.00  0.00    +0.000 A 
ATOM      6  C   UNL     1      48.598   6.117  15.691  0.00  0.00    +0.000 A 
ATOM      7  C   UNL     1      48.469   6.608  14.380  0.00  0.00    +0.000 A 
ATOM      8  C   UNL     1      47.538   5.968  13.542  0.00  0.00    +0.000 A 
BRANCH   7   9
ATOM      9  C   UNL     1      49.344   7.695  13.879  0.00  0.00    +0.000 A 
ATOM     10  C   UNL     1      49.620   7.801  12.500  0.00  0.00    +0.000 A 
ATOM     11  C   UNL     1      50.400   8.840  11.988  0.00  0.00    +0.000 A 
ATOM     12  C   UNL     1      50.906   9.801  12.847  0.00  0.00    +0.000 A 
ATOM     13  F   UNL     1      51.639  10.807  12.355  0.00  0.00    +0.000 F 
ATOM     14  C   UNL     1      50.655   9.733  14.211  0.00  0.00    +0.000 A 
ATOM     15  C   UNL     1      49.885   8.683  14.724  0.00  0.00    +0.000 A 
ENDBRANCH   7   9
ENDBRANCH   2   3
BRANCH   1  17
ATOM     16  C   UNL     1      43.507   2.943  11.829  0.00  0.00    +0.000 C 
ATOM     17  C   UNL     1      44.196   4.117  11.090  0.00  0.00    +0.000 C 
ATOM     18  C   UNL     1      43.067   5.129  10.759  0.00  0.00    +0.000 C 
BRANCH  17  19
ATOM     19  C   UNL     1      44.934   3.648   9.817  0.00  0.00    +0.000 A 
ATOM     20  C   UNL     1      45.542   4.563   8.940  0.00  0.00    +0.000 A 
ATOM     21  C   UNL     1      46.282   4.136   7.830  0.00  0.00    +0.000 A 
ATOM     22  C   UNL     1      46.460   2.773   7.587  0.00  0.00    +0.000 A 
ATOM     23  C   UNL     1      45.863   1.842   8.437  0.00  0.00    +0.000 A 
ATOM     24  C   UNL     1      45.108   2.277   9.533  0.00  0.00    +0.000 A 
BRANCH  22  25
ATOM     25  C   UNL     1      47.284   2.365   6.421  0.00  0.00    +0.000 C 
ATOM     26  N   UNL     1      47.100   3.050   5.250  0.00  0.00    +0.000 N 
ATOM     27  O   UNL     1      48.072   1.429   6.483  0.00  0.00    +0.000 OA
ATOM     28  H   UNL     1      46.303   3.645   5.089  0.00  0.00    +0.000 HD
ATOM     29  H   UNL     1      47.587   2.685   4.441  0.00  0.00    +0.000 HD
ENDBRANCH  22  25
ENDBRANCH  17  19
ENDBRANCH   1  17
TORSDOF 5
ENDMDL
MODEL 3
REMARK VINA RESULT:    -7.770      4.897      9.130
REMARK INTER + INTRA:         -11.208
REMARK INTER:                 -10.019
REMARK INTRA:                  -1.189
REMARK UNBOUND:                -1.167
REMARK  Name = 
REMARK  7 active torsions:
REMARK  status: ('A' for Active; 'I' for Inactive)
REMARK    1  A    between atoms: C_1  and  C_2
REMARK    2  A    between atoms: C_2  and  C_3
REMARK    3  A    between atoms: C_2  and  C_4
REMARK    4  A    between atoms: C_2  and  C_19
REMARK    5  A    between atoms: C_5  and  C_6
REMARK    6  A    between atoms: C_10  and  C_11
REMARK    7  A    between atoms: C_22  and  C_23
REMARK                            x       y       z     vdW  Elec       q    Type
REMARK                         _______ _______ _______ _____ _____    ______ ____
ROOT
ATOM      1  C   UNL     1      47.315   6.383  13.256  0.00  0.00    +0.000 C 
ATOM      2  C   UNL     1      46.070   6.758  12.908  0.00  0.00    +0.000 C 
ENDROOT
BRANCH   2   3
ATOM      3  C   UNL     1      45.140   5.982  12.076  0.00  0.00    +0.000 A 
ATOM      4  C   UNL     1      43.755   6.163  12.128  0.00  0.00    +0.000 A 
ATOM      5  C   UNL     1      42.920   5.434  11.287  0.00  0.00    +0.000 A 
ATOM      6  C   UNL     1      43.465   4.549  10.356  0.00  0.00    +0.000 A 
ATOM      7  C   UNL     1      44.855   4.387  10.224  0.00  0.00    +0.000 A 
ATOM      8  C   UNL     1      45.673   5.097  11.122  0.00  0.00    +0.000 A 
BRANCH   7   9
ATOM      9  C   UNL     1      45.431   3.574   9.127  0.00  0.00    +0.000 A 
ATOM     10  C   UNL     1      46.045   4.207   8.025  0.00  0.00    +0.000 A 
ATOM     11  C   UNL     1      46.640   3.471   6.998  0.00  0.00    +0.000 A 
ATOM     12  C   UNL     1      46.645   2.089   7.063  0.00  0.00    +0.000 A 
ATOM     13  F   UNL     1      47.232   1.383   6.088  0.00  0.00    +0.000 F 
ATOM     14  C   UNL     1      46.054   1.428   8.132  0.00  0.00    +0.000 A 
ATOM     15  C   UNL     1      45.446   2.166   9.154  0.00  0.00    +0.000 A 
ENDBRANCH   7   9
ENDBRANCH   2   3
BRANCH   1  17
ATOM     16  C   UNL     1      49.603   7.343  13.361  0.00  0.00    +0.000 C 
ATOM     17  C   UNL     1      48.286   7.158  14.153  0.00  0.00    +0.000 C 
ATOM     18  C   UNL     1      47.706   8.584  14.350  0.00  0.00    +0.000 C 
BRANCH  17  19
ATOM     19  C   UNL     1      48.515   6.444  15.503  0.00  0.00    +0.000 A 
ATOM     20  C   UNL     1      49.318   7.012  16.509  0.00  0.00    +0.000 A 
ATOM     21  C   UNL     1      49.461   6.406  17.763  0.00  0.00    +0.000 A 
ATOM     22  C   UNL     1      48.775   5.227  18.057  0.00  0.00    +0.000 A 
ATOM     23  C   UNL     1      47.977   4.637  17.076  0.00  0.00    +0.000 A 
ATOM     24  C   UNL     1      47.854   5.238  15.817  0.00  0.00    +0.000 A 
BRANCH  22  25
ATOM     25  C   UNL     1      48.926   4.639  19.412  0.00  0.00    +0.000 C 
ATOM     26  N   UNL     1      48.461   3.365  19.600  0.00  0.00    +0.000 N 
ATOM     27  O   UNL     1      49.409   5.274  20.342  0.00  0.00    +0.000 OA
ATOM     28  H   UNL     1      47.843   2.910  18.946  0.00  0.00    +0.000 HD
ATOM     29  H   UNL     1      48.470   3.026  20.554  0.00  0.00    +0.000 HD
ENDBRANCH  22  25
ENDBRANCH  17  19
ENDBRANCH   1  17
TORSDOF 5
ENDMDL
MODEL 4
REMARK VINA RESULT:    -7.654      4.947      8.252
REMARK INTER + INTRA:         -11.059
REMARK INTER:                  -9.867
REMARK INTRA:                  -1.192
REMARK UNBOUND:                -1.167
REMARK  Name = 
REMARK  7 active torsions:
REMARK  status: ('A' for Active; 'I' for Inactive)
REMARK    1  A    between atoms: C_1  and  C_2
REMARK    2  A    between atoms: C_2  and  C_3
REMARK    3  A    between atoms: C_2  and  C_4
REMARK    4  A    between atoms: C_2  and  C_19
REMARK    5  A    between atoms: C_5  and  C_6
REMARK    6  A    between atoms: C_10  and  C_11
REMARK    7  A    between atoms: C_22  and  C_23
REMARK                            x       y       z     vdW  Elec       q    Type
REMARK                         _______ _______ _______ _____ _____    ______ ____
ROOT
ATOM      1  C   UNL     1      46.877   7.700  12.020  0.00  0.00    +0.000 C 
ATOM      2  C   UNL     1      45.541   7.540  12.020  0.00  0.00    +0.000 C 
ENDROOT
BRANCH   2   3
ATOM      3  C   UNL     1      44.820   6.339  11.576  0.00  0.00    +0.000 A 
ATOM      4  C   UNL     1      43.497   6.078  11.941  0.00  0.00    +0.000 A 
ATOM      5  C   UNL     1      42.844   4.949  11.458  0.00  0.00    +0.000 A 
ATOM      6  C   UNL     1      43.494   4.092  10.570  0.00  0.00    +0.000 A 
ATOM      7  C   UNL     1      44.802   4.353  10.123  0.00  0.00    +0.000 A 
ATOM      8  C   UNL     1      45.456   5.473  10.668  0.00  0.00    +0.000 A 
BRANCH   7   9
ATOM      9  C   UNL     1      45.425   3.534   9.057  0.00  0.00    +0.000 A 
ATOM     10  C   UNL     1      46.069   4.160   7.969  0.00  0.00    +0.000 A 
ATOM     11  C   UNL     1      46.708   3.420   6.973  0.00  0.00    +0.000 A 
ATOM     12  C   UNL     1      46.728   2.038   7.055  0.00  0.00    +0.000 A 
ATOM     13  F   UNL     1      47.356   1.329   6.109  0.00  0.00    +0.000 F 
ATOM     14  C   UNL     1      46.108   1.383   8.111  0.00  0.00    +0.000 A 
ATOM     15  C   UNL     1      45.455   2.126   9.102  0.00  0.00    +0.000 A 
ENDBRANCH   7   9
ENDBRANCH   2   3
BRANCH   1  17
ATOM     16  C   UNL     1      46.830  10.182  12.122  0.00  0.00    +0.000 C 
ATOM     17  C   UNL     1      47.650   8.928  12.514  0.00  0.00    +0.000 C 
ATOM     18  C   UNL     1      47.650   8.890  14.065  0.00  0.00    +0.000 C 
BRANCH  17  19
ATOM     19  C   UNL     1      49.085   8.971  11.943  0.00  0.00    +0.000 A 
ATOM     20  C   UNL     1      49.787   7.794  11.630  0.00  0.00    +0.000 A 
ATOM     21  C   UNL     1      51.055   7.832  11.036  0.00  0.00    +0.000 A 
ATOM     22  C   UNL     1      51.642   9.056  10.709  0.00  0.00    +0.000 A 
ATOM     23  C   UNL     1      50.970  10.240  11.015  0.00  0.00    +0.000 A 
ATOM     24  C   UNL     1      49.712  10.194  11.627  0.00  0.00    +0.000 A 
BRANCH  22  25
ATOM     25  C   UNL     1      52.970   9.048  10.046  0.00  0.00    +0.000 C 
ATOM     26  N   UNL     1      53.316   7.926   9.342  0.00  0.00    +0.000 N 
ATOM     27  O   UNL     1      53.750   9.988  10.150  0.00  0.00    +0.000 OA
ATOM     28  H   UNL     1      52.823   7.052   9.438  0.00  0.00    +0.000 HD
ATOM     29  H   UNL     1      54.266   7.896   8.993  0.00  0.00    +0.000 HD
ENDBRANCH  22  25
ENDBRANCH  17  19
ENDBRANCH   1  17
TORSDOF 5
ENDMDL
MODEL 5
REMARK VINA RESULT:    -7.233      4.709      8.642
REMARK INTER + INTRA:         -10.515
REMARK INTER:                  -9.285
REMARK INTRA:                  -1.230
REMARK UNBOUND:                -1.167
REMARK  Name = 
REMARK  7 active torsions:
REMARK  status: ('A' for Active; 'I' for Inactive)
REMARK    1  A    between atoms: C_1  and  C_2
REMARK    2  A    between atoms: C_2  and  C_3
REMARK    3  A    between atoms: C_2  and  C_4
REMARK    4  A    between atoms: C_2  and  C_19
REMARK    5  A    between atoms: C_5  and  C_6
REMARK    6  A    between atoms: C_10  and  C_11
REMARK    7  A    between atoms: C_22  and  C_23
REMARK                            x       y       z     vdW  Elec       q    Type
REMARK                         _______ _______ _______ _____ _____    ______ ____
ROOT
ATOM      1  C   UNL     1      48.661   5.725  16.484  0.00  0.00    +0.000 C 
ATOM      2  C   UNL     1      49.068   6.719  15.674  0.00  0.00    +0.000 C 
ENDROOT
BRANCH   2   3
ATOM      3  C   UNL     1      48.440   7.103  14.402  0.00  0.00    +0.000 A 
ATOM      4  C   UNL     1      48.798   8.260  13.705  0.00  0.00    +0.000 A 
ATOM      5  C   UNL     1      48.206   8.555  12.482  0.00  0.00    +0.000 A 
ATOM      6  C   UNL     1      47.280   7.674  11.923  0.00  0.00    +0.000 A 
ATOM      7  C   UNL     1      46.940   6.466  12.558  0.00  0.00    +0.000 A 
ATOM      8  C   UNL     1      47.516   6.218  13.817  0.00  0.00    +0.000 A 
BRANCH   7   9
ATOM      9  C   UNL     1      46.086   5.460  11.884  0.00  0.00    +0.000 A 
ATOM     10  C   UNL     1      45.734   5.626  10.528  0.00  0.00    +0.000 A 
ATOM     11  C   UNL     1      44.971   4.674   9.849  0.00  0.00    +0.000 A 
ATOM     12  C   UNL     1      44.558   3.530  10.512  0.00  0.00    +0.000 A 
ATOM     13  F   UNL     1      43.842   2.609   9.857  0.00  0.00    +0.000 F 
ATOM     14  C   UNL     1      44.886   3.328  11.846  0.00  0.00    +0.000 A 
ATOM     15  C   UNL     1      45.639   4.291  12.529  0.00  0.00    +0.000 A 
ENDBRANCH   7   9
ENDBRANCH   2   3
BRANCH   1  17
ATOM     16  C   UNL     1      49.962   6.595  18.413  0.00  0.00    +0.000 C 
ATOM     17  C   UNL     1      49.276   5.333  17.832  0.00  0.00    +0.000 C 
ATOM     18  C   UNL     1      48.112   5.000  18.801  0.00  0.00    +0.000 C 
BRANCH  17  19
ATOM     19  C   UNL     1      50.260   4.151  17.692  0.00  0.00    +0.000 A 
ATOM     20  C   UNL     1      51.618   4.279  18.031  0.00  0.00    +0.000 A 
ATOM     21  C   UNL     1      52.493   3.187  17.983  0.00  0.00    +0.000 A 
ATOM     22  C   UNL     1      52.022   1.924  17.625  0.00  0.00    +0.000 A 
ATOM     23  C   UNL     1      50.679   1.767  17.277  0.00  0.00    +0.000 A 
ATOM     24  C   UNL     1      49.815   2.868  17.308  0.00  0.00    +0.000 A 
BRANCH  22  25
ATOM     25  C   UNL     1      52.976   0.786  17.625  0.00  0.00    +0.000 C 
ATOM     26  N   UNL     1      52.622  -0.332  18.332  0.00  0.00    +0.000 N 
ATOM     27  O   UNL     1      54.057   0.849  17.052  0.00  0.00    +0.000 OA
ATOM     28  H   UNL     1      51.875  -0.332  19.009  0.00  0.00    +0.000 HD
ATOM     29  H   UNL     1      53.331  -1.049  18.412  0.00  0.00    +0.000 HD
ENDBRANCH  22  25
ENDBRANCH  17  19
ENDBRANCH   1  17
TORSDOF 5
ENDMDL
MODEL 6
REMARK VINA RESULT:    -7.229      2.038      2.154
REMARK INTER + INTRA:         -10.509
REMARK INTER:                  -9.411
REMARK INTRA:                  -1.098
REMARK UNBOUND:                -1.167
REMARK  Name = 
REMARK  7 active torsions:
REMARK  status: ('A' for Active; 'I' for Inactive)
REMARK    1  A    between atoms: C_1  and  C_2
REMARK    2  A    between atoms: C_2  and  C_3
REMARK    3  A    between atoms: C_2  and  C_4
REMARK    4  A    between atoms: C_2  and  C_19
REMARK    5  A    between atoms: C_5  and  C_6
REMARK    6  A    between atoms: C_10  and  C_11
REMARK    7  A    between atoms: C_22  and  C_23
REMARK                            x       y       z     vdW  Elec       q    Type
REMARK                         _______ _______ _______ _____ _____    ______ ____
ROOT
ATOM      1  C   UNL     1      45.562   5.558  11.586  0.00  0.00    +0.000 C 
ATOM      2  C   UNL     1      46.187   5.572  12.778  0.00  0.00    +0.000 C 
ENDROOT
BRANCH   2   3
ATOM      3  C   UNL     1      46.967   6.691  13.325  0.00  0.00    +0.000 A 
ATOM      4  C   UNL     1      46.794   8.010  12.895  0.00  0.00    +0.000 A 
ATOM      5  C   UNL     1      47.526   9.040  13.477  0.00  0.00    +0.000 A 
ATOM      6  C   UNL     1      48.406   8.767  14.524  0.00  0.00    +0.000 A 
ATOM      7  C   UNL     1      48.560   7.465  15.033  0.00  0.00    +0.000 A 
ATOM      8  C   UNL     1      47.847   6.436  14.392  0.00  0.00    +0.000 A 
BRANCH   7   9
ATOM      9  C   UNL     1      49.368   7.207  16.248  0.00  0.00    +0.000 A 
ATOM     10  C   UNL     1      48.940   7.699  17.499  0.00  0.00    +0.000 A 
ATOM     11  C   UNL     1      49.650   7.435  18.672  0.00  0.00    +0.000 A 
ATOM     12  C   UNL     1      50.796   6.659  18.615  0.00  0.00    +0.000 A 
ATOM     13  F   UNL     1      51.468   6.390  19.741  0.00  0.00    +0.000 F 
ATOM     14  C   UNL     1      51.250   6.154  17.404  0.00  0.00    +0.000 A 
ATOM     15  C   UNL     1      50.544   6.432  16.228  0.00  0.00    +0.000 A 
ENDBRANCH   7   9
ENDBRANCH   2   3
BRANCH   1  17
ATOM     16  C   UNL     1      44.640   3.307  12.090  0.00  0.00    +0.000 C 
ATOM     17  C   UNL     1      44.713   4.418  11.013  0.00  0.00    +0.000 C 
ATOM     18  C   UNL     1      43.263   4.948  10.854  0.00  0.00    +0.000 C 
BRANCH  17  19
ATOM     19  C   UNL     1      45.280   3.894   9.676  0.00  0.00    +0.000 A 
ATOM     20  C   UNL     1      45.832   4.765   8.719  0.00  0.00    +0.000 A 
ATOM     21  C   UNL     1      46.421   4.286   7.543  0.00  0.00    +0.000 A 
ATOM     22  C   UNL     1      46.503   2.913   7.307  0.00  0.00    +0.000 A 
ATOM     23  C   UNL     1      45.958   2.025   8.236  0.00  0.00    +0.000 A 
ATOM     24  C   UNL     1      45.353   2.513   9.400  0.00  0.00    +0.000 A 
BRANCH  22  25
ATOM     25  C   UNL     1      47.170   2.447   6.065  0.00  0.00    +0.000 C 
ATOM     26  N   UNL     1      48.424   1.911   6.188  0.00  0.00    +0.000 N 
ATOM     27  O   UNL     1      46.646   2.569   4.965  0.00  0.00    +0.000 OA
ATOM     28  H   UNL     1      48.982   2.020   7.021  0.00  0.00    +0.000 HD
ATOM     29  H   UNL     1      48.905   1.703   5.322  0.00  0.00    +0.000 HD
ENDBRANCH  22  25
ENDBRANCH  17  19
ENDBRANCH   1  17
TORSDOF 5
ENDMDL
MODEL 7
REMARK VINA RESULT:    -7.214      3.024      4.870
REMARK INTER + INTRA:         -10.489
REMARK INTER:                  -9.285
REMARK INTRA:                  -1.204
REMARK UNBOUND:                -1.167
REMARK  Name = 
REMARK  7 active torsions:
REMARK  status: ('A' for Active; 'I' for Inactive)
REMARK    1  A    between atoms: C_1  and  C_2
REMARK    2  A    between atoms: C_2  and  C_3
REMARK    3  A    between atoms: C_2  and  C_4
REMARK    4  A    between atoms: C_2  and  C_19
REMARK    5  A    between atoms: C_5  and  C_6
REMARK    6  A    between atoms: C_10  and  C_11
REMARK    7  A    between atoms: C_22  and  C_23
REMARK                            x       y       z     vdW  Elec       q    Type
REMARK                         _______ _______ _______ _____ _____    ______ ____
ROOT
ATOM      1  C   UNL     1      48.299   6.831  14.300  0.00  0.00    +0.000 C 
ATOM      2  C   UNL     1      48.538   7.609  15.372  0.00  0.00    +0.000 C 
ENDROOT
BRANCH   2   3
ATOM      3  C   UNL     1      49.233   7.193  16.597  0.00  0.00    +0.000 A 
ATOM      4  C   UNL     1      49.149   7.914  17.791  0.00  0.00    +0.000 A 
ATOM      5  C   UNL     1      49.790   7.453  18.937  0.00  0.00    +0.000 A 
ATOM      6  C   UNL     1      50.485   6.244  18.911  0.00  0.00    +0.000 A 
ATOM      7  C   UNL     1      50.537   5.453  17.749  0.00  0.00    +0.000 A 
ATOM      8  C   UNL     1      49.924   5.968  16.593  0.00  0.00    +0.000 A 
BRANCH   7   9
ATOM      9  C   UNL     1      51.133   4.096  17.772  0.00  0.00    +0.000 A 
ATOM     10  C   UNL     1      50.375   2.984  17.351  0.00  0.00    +0.000 A 
ATOM     11  C   UNL     1      50.920   1.699  17.314  0.00  0.00    +0.000 A 
ATOM     12  C   UNL     1      52.240   1.506  17.684  0.00  0.00    +0.000 A 
ATOM     13  F   UNL     1      52.769   0.277  17.632  0.00  0.00    +0.000 F 
ATOM     14  C   UNL     1      53.021   2.576  18.103  0.00  0.00    +0.000 A 
ATOM     15  C   UNL     1      52.469   3.861  18.153  0.00  0.00    +0.000 A 
ENDBRANCH   7   9
ENDBRANCH   2   3
BRANCH   1  17
ATOM     16  C   UNL     1      46.900   8.605  13.266  0.00  0.00    +0.000 C 
ATOM     17  C   UNL     1      47.612   7.256  12.997  0.00  0.00    +0.000 C 
ATOM     18  C   UNL     1      48.722   7.562  11.958  0.00  0.00    +0.000 C 
BRANCH  17  19
ATOM     19  C   UNL     1      46.634   6.175  12.486  0.00  0.00    +0.000 A 
ATOM     20  C   UNL     1      46.100   6.222  11.186  0.00  0.00    +0.000 A 
ATOM     21  C   UNL     1      45.278   5.201  10.693  0.00  0.00    +0.000 A 
ATOM     22  C   UNL     1      44.995   4.085  11.480  0.00  0.00    +0.000 A 
ATOM     23  C   UNL     1      45.505   4.014  12.777  0.00  0.00    +0.000 A 
ATOM     24  C   UNL     1      46.310   5.049  13.270  0.00  0.00    +0.000 A 
BRANCH  22  25
ATOM     25  C   UNL     1      44.151   3.007  10.903  0.00  0.00    +0.000 C 
ATOM     26  N   UNL     1      44.681   2.278   9.873  0.00  0.00    +0.000 N 
ATOM     27  O   UNL     1      43.011   2.797  11.299  0.00  0.00    +0.000 OA
ATOM     28  H   UNL     1      45.496   2.575   9.360  0.00  0.00    +0.000 HD
ATOM     29  H   UNL     1      44.051   1.627   9.421  0.00  0.00    +0.000 HD
ENDBRANCH  22  25
ENDBRANCH  17  19
ENDBRANCH   1  17
TORSDOF 5
ENDMDL
MODEL 8
REMARK VINA RESULT:    -7.060      3.892      4.802
REMARK INTER + INTRA:         -10.290
REMARK INTER:                  -9.359
REMARK INTRA:                  -0.931
REMARK UNBOUND:                -1.167
REMARK  Name = 
REMARK  7 active torsions:
REMARK  status: ('A' for Active; 'I' for Inactive)
REMARK    1  A    between atoms: C_1  and  C_2
REMARK    2  A    between atoms: C_2  and  C_3
REMARK    3  A    between atoms: C_2  and  C_4
REMARK    4  A    between atoms: C_2  and  C_19
REMARK    5  A    between atoms: C_5  and  C_6
REMARK    6  A    between atoms: C_10  and  C_11
REMARK    7  A    between atoms: C_22  and  C_23
REMARK                            x       y       z     vdW  Elec       q    Type
REMARK                         _______ _______ _______ _____ _____    ______ ____
ROOT
ATOM      1  C   UNL     1      45.442   5.368  11.842  0.00  0.00    +0.000 C 
ATOM      2  C   UNL     1      45.897   6.559  11.411  0.00  0.00    +0.000 C 
ENDROOT
BRANCH   2   3
ATOM      3  C   UNL     1      46.780   7.463  12.161  0.00  0.00    +0.000 A 
ATOM      4  C   UNL     1      46.342   8.192  13.270  0.00  0.00    +0.000 A 
ATOM      5  C   UNL     1      47.229   9.001  13.973  0.00  0.00    +0.000 A 
ATOM      6  C   UNL     1      48.572   9.055  13.600  0.00  0.00    +0.000 A 
ATOM      7  C   UNL     1      49.069   8.286  12.533  0.00  0.00    +0.000 A 
ATOM      8  C   UNL     1      48.140   7.518  11.808  0.00  0.00    +0.000 A 
BRANCH   7   9
ATOM      9  C   UNL     1      50.521   8.220  12.247  0.00  0.00    +0.000 A 
ATOM     10  C   UNL     1      50.975   7.749  10.996  0.00  0.00    +0.000 A 
ATOM     11  C   UNL     1      52.334   7.720  10.675  0.00  0.00    +0.000 A 
ATOM     12  C   UNL     1      53.263   8.175  11.595  0.00  0.00    +0.000 A 
ATOM     13  F   UNL     1      54.564   8.163  11.281  0.00  0.00    +0.000 F 
ATOM     14  C   UNL     1      52.857   8.649  12.836  0.00  0.00    +0.000 A 
ATOM     15  C   UNL     1      51.496   8.665  13.162  0.00  0.00    +0.000 A 
ENDBRANCH   7   9
ENDBRANCH   2   3
BRANCH   1  17
ATOM     16  C   UNL     1      44.149   3.256  12.031  0.00  0.00    +0.000 C 
ATOM     17  C   UNL     1      44.554   4.393  11.061  0.00  0.00    +0.000 C 
ATOM     18  C   UNL     1      43.238   5.136  10.708  0.00  0.00    +0.000 C 
BRANCH  17  19
ATOM     19  C   UNL     1      45.262   3.855   9.799  0.00  0.00    +0.000 A 
ATOM     20  C   UNL     1      45.329   2.477   9.524  0.00  0.00    +0.000 A 
ATOM     21  C   UNL     1      45.898   1.992   8.340  0.00  0.00    +0.000 A 
ATOM     22  C   UNL     1      46.389   2.879   7.381  0.00  0.00    +0.000 A 
ATOM     23  C   UNL     1      46.342   4.251   7.630  0.00  0.00    +0.000 A 
ATOM     24  C   UNL     1      45.789   4.728   8.825  0.00  0.00    +0.000 A 
BRANCH  22  25
ATOM     25  C   UNL     1      46.949   2.323   6.124  0.00  0.00    +0.000 C 
ATOM     26  N   UNL     1      47.964   1.410   6.236  0.00  0.00    +0.000 N 
ATOM     27  O   UNL     1      46.554   2.688   5.023  0.00  0.00    +0.000 OA
ATOM     28  H   UNL     1      48.479   1.274   7.092  0.00  0.00    +0.000 HD
ATOM     29  H   UNL     1      48.406   1.129   5.370  0.00  0.00    +0.000 HD
ENDBRANCH  22  25
ENDBRANCH  17  19
ENDBRANCH   1  17
TORSDOF 5
ENDMDL
MODEL 9
REMARK VINA RESULT:    -6.778      5.592      7.701
REMARK INTER + INTRA:          -9.926
REMARK INTER:                  -8.830
REMARK INTRA:                  -1.096
REMARK UNBOUND:                -1.167
REMARK  Name = 
REMARK  7 active torsions:
REMARK  status: ('A' for Active; 'I' for Inactive)
REMARK    1  A    between atoms: C_1  and  C_2
REMARK    2  A    between atoms: C_2  and  C_3
REMARK    3  A    between atoms: C_2  and  C_4
REMARK    4  A    between atoms: C_2  and  C_19
REMARK    5  A    between atoms: C_5  and  C_6
REMARK    6  A    between atoms: C_10  and  C_11
REMARK    7  A    between atoms: C_22  and  C_23
REMARK                            x       y       z     vdW  Elec       q    Type
REMARK                         _______ _______ _______ _____ _____    ______ ____
ROOT
ATOM      1  C   UNL     1      48.461   7.803  11.764  0.00  0.00    +0.000 C 
ATOM      2  C   UNL     1      49.758   7.926  12.101  0.00  0.00    +0.000 C 
ENDROOT
BRANCH   2   3
ATOM      3  C   UNL     1      50.846   8.327  11.197  0.00  0.00    +0.000 A 
ATOM      4  C   UNL     1      51.359   9.626  11.167  0.00  0.00    +0.000 A 
ATOM      5  C   UNL     1      52.420   9.943  10.325  0.00  0.00    +0.000 A 
ATOM      6  C   UNL     1      53.007   8.953   9.536  0.00  0.00    +0.000 A 
ATOM      7  C   UNL     1      52.566   7.619   9.586  0.00  0.00    +0.000 A 
ATOM      8  C   UNL     1      51.459   7.337  10.407  0.00  0.00    +0.000 A 
BRANCH   7   9
ATOM      9  C   UNL     1      53.297   6.544   8.875  0.00  0.00    +0.000 A 
ATOM     10  C   UNL     1      52.922   6.183   7.563  0.00  0.00    +0.000 A 
ATOM     11  C   UNL     1      53.619   5.208   6.846  0.00  0.00    +0.000 A 
ATOM     12  C   UNL     1      54.714   4.587   7.423  0.00  0.00    +0.000 A 
ATOM     13  F   UNL     1      55.393   3.666   6.729  0.00  0.00    +0.000 F 
ATOM     14  C   UNL     1      55.116   4.916   8.711  0.00  0.00    +0.000 A 
ATOM     15  C   UNL     1      54.408   5.883   9.434  0.00  0.00    +0.000 A 
ENDBRANCH   7   9
ENDBRANCH   2   3
BRANCH   1  17
ATOM     16  C   UNL     1      47.909   7.173  14.103  0.00  0.00    +0.000 C 
ATOM     17  C   UNL     1      47.307   7.425  12.698  0.00  0.00    +0.000 C 
ATOM     18  C   UNL     1      46.395   8.672  12.845  0.00  0.00    +0.000 C 
BRANCH  17  19
ATOM     19  C   UNL     1      46.522   6.202  12.175  0.00  0.00    +0.000 A 
ATOM     20  C   UNL     1      46.159   5.142  13.026  0.00  0.00    +0.000 A 
ATOM     21  C   UNL     1      45.377   4.073  12.573  0.00  0.00    +0.000 A 
ATOM     22  C   UNL     1      44.908   4.052  11.259  0.00  0.00    +0.000 A 
ATOM     23  C   UNL     1      45.258   5.087  10.390  0.00  0.00    +0.000 A 
ATOM     24  C   UNL     1      46.056   6.143  10.845  0.00  0.00    +0.000 A 
BRANCH  22  25
ATOM     25  C   UNL     1      44.050   2.918  10.832  0.00  0.00    +0.000 C 
ATOM     26  N   UNL     1      43.387   2.227  11.810  0.00  0.00    +0.000 N 
ATOM     27  O   UNL     1      43.962   2.580   9.657  0.00  0.00    +0.000 OA
ATOM     28  H   UNL     1      43.623   2.309  12.787  0.00  0.00    +0.000 HD
ATOM     29  H   UNL     1      42.899   1.392  11.511  0.00  0.00    +0.000 HD
ENDBRANCH  22  25
ENDBRANCH  17  19
ENDBRANCH   1  17
TORSDOF 5
ENDMDL
