MODEL 1
REMARK VINA RESULT:    -8.506      0.000      0.000
REMARK INTER + INTRA:         -11.776
REMARK INTER:                 -10.992
REMARK INTRA:                  -0.784
REMARK UNBOUND:                -0.784
REMARK  Name = 
REMARK  5 active torsions:
REMARK  status: ('A' for Active; 'I' for Inactive)
REMARK    1  A    between atoms: C_2  and  C_4
REMARK    2  A    between atoms: C_7  and  O_8
REMARK    3  A    between atoms: O_8  and  C_9
REMARK    4  A    between atoms: C_9  and  C_10
REMARK    5  A    between atoms: C_14  and  C_15
REMARK                            x       y       z     vdW  Elec       q    Type
REMARK                         _______ _______ _______ _____ _____    ______ ____
ROOT
ATOM      1  C   UNL     1      43.807   5.166  10.676  0.00  0.00    +0.000 C 
ENDROOT
BRANCH   1   2
ATOM      2  C   UNL     1      44.903   5.090  11.706  0.00  0.00    +0.000 A 
ATOM      3  C   UNL     1      44.789   4.209  12.774  0.00  0.00    +0.000 A 
ATOM      4  N   UNL     1      45.680   4.127  13.782  0.00  0.00    +0.000 NA
ATOM      5  C   UNL     1      46.734   4.979  13.732  0.00  0.00    +0.000 A 
ATOM      6  C   UNL     1      46.970   5.914  12.721  0.00  0.00    +0.000 A 
ATOM      7  C   UNL     1      46.011   5.948  11.695  0.00  0.00    +0.000 A 
BRANCH   6   8
ATOM      8  C   UNL     1      48.140   6.814  12.731  0.00  0.00    +0.000 A 
ATOM      9  C   UNL     1      48.561   7.514  11.590  0.00  0.00    +0.000 A 
ATOM     10  C   UNL     1      49.667   8.362  11.641  0.00  0.00    +0.000 A 
ATOM     11  C   UNL     1      50.333   8.503  12.844  0.00  0.00    +0.000 A 
ATOM     12  N   UNL     1      49.976   7.857  13.971  0.00  0.00    +0.000 NA
ATOM     13  C   UNL     1      48.901   7.033  13.883  0.00  0.00    +0.000 A 
ENDBRANCH   6   8
ENDBRANCH   1   2
BRANCH   1  14
ATOM     14  O   UNL     1      43.535   3.871  10.124  0.00  0.00    +0.000 OA
BRANCH  14  18
ATOM     15  C   UNL     1      46.457   2.620   7.506  0.00  0.00    +0.000 A 
ATOM     16  C   UNL     1      45.941   1.725   8.447  0.00  0.00    +0.000 A 
ATOM     17  C   UNL     1      44.955   2.161   9.331  0.00  0.00    +0.000 A 
ATOM     18  C   UNL     1      44.517   3.473   9.239  0.00  0.00    +0.000 A 
ATOM     19  N   UNL     1      45.001   4.361   8.345  0.00  0.00    +0.000 NA
ATOM     20  C   UNL     1      45.968   3.918   7.506  0.00  0.00    +0.000 A 
BRANCH  15  22
ATOM     21  N   UNL     1      47.516   2.946   5.344  0.00  0.00    +0.000 N 
ATOM     22  C   UNL     1      47.507   2.269   6.531  0.00  0.00    +0.000 C 
ATOM     23  O   UNL     1      48.363   1.435   6.790  0.00  0.00    +0.000 OA
ATOM     24  H   UNL     1      48.309   2.770   4.739  0.00  0.00    +0.000 HD
ATOM     25  H   UNL     1      46.999   3.801   5.198  0.00  0.00    +0.000 HD
ENDBRANCH  15  22
ENDBRANCH  14  18
ENDBRANCH   1  14
TORSDOF 5
ENDMDL
MODEL 2
REMARK VINA RESULT:    -8.463      1.243      1.361
REMARK INTER + INTRA:         -11.721
REMARK INTER:                 -11.177
REMARK INTRA:                  -0.544
REMARK UNBOUND:                -0.784
REMARK  Name = 
REMARK  5 active torsions:
REMARK  status: ('A' for Active; 'I' for Inactive)
REMARK    1  A    between atoms: C_2  and  C_4
REMARK    2  A    between atoms: C_7  and  O_8
REMARK    3  A    between atoms: O_8  and  C_9
REMARK    4  A    between atoms: C_9  and  C_10
REMARK    5  A    between atoms: C_14  and  C_15
REMARK                            x       y       z     vdW  Elec       q    Type
REMARK                         _______ _______ _______ _____ _____    ______ ____
ROOT
ATOM      1  C   UNL     1      43.574   4.371  11.138  0.00  0.00    +0.000 C 
ENDROOT
BRANCH   1   2
ATOM      2  C   UNL     1      44.850   4.717  11.858  0.00  0.00    +0.000 A 
ATOM      3  C   UNL     1      45.337   3.874  12.848  0.00  0.00    +0.000 A 
ATOM      4  N   UNL     1      46.426   4.141  13.596  0.00  0.00    +0.000 NA
ATOM      5  C   UNL     1      47.056   5.316  13.354  0.00  0.00    +0.000 A 
ATOM      6  C   UNL     1      46.675   6.255  12.392  0.00  0.00    +0.000 A 
ATOM      7  C   UNL     1      45.537   5.919  11.641  0.00  0.00    +0.000 A 
BRANCH   6   8
ATOM      8  C   UNL     1      47.407   7.520  12.184  0.00  0.00    +0.000 A 
ATOM      9  C   UNL     1      48.766   7.554  11.837  0.00  0.00    +0.000 A 
ATOM     10  C   UNL     1      49.422   8.769  11.641  0.00  0.00    +0.000 A 
ATOM     11  C   UNL     1      48.699   9.938  11.789  0.00  0.00    +0.000 A 
ATOM     12  N   UNL     1      47.395   9.968  12.121  0.00  0.00    +0.000 NA
ATOM     13  C   UNL     1      46.790   8.768  12.313  0.00  0.00    +0.000 A 
ENDBRANCH   6   8
ENDBRANCH   1   2
BRANCH   1  14
ATOM     14  O   UNL     1      43.650   4.742   9.755  0.00  0.00    +0.000 OA
BRANCH  14  18
ATOM     15  C   UNL     1      46.366   2.404   7.729  0.00  0.00    +0.000 A 
ATOM     16  C   UNL     1      45.486   1.812   8.639  0.00  0.00    +0.000 A 
ATOM     17  C   UNL     1      44.574   2.614   9.323  0.00  0.00    +0.000 A 
ATOM     18  C   UNL     1      44.570   3.977   9.068  0.00  0.00    +0.000 A 
ATOM     19  N   UNL     1      45.411   4.577   8.199  0.00  0.00    +0.000 NA
ATOM     20  C   UNL     1      46.298   3.778   7.557  0.00  0.00    +0.000 A 
BRANCH  15  22
ATOM     21  N   UNL     1      48.471   2.342   6.516  0.00  0.00    +0.000 N 
ATOM     22  C   UNL     1      47.377   1.653   6.959  0.00  0.00    +0.000 C 
ATOM     23  O   UNL     1      47.263   0.452   6.762  0.00  0.00    +0.000 OA
ATOM     24  H   UNL     1      49.203   1.786   6.090  0.00  0.00    +0.000 HD
ATOM     25  H   UNL     1      48.724   3.253   6.871  0.00  0.00    +0.000 HD
ENDBRANCH  15  22
ENDBRANCH  14  18
ENDBRANCH   1  14
TORSDOF 5
ENDMDL
MODEL 3
REMARK VINA RESULT:    -8.193      1.872      2.875
REMARK INTER + INTRA:         -11.372
REMARK INTER:                 -10.676
REMARK INTRA:                  -0.696
REMARK UNBOUND:                -0.784
REMARK  Name = 
REMARK  5 active torsions:
REMARK  status: ('A' for Active; 'I' for Inactive)
REMARK    1  A    between atoms: C_2  and  C_4
REMARK    2  A    between atoms: C_7  and  O_8
REMARK    3  A    between atoms: O_8  and  C_9
REMARK    4  A    between atoms: C_9  and  C_10
REMARK    5  A    between atoms: C_14  and  C_15
REMARK                            x       y       z     vdW  Elec       q    Type
REMARK                         _______ _______ _______ _____ _____    ______ ____
ROOT
ATOM      1  C   UNL     1      43.847   4.280  11.380  0.00  0.00    +0.000 C 
ENDROOT
BRANCH   1   2
ATOM      2  C   UNL     1      44.856   5.114  12.124  0.00  0.00    +0.000 A 
ATOM      3  C   UNL     1      45.163   6.392  11.675  0.00  0.00    +0.000 A 
ATOM      4  N   UNL     1      46.106   7.180  12.230  0.00  0.00    +0.000 NA
ATOM      5  C   UNL     1      46.789   6.661  13.280  0.00  0.00    +0.000 A 
ATOM      6  C   UNL     1      46.585   5.394  13.832  0.00  0.00    +0.000 A 
ATOM      7  C   UNL     1      45.585   4.623  13.215  0.00  0.00    +0.000 A 
BRANCH   6   8
ATOM      8  C   UNL     1      47.369   4.891  14.976  0.00  0.00    +0.000 A 
ATOM      9  C   UNL     1      47.228   3.586  15.470  0.00  0.00    +0.000 A 
ATOM     10  C   UNL     1      47.993   3.145  16.549  0.00  0.00    +0.000 A 
ATOM     11  C   UNL     1      48.900   4.022  17.115  0.00  0.00    +0.000 A 
ATOM     12  N   UNL     1      49.078   5.285  16.685  0.00  0.00    +0.000 NA
ATOM     13  C   UNL     1      48.311   5.684  15.639  0.00  0.00    +0.000 A 
ENDBRANCH   6   8
ENDBRANCH   1   2
BRANCH   1  14
ATOM     14  O   UNL     1      43.777   4.671  10.003  0.00  0.00    +0.000 OA
BRANCH  14  18
ATOM     15  C   UNL     1      46.443   2.538   7.702  0.00  0.00    +0.000 A 
ATOM     16  C   UNL     1      45.620   1.867   8.609  0.00  0.00    +0.000 A 
ATOM     17  C   UNL     1      44.724   2.599   9.386  0.00  0.00    +0.000 A 
ATOM     18  C   UNL     1      44.679   3.976   9.224  0.00  0.00    +0.000 A 
ATOM     19  N   UNL     1      45.467   4.652   8.360  0.00  0.00    +0.000 NA
ATOM     20  C   UNL     1      46.339   3.919   7.626  0.00  0.00    +0.000 A 
BRANCH  15  22
ATOM     21  N   UNL     1      48.428   2.633   6.303  0.00  0.00    +0.000 N 
ATOM     22  C   UNL     1      47.433   1.865   6.839  0.00  0.00    +0.000 C 
ATOM     23  O   UNL     1      47.390   0.658   6.644  0.00  0.00    +0.000 OA
ATOM     24  H   UNL     1      49.157   2.133   5.809  0.00  0.00    +0.000 HD
ATOM     25  H   UNL     1      48.645   3.560   6.640  0.00  0.00    +0.000 HD
ENDBRANCH  15  22
ENDBRANCH  14  18
ENDBRANCH   1  14
TORSDOF 5
ENDMDL
MODEL 4
REMARK VINA RESULT:    -7.910      2.577      6.461
REMARK INTER + INTRA:         -11.006
REMARK INTER:                 -10.214
REMARK INTRA:                  -0.792
REMARK UNBOUND:                -0.784
REMARK  Name = 
REMARK  5 active torsions:
REMARK  status: ('A' for Active; 'I' for Inactive)
REMARK    1  A    between atoms: C_2  and  C_4
REMARK    2  A    between atoms: C_7  and  O_8
REMARK    3  A    between atoms: O_8  and  C_9
REMARK    4  A    between atoms: C_9  and  C_10
REMARK    5  A    between atoms: C_14  and  C_15
REMARK                            x       y       z     vdW  Elec       q    Type
REMARK                         _______ _______ _______ _____ _____    ______ ____
ROOT
ATOM      1  C   UNL     1      43.439   6.071  11.184  0.00  0.00    +0.000 C 
ENDROOT
BRANCH   1   2
ATOM      2  C   UNL     1      43.686   4.661  10.717  0.00  0.00    +0.000 A 
ATOM      3  C   UNL     1      43.123   3.594  11.406  0.00  0.00    +0.000 A 
ATOM      4  N   UNL     1      43.350   2.300  11.108  0.00  0.00    +0.000 NA
ATOM      5  C   UNL     1      44.195   2.054  10.077  0.00  0.00    +0.000 A 
ATOM      6  C   UNL     1      44.830   3.027   9.301  0.00  0.00    +0.000 A 
ATOM      7  C   UNL     1      44.548   4.357   9.656  0.00  0.00    +0.000 A 
BRANCH   6   8
ATOM      8  C   UNL     1      45.742   2.687   8.192  0.00  0.00    +0.000 A 
ATOM      9  C   UNL     1      46.063   3.599   7.175  0.00  0.00    +0.000 A 
ATOM     10  C   UNL     1      46.936   3.243   6.147  0.00  0.00    +0.000 A 
ATOM     11  C   UNL     1      47.483   1.973   6.159  0.00  0.00    +0.000 A 
ATOM     12  N   UNL     1      47.211   1.056   7.106  0.00  0.00    +0.000 NA
ATOM     13  C   UNL     1      46.351   1.432   8.086  0.00  0.00    +0.000 A 
ENDBRANCH   6   8
ENDBRANCH   1   2
BRANCH   1  14
ATOM     14  O   UNL     1      43.759   6.211  12.575  0.00  0.00    +0.000 OA
BRANCH  14  18
ATOM     15  C   UNL     1      47.803   6.688  13.187  0.00  0.00    +0.000 A 
ATOM     16  C   UNL     1      47.189   5.480  13.527  0.00  0.00    +0.000 A 
ATOM     17  C   UNL     1      45.818   5.331  13.320  0.00  0.00    +0.000 A 
ATOM     18  C   UNL     1      45.112   6.393  12.775  0.00  0.00    +0.000 A 
ATOM     19  N   UNL     1      45.678   7.573  12.442  0.00  0.00    +0.000 NA
ATOM     20  C   UNL     1      47.008   7.698  12.666  0.00  0.00    +0.000 A 
BRANCH  15  22
ATOM     21  N   UNL     1      49.986   7.208  12.254  0.00  0.00    +0.000 N 
ATOM     22  C   UNL     1      49.242   6.957  13.373  0.00  0.00    +0.000 C 
ATOM     23  O   UNL     1      49.743   6.997  14.487  0.00  0.00    +0.000 OA
ATOM     24  H   UNL     1      50.942   7.500  12.413  0.00  0.00    +0.000 HD
ATOM     25  H   UNL     1      49.571   7.436  11.362  0.00  0.00    +0.000 HD
ENDBRANCH  15  22
ENDBRANCH  14  18
ENDBRANCH   1  14
TORSDOF 5
ENDMDL
MODEL 5
REMARK VINA RESULT:    -7.661      2.683      3.399
REMARK INTER + INTRA:         -10.684
REMARK INTER:                 -10.014
REMARK INTRA:                  -0.670
REMARK UNBOUND:                -0.784
REMARK  Name = 
REMARK  5 active torsions:
REMARK  status: ('A' for Active; 'I' for Inactive)
REMARK    1  A    between atoms: C_2  and  C_4
REMARK    2  A    between atoms: C_7  and  O_8
REMARK    3  A    between atoms: O_8  and  C_9
REMARK    4  A    between atoms: C_9  and  C_10
REMARK    5  A    between atoms: C_14  and  C_15
REMARK                            x       y       z     vdW  Elec       q    Type
REMARK                         _______ _______ _______ _____ _____    ______ ____
ROOT
ATOM      1  C   UNL     1      44.587   3.807  11.773  0.00  0.00    +0.000 C 
ENDROOT
BRANCH   1   2
ATOM      2  C   UNL     1      45.265   5.101  12.138  0.00  0.00    +0.000 A 
ATOM      3  C   UNL     1      46.336   5.095  13.022  0.00  0.00    +0.000 A 
ATOM      4  N   UNL     1      46.954   6.208  13.465  0.00  0.00    +0.000 NA
ATOM      5  C   UNL     1      46.470   7.391  13.014  0.00  0.00    +0.000 A 
ATOM      6  C   UNL     1      45.401   7.543  12.127  0.00  0.00    +0.000 A 
ATOM      7  C   UNL     1      44.803   6.347  11.696  0.00  0.00    +0.000 A 
BRANCH   6   8
ATOM      8  C   UNL     1      44.923   8.865  11.679  0.00  0.00    +0.000 A 
ATOM      9  C   UNL     1      45.591  10.056  12.002  0.00  0.00    +0.000 A 
ATOM     10  C   UNL     1      45.113  11.286  11.553  0.00  0.00    +0.000 A 
ATOM     11  C   UNL     1      43.970  11.304  10.775  0.00  0.00    +0.000 A 
ATOM     12  N   UNL     1      43.287  10.195  10.434  0.00  0.00    +0.000 NA
ATOM     13  C   UNL     1      43.775   9.016  10.895  0.00  0.00    +0.000 A 
ENDBRANCH   6   8
ENDBRANCH   1   2
BRANCH   1  14
ATOM     14  O   UNL     1      43.991   3.892  10.471  0.00  0.00    +0.000 OA
BRANCH  14  18
ATOM     15  C   UNL     1      46.583   2.686   7.508  0.00  0.00    +0.000 A 
ATOM     16  C   UNL     1      46.292   4.044   7.663  0.00  0.00    +0.000 A 
ATOM     17  C   UNL     1      45.410   4.440   8.666  0.00  0.00    +0.000 A 
ATOM     18  C   UNL     1      44.855   3.466   9.482  0.00  0.00    +0.000 A 
ATOM     19  N   UNL     1      45.113   2.147   9.352  0.00  0.00    +0.000 NA
ATOM     20  C   UNL     1      45.963   1.785   8.361  0.00  0.00    +0.000 A 
BRANCH  15  22
ATOM     21  N   UNL     1      47.763   2.956   5.400  0.00  0.00    +0.000 N 
ATOM     22  C   UNL     1      47.493   2.155   6.474  0.00  0.00    +0.000 C 
ATOM     23  O   UNL     1      48.020   1.058   6.594  0.00  0.00    +0.000 OA
ATOM     24  H   UNL     1      48.474   2.619   4.764  0.00  0.00    +0.000 HD
ATOM     25  H   UNL     1      47.560   3.945   5.391  0.00  0.00    +0.000 HD
ENDBRANCH  15  22
ENDBRANCH  14  18
ENDBRANCH   1  14
TORSDOF 5
ENDMDL
MODEL 6
REMARK VINA RESULT:    -7.370      2.767      7.257
REMARK INTER + INTRA:         -10.309
REMARK INTER:                  -9.821
REMARK INTRA:                  -0.487
REMARK UNBOUND:                -0.784
REMARK  Name = 
REMARK  5 active torsions:
REMARK  status: ('A' for Active; 'I' for Inactive)
REMARK    1  A    between atoms: C_2  and  C_4
REMARK    2  A    between atoms: C_7  and  O_8
REMARK    3  A    between atoms: O_8  and  C_9
REMARK    4  A    between atoms: C_9  and  C_10
REMARK    5  A    between atoms: C_14  and  C_15
REMARK                            x       y       z     vdW  Elec       q    Type
REMARK                         _______ _______ _______ _____ _____    ______ ____
ROOT
ATOM      1  C   UNL     1      44.935   6.162  11.718  0.00  0.00    +0.000 C 
ENDROOT
BRANCH   1   2
ATOM      2  C   UNL     1      44.646   4.867  11.005  0.00  0.00    +0.000 A 
ATOM      3  C   UNL     1      43.687   3.999  11.511  0.00  0.00    +0.000 A 
ATOM      4  N   UNL     1      43.416   2.787  10.985  0.00  0.00    +0.000 NA
ATOM      5  C   UNL     1      44.149   2.415   9.908  0.00  0.00    +0.000 A 
ATOM      6  C   UNL     1      45.143   3.186   9.300  0.00  0.00    +0.000 A 
ATOM      7  C   UNL     1      45.375   4.441   9.888  0.00  0.00    +0.000 A 
BRANCH   6   8
ATOM      8  C   UNL     1      45.906   2.716   8.127  0.00  0.00    +0.000 A 
ATOM      9  C   UNL     1      46.168   3.538   7.021  0.00  0.00    +0.000 A 
ATOM     10  C   UNL     1      46.900   3.059   5.934  0.00  0.00    +0.000 A 
ATOM     11  C   UNL     1      47.368   1.759   5.978  0.00  0.00    +0.000 A 
ATOM     12  N   UNL     1      47.147   0.924   7.011  0.00  0.00    +0.000 NA
ATOM     13  C   UNL     1      46.424   1.419   8.047  0.00  0.00    +0.000 A 
ENDBRANCH   6   8
ENDBRANCH   1   2
BRANCH   1  14
ATOM     14  O   UNL     1      46.339   6.456  11.694  0.00  0.00    +0.000 OA
BRANCH  14  18
ATOM     15  C   UNL     1      48.069   5.772  15.367  0.00  0.00    +0.000 A 
ATOM     16  C   UNL     1      47.165   4.843  14.844  0.00  0.00    +0.000 A 
ATOM     17  C   UNL     1      46.582   5.088  13.602  0.00  0.00    +0.000 A 
ATOM     18  C   UNL     1      46.928   6.247  12.924  0.00  0.00    +0.000 A 
ATOM     19  N   UNL     1      47.793   7.164  13.408  0.00  0.00    +0.000 NA
ATOM     20  C   UNL     1      48.336   6.911  14.623  0.00  0.00    +0.000 A 
BRANCH  15  22
ATOM     21  N   UNL     1      48.061   6.052  17.781  0.00  0.00    +0.000 N 
ATOM     22  C   UNL     1      48.736   5.619  16.674  0.00  0.00    +0.000 C 
ATOM     23  O   UNL     1      49.834   5.088  16.770  0.00  0.00    +0.000 OA
ATOM     24  H   UNL     1      48.487   5.835  18.674  0.00  0.00    +0.000 HD
ATOM     25  H   UNL     1      47.071   6.252  17.773  0.00  0.00    +0.000 HD
ENDBRANCH  15  22
ENDBRANCH  14  18
ENDBRANCH   1  14
TORSDOF 5
ENDMDL
MODEL 7
REMARK VINA RESULT:    -7.269      2.894      6.731
REMARK INTER + INTRA:         -10.178
REMARK INTER:                  -9.426
REMARK INTRA:                  -0.752
REMARK UNBOUND:                -0.784
REMARK  Name = 
REMARK  5 active torsions:
REMARK  status: ('A' for Active; 'I' for Inactive)
REMARK    1  A    between atoms: C_2  and  C_4
REMARK    2  A    between atoms: C_7  and  O_8
REMARK    3  A    between atoms: O_8  and  C_9
REMARK    4  A    between atoms: C_9  and  C_10
REMARK    5  A    between atoms: C_14  and  C_15
REMARK                            x       y       z     vdW  Elec       q    Type
REMARK                         _______ _______ _______ _____ _____    ______ ____
ROOT
ATOM      1  C   UNL     1      44.230   6.187  12.100  0.00  0.00    +0.000 C 
ENDROOT
BRANCH   1   2
ATOM      2  C   UNL     1      44.119   4.856  11.405  0.00  0.00    +0.000 A 
ATOM      3  C   UNL     1      43.296   3.868  11.930  0.00  0.00    +0.000 A 
ATOM      4  N   UNL     1      43.192   2.624  11.422  0.00  0.00    +0.000 NA
ATOM      5  C   UNL     1      43.961   2.345  10.340  0.00  0.00    +0.000 A 
ATOM      6  C   UNL     1      44.831   3.240   9.713  0.00  0.00    +0.000 A 
ATOM      7  C   UNL     1      44.890   4.522  10.284  0.00  0.00    +0.000 A 
BRANCH   6   8
ATOM      8  C   UNL     1      45.642   2.867   8.537  0.00  0.00    +0.000 A 
ATOM      9  C   UNL     1      45.999   3.792   7.545  0.00  0.00    +0.000 A 
ATOM     10  C   UNL     1      46.773   3.402   6.453  0.00  0.00    +0.000 A 
ATOM     11  C   UNL     1      47.187   2.086   6.375  0.00  0.00    +0.000 A 
ATOM     12  N   UNL     1      46.875   1.154   7.296  0.00  0.00    +0.000 NA
ATOM     13  C   UNL     1      46.113   1.565   8.341  0.00  0.00    +0.000 A 
ENDBRANCH   6   8
ENDBRANCH   1   2
BRANCH   1  14
ATOM     14  O   UNL     1      45.345   6.202  13.000  0.00  0.00    +0.000 OA
BRANCH  14  18
ATOM     15  C   UNL     1      48.197   8.952  11.880  0.00  0.00    +0.000 A 
ATOM     16  C   UNL     1      48.454   7.588  11.727  0.00  0.00    +0.000 A 
ATOM     17  C   UNL     1      47.483   6.665  12.113  0.00  0.00    +0.000 A 
ATOM     18  C   UNL     1      46.289   7.140  12.634  0.00  0.00    +0.000 A 
ATOM     19  N   UNL     1      46.016   8.452  12.800  0.00  0.00    +0.000 NA
ATOM     20  C   UNL     1      46.981   9.329  12.429  0.00  0.00    +0.000 A 
BRANCH  15  22
ATOM     21  N   UNL     1      48.697  11.035  10.731  0.00  0.00    +0.000 N 
ATOM     22  C   UNL     1      49.156  10.013  11.514  0.00  0.00    +0.000 C 
ATOM     23  O   UNL     1      50.306  10.002  11.930  0.00  0.00    +0.000 OA
ATOM     24  H   UNL     1      49.337  11.805  10.587  0.00  0.00    +0.000 HD
ATOM     25  H   UNL     1      47.713  11.212  10.586  0.00  0.00    +0.000 HD
ENDBRANCH  15  22
ENDBRANCH  14  18
ENDBRANCH   1  14
TORSDOF 5
ENDMDL
MODEL 8
REMARK VINA RESULT:    -6.879      3.778      8.189
REMARK INTER + INTRA:          -9.674
REMARK INTER:                  -9.198
REMARK INTRA:                  -0.477
REMARK UNBOUND:                -0.784
REMARK  Name = 
REMARK  5 active torsions:
REMARK  status: ('A' for Active; 'I' for Inactive)
REMARK    1  A    between atoms: C_2  and  C_4
REMARK    2  A    between atoms: C_7  and  O_8
REMARK    3  A    between atoms: O_8  and  C_9
REMARK    4  A    between atoms: C_9  and  C_10
REMARK    5  A    between atoms: C_14  and  C_15
REMARK                            x       y       z     vdW  Elec       q    Type
REMARK                         _______ _______ _______ _____ _____    ______ ____
ROOT
ATOM      1  C   UNL     1      45.712   4.613  13.695  0.00  0.00    +0.000 C 
ENDROOT
BRANCH   1   2
ATOM      2  C   UNL     1      45.024   4.000  12.504  0.00  0.00    +0.000 A 
ATOM      3  C   UNL     1      43.748   3.467  12.641  0.00  0.00    +0.000 A 
ATOM      4  N   UNL     1      43.087   2.832  11.653  0.00  0.00    +0.000 NA
ATOM      5  C   UNL     1      43.736   2.708  10.469  0.00  0.00    +0.000 A 
ATOM      6  C   UNL     1      45.017   3.194  10.195  0.00  0.00    +0.000 A 
ATOM      7  C   UNL     1      45.652   3.852  11.261  0.00  0.00    +0.000 A 
BRANCH   6   8
ATOM      8  C   UNL     1      45.666   3.021   8.881  0.00  0.00    +0.000 A 
ATOM      9  C   UNL     1      46.093   1.770   8.412  0.00  0.00    +0.000 A 
ATOM     10  C   UNL     1      46.696   1.645   7.160  0.00  0.00    +0.000 A 
ATOM     11  C   UNL     1      46.854   2.782   6.390  0.00  0.00    +0.000 A 
ATOM     12  N   UNL     1      46.465   4.008   6.788  0.00  0.00    +0.000 NA
ATOM     13  C   UNL     1      45.891   4.095   8.014  0.00  0.00    +0.000 A 
ENDBRANCH   6   8
ENDBRANCH   1   2
BRANCH   1  14
ATOM     14  O   UNL     1      46.857   3.838  14.078  0.00  0.00    +0.000 OA
BRANCH  14  18
ATOM     15  C   UNL     1      48.110   4.786  17.883  0.00  0.00    +0.000 A 
ATOM     16  C   UNL     1      48.311   5.695  16.841  0.00  0.00    +0.000 A 
ATOM     17  C   UNL     1      47.887   5.361  15.557  0.00  0.00    +0.000 A 
ATOM     18  C   UNL     1      47.272   4.134  15.360  0.00  0.00    +0.000 A 
ATOM     19  N   UNL     1      47.069   3.235  16.346  0.00  0.00    +0.000 NA
ATOM     20  C   UNL     1      47.503   3.576  17.584  0.00  0.00    +0.000 A 
BRANCH  15  22
ATOM     21  N   UNL     1      48.476   3.977  20.145  0.00  0.00    +0.000 N 
ATOM     22  C   UNL     1      48.528   5.031  19.277  0.00  0.00    +0.000 C 
ATOM     23  O   UNL     1      48.945   6.124  19.634  0.00  0.00    +0.000 OA
ATOM     24  H   UNL     1      48.873   4.138  21.063  0.00  0.00    +0.000 HD
ATOM     25  H   UNL     1      48.388   3.019  19.837  0.00  0.00    +0.000 HD
ENDBRANCH  15  22
ENDBRANCH  14  18
ENDBRANCH   1  14
TORSDOF 5
ENDMDL
MODEL 9
REMARK VINA RESULT:    -6.692      1.735      2.293
REMARK INTER + INTRA:          -9.433
REMARK INTER:                  -9.152
REMARK INTRA:                  -0.281
REMARK UNBOUND:                -0.784
REMARK  Name = 
REMARK  5 active torsions:
REMARK  status: ('A' for Active; 'I' for Inactive)
REMARK    1  A    between atoms: C_2  and  C_4
REMARK    2  A    between atoms: C_7  and  O_8
REMARK    3  A    between atoms: O_8  and  C_9
REMARK    4  A    between atoms: C_9  and  C_10
REMARK    5  A    between atoms: C_14  and  C_15
REMARK                            x       y       z     vdW  Elec       q    Type
REMARK                         _______ _______ _______ _____ _____    ______ ____
ROOT
ATOM      1  C   UNL     1      43.442   4.800  10.697  0.00  0.00    +0.000 C 
ENDROOT
BRANCH   1   2
ATOM      2  C   UNL     1      44.066   6.045  11.271  0.00  0.00    +0.000 A 
ATOM      3  C   UNL     1      43.550   7.292  10.943  0.00  0.00    +0.000 A 
ATOM      4  N   UNL     1      44.088   8.460  11.346  0.00  0.00    +0.000 NA
ATOM      5  C   UNL     1      45.209   8.382  12.105  0.00  0.00    +0.000 A 
ATOM      6  C   UNL     1      45.833   7.199  12.507  0.00  0.00    +0.000 A 
ATOM      7  C   UNL     1      45.222   6.015  12.061  0.00  0.00    +0.000 A 
BRANCH   6   8
ATOM      8  C   UNL     1      47.056   7.188  13.333  0.00  0.00    +0.000 A 
ATOM      9  C   UNL     1      47.825   8.340  13.553  0.00  0.00    +0.000 A 
ATOM     10  C   UNL     1      48.971   8.291  14.347  0.00  0.00    +0.000 A 
ATOM     11  C   UNL     1      49.325   7.083  14.918  0.00  0.00    +0.000 A 
ATOM     12  N   UNL     1      48.628   5.945  14.741  0.00  0.00    +0.000 NA
ATOM     13  C   UNL     1      47.524   6.026  13.956  0.00  0.00    +0.000 A 
ENDBRANCH   6   8
ENDBRANCH   1   2
BRANCH   1  14
ATOM     14  O   UNL     1      44.289   3.662  10.904  0.00  0.00    +0.000 OA
BRANCH  14  18
ATOM     15  C   UNL     1      46.451   2.782   7.512  0.00  0.00    +0.000 A 
ATOM     16  C   UNL     1      46.168   4.113   7.827  0.00  0.00    +0.000 A 
ATOM     17  C   UNL     1      45.431   4.399   8.975  0.00  0.00    +0.000 A 
ATOM     18  C   UNL     1      45.009   3.345   9.771  0.00  0.00    +0.000 A 
ATOM     19  N   UNL     1      45.263   2.049   9.489  0.00  0.00    +0.000 NA
ATOM     20  C   UNL     1      45.969   1.796   8.360  0.00  0.00    +0.000 A 
BRANCH  15  22
ATOM     21  N   UNL     1      47.094   3.134   5.195  0.00  0.00    +0.000 N 
ATOM     22  C   UNL     1      47.212   2.365   6.319  0.00  0.00    +0.000 C 
ATOM     23  O   UNL     1      47.954   1.393   6.345  0.00  0.00    +0.000 OA
ATOM     24  H   UNL     1      47.710   2.896   4.428  0.00  0.00    +0.000 HD
ATOM     25  H   UNL     1      46.707   4.067   5.210  0.00  0.00    +0.000 HD
ENDBRANCH  15  22
ENDBRANCH  14  18
ENDBRANCH   1  14
TORSDOF 5
ENDMDL
