MODEL 1
REMARK VINA RESULT:    -8.005      0.000      0.000
REMARK INTER + INTRA:         -11.354
REMARK INTER:                 -10.579
REMARK INTRA:                  -0.776
REMARK UNBOUND:                -0.776
REMARK  Name = 
REMARK  6 active torsions:
REMARK  status: ('A' for Active; 'I' for Inactive)
REMARK    1  A    between atoms: N_1  and  C_2
REMARK    2  A    between atoms: C_2  and  C_3
REMARK    3  A    between atoms: C_3  and  C_4
REMARK    4  A    between atoms: C_7  and  C_8
REMARK    5  A    between atoms: C_8  and  N_9
REMARK    6  A    between atoms: C_14  and  C_15
REMARK                            x       y       z     vdW  Elec       q    Type
REMARK                         _______ _______ _______ _____ _____    ______ ____
ROOT
ATOM      1  N   UNL     1      43.680   4.229  10.458  0.00  0.00    +0.000 N 
ATOM      2  N   UNL     1      43.157   3.139  11.061  0.00  0.00    +0.000 NA
ATOM      3  N   UNL     1      43.777   2.079  10.568  0.00  0.00    +0.000 NA
ATOM      4  C   UNL     1      44.625   2.509   9.578  0.00  0.00    +0.000 A 
ATOM      5  C   UNL     1      45.584   1.816   8.831  0.00  0.00    +0.000 A 
ATOM      6  C   UNL     1      46.328   2.517   7.866  0.00  0.00    +0.000 A 
ATOM      7  C   UNL     1      46.056   3.873   7.614  0.00  0.00    +0.000 A 
ATOM      8  C   UNL     1      45.120   4.587   8.377  0.00  0.00    +0.000 A 
ATOM      9  C   UNL     1      44.460   3.874   9.380  0.00  0.00    +0.000 A 
ENDROOT
BRANCH   6  10
ATOM     10  C   UNL     1      47.430   1.770   7.194  0.00  0.00    +0.000 C 
ATOM     11  N   UNL     1      48.390   2.470   6.520  0.00  0.00    +0.000 N 
ATOM     12  O   UNL     1      47.501   0.547   7.253  0.00  0.00    +0.000 OA
ATOM     13  H   UNL     1      48.401   3.465   6.377  0.00  0.00    +0.000 HD
ATOM     14  H   UNL     1      49.127   1.921   6.096  0.00  0.00    +0.000 HD
ENDBRANCH   6  10
BRANCH   1  15
ATOM     15  C   UNL     1      43.752   5.483  11.192  0.00  0.00    +0.000 C 
BRANCH  15  19
ATOM     16  C   UNL     1      47.695   6.299  12.805  0.00  0.00    +0.000 A 
ATOM     17  C   UNL     1      46.937   5.227  13.292  0.00  0.00    +0.000 A 
ATOM     18  C   UNL     1      45.686   4.930  12.743  0.00  0.00    +0.000 A 
ATOM     19  C   UNL     1      45.167   5.699  11.693  0.00  0.00    +0.000 A 
ATOM     20  C   UNL     1      45.939   6.760  11.194  0.00  0.00    +0.000 A 
ATOM     21  C   UNL     1      47.190   7.053  11.741  0.00  0.00    +0.000 A 
BRANCH  16  22
ATOM     22  C   UNL     1      49.028   6.645  13.423  0.00  0.00    +0.000 C 
BRANCH  22  23
ATOM     23  C   UNL     1      48.893   7.097  14.881  0.00  0.00    +0.000 C 
BRANCH  23  24
ATOM     24  N   UNL     1      49.461   6.104  15.793  0.00  0.00    +0.000 NA
ATOM     25  H   UNL     1      50.369   6.430  16.123  0.00  0.00    +0.000 HD
ATOM     26  H   UNL     1      49.634   5.233  15.292  0.00  0.00    +0.000 HD
ENDBRANCH  23  24
ENDBRANCH  22  23
ENDBRANCH  16  22
ENDBRANCH  15  19
ENDBRANCH   1  15
TORSDOF 6
ENDMDL
MODEL 2
REMARK VINA RESULT:    -7.811      2.564      6.403
REMARK INTER + INTRA:         -11.098
REMARK INTER:                 -10.703
REMARK INTRA:                  -0.394
REMARK UNBOUND:                -0.776
REMARK  Name = 
REMARK  6 active torsions:
REMARK  status: ('A' for Active; 'I' for Inactive)
REMARK    1  A    between atoms: N_1  and  C_2
REMARK    2  A    between atoms: C_2  and  C_3
REMARK    3  A    between atoms: C_3  and  C_4
REMARK    4  A    between atoms: C_7  and  C_8
REMARK    5  A    between atoms: C_8  and  N_9
REMARK    6  A    between atoms: C_14  and  C_15
REMARK                            x       y       z     vdW  Elec       q    Type
REMARK                         _______ _______ _______ _____ _____    ______ ____
ROOT
ATOM      1  N   UNL     1      43.860   5.219  11.994  0.00  0.00    +0.000 N 
ATOM      2  N   UNL     1      43.417   6.416  11.550  0.00  0.00    +0.000 NA
ATOM      3  N   UNL     1      44.387   7.294  11.750  0.00  0.00    +0.000 NA
ATOM      4  C   UNL     1      45.404   6.655  12.413  0.00  0.00    +0.000 A 
ATOM      5  C   UNL     1      46.689   7.092  12.755  0.00  0.00    +0.000 A 
ATOM      6  C   UNL     1      47.543   6.214  13.444  0.00  0.00    +0.000 A 
ATOM      7  C   UNL     1      47.081   4.947  13.840  0.00  0.00    +0.000 A 
ATOM      8  C   UNL     1      45.808   4.485  13.477  0.00  0.00    +0.000 A 
ATOM      9  C   UNL     1      45.019   5.357  12.723  0.00  0.00    +0.000 A 
ENDROOT
BRANCH   6  10
ATOM     10  C   UNL     1      48.944   6.674  13.664  0.00  0.00    +0.000 C 
ATOM     11  N   UNL     1      49.674   7.108  12.594  0.00  0.00    +0.000 N 
ATOM     12  O   UNL     1      49.444   6.690  14.784  0.00  0.00    +0.000 OA
ATOM     13  H   UNL     1      49.375   7.096  11.634  0.00  0.00    +0.000 HD
ATOM     14  H   UNL     1      50.613   7.427  12.794  0.00  0.00    +0.000 HD
ENDBRANCH   6  10
BRANCH   1  15
ATOM     15  C   UNL     1      43.398   4.003  11.342  0.00  0.00    +0.000 C 
BRANCH  15  19
ATOM     16  C   UNL     1      45.765   3.036   7.839  0.00  0.00    +0.000 A 
ATOM     17  C   UNL     1      45.566   4.370   8.214  0.00  0.00    +0.000 A 
ATOM     18  C   UNL     1      44.844   4.686   9.369  0.00  0.00    +0.000 A 
ATOM     19  C   UNL     1      44.308   3.673  10.175  0.00  0.00    +0.000 A 
ATOM     20  C   UNL     1      44.528   2.336   9.806  0.00  0.00    +0.000 A 
ATOM     21  C   UNL     1      45.252   2.022   8.654  0.00  0.00    +0.000 A 
BRANCH  16  22
ATOM     22  C   UNL     1      46.510   2.694   6.571  0.00  0.00    +0.000 C 
BRANCH  22  23
ATOM     23  C   UNL     1      47.846   1.998   6.851  0.00  0.00    +0.000 C 
BRANCH  23  24
ATOM     24  N   UNL     1      48.601   1.793   5.616  0.00  0.00    +0.000 NA
ATOM     25  H   UNL     1      49.544   2.162   5.732  0.00  0.00    +0.000 HD
ATOM     26  H   UNL     1      48.176   2.327   4.858  0.00  0.00    +0.000 HD
ENDBRANCH  23  24
ENDBRANCH  22  23
ENDBRANCH  16  22
ENDBRANCH  15  19
ENDBRANCH   1  15
TORSDOF 6
ENDMDL
MODEL 3
REMARK VINA RESULT:    -7.454      3.044      7.085
REMARK INTER + INTRA:         -10.626
REMARK INTER:                 -10.058
REMARK INTRA:                  -0.568
REMARK UNBOUND:                -0.776
REMARK  Name = 
REMARK  6 active torsions:
REMARK  status: ('A' for Active; 'I' for Inactive)
REMARK    1  A    between atoms: N_1  and  C_2
REMARK    2  A    between atoms: C_2  and  C_3
REMARK    3  A    between atoms: C_3  and  C_4
REMARK    4  A    between atoms: C_7  and  C_8
REMARK    5  A    between atoms: C_8  and  N_9
REMARK    6  A    between atoms: C_14  and  C_15
REMARK                            x       y       z     vdW  Elec       q    Type
REMARK                         _______ _______ _______ _____ _____    ______ ____
ROOT
ATOM      1  N   UNL     1      45.879   4.459  12.475  0.00  0.00    +0.000 N 
ATOM      2  N   UNL     1      46.007   3.421  13.331  0.00  0.00    +0.000 NA
ATOM      3  N   UNL     1      46.705   3.850  14.370  0.00  0.00    +0.000 NA
ATOM      4  C   UNL     1      47.096   5.140  14.112  0.00  0.00    +0.000 A 
ATOM      5  C   UNL     1      47.745   6.078  14.923  0.00  0.00    +0.000 A 
ATOM      6  C   UNL     1      48.028   7.350  14.396  0.00  0.00    +0.000 A 
ATOM      7  C   UNL     1      47.724   7.640  13.055  0.00  0.00    +0.000 A 
ATOM      8  C   UNL     1      47.046   6.721  12.241  0.00  0.00    +0.000 A 
ATOM      9  C   UNL     1      46.712   5.498  12.827  0.00  0.00    +0.000 A 
ENDROOT
BRANCH   6  10
ATOM     10  C   UNL     1      48.594   8.357  15.338  0.00  0.00    +0.000 C 
ATOM     11  N   UNL     1      47.748   9.232  15.959  0.00  0.00    +0.000 N 
ATOM     12  O   UNL     1      49.795   8.401  15.582  0.00  0.00    +0.000 OA
ATOM     13  H   UNL     1      46.758   9.307  15.798  0.00  0.00    +0.000 HD
ATOM     14  H   UNL     1      48.175   9.885  16.603  0.00  0.00    +0.000 HD
ENDBRANCH   6  10
BRANCH   1  15
ATOM     15  C   UNL     1      44.683   4.560  11.652  0.00  0.00    +0.000 C 
BRANCH  15  19
ATOM     16  C   UNL     1      45.811   3.059   7.742  0.00  0.00    +0.000 A 
ATOM     17  C   UNL     1      45.200   2.214   8.677  0.00  0.00    +0.000 A 
ATOM     18  C   UNL     1      44.792   2.704   9.922  0.00  0.00    +0.000 A 
ATOM     19  C   UNL     1      44.983   4.051  10.255  0.00  0.00    +0.000 A 
ATOM     20  C   UNL     1      45.576   4.900   9.307  0.00  0.00    +0.000 A 
ATOM     21  C   UNL     1      45.980   4.410   8.063  0.00  0.00    +0.000 A 
BRANCH  16  22
ATOM     22  C   UNL     1      46.288   2.522   6.414  0.00  0.00    +0.000 C 
BRANCH  22  23
ATOM     23  C   UNL     1      47.532   1.639   6.557  0.00  0.00    +0.000 C 
BRANCH  23  24
ATOM     24  N   UNL     1      48.503   1.923   5.501  0.00  0.00    +0.000 NA
ATOM     25  H   UNL     1      48.297   1.342   4.689  0.00  0.00    +0.000 HD
ATOM     26  H   UNL     1      49.438   1.660   5.811  0.00  0.00    +0.000 HD
ENDBRANCH  23  24
ENDBRANCH  22  23
ENDBRANCH  16  22
ENDBRANCH  15  19
ENDBRANCH   1  15
TORSDOF 6
ENDMDL
MODEL 4
REMARK VINA RESULT:    -6.663      2.394      3.585
REMARK INTER + INTRA:          -9.581
REMARK INTER:                  -9.009
REMARK INTRA:                  -0.572
REMARK UNBOUND:                -0.776
REMARK  Name = 
REMARK  6 active torsions:
REMARK  status: ('A' for Active; 'I' for Inactive)
REMARK    1  A    between atoms: N_1  and  C_2
REMARK    2  A    between atoms: C_2  and  C_3
REMARK    3  A    between atoms: C_3  and  C_4
REMARK    4  A    between atoms: C_7  and  C_8
REMARK    5  A    between atoms: C_8  and  N_9
REMARK    6  A    between atoms: C_14  and  C_15
REMARK                            x       y       z     vdW  Elec       q    Type
REMARK                         _______ _______ _______ _____ _____    ______ ____
ROOT
ATOM      1  N   UNL     1      44.216   3.821  10.969  0.00  0.00    +0.000 N 
ATOM      2  N   UNL     1      43.452   2.713  11.091  0.00  0.00    +0.000 NA
ATOM      3  N   UNL     1      43.794   1.888  10.115  0.00  0.00    +0.000 NA
ATOM      4  C   UNL     1      44.711   2.531   9.321  0.00  0.00    +0.000 A 
ATOM      5  C   UNL     1      45.467   2.067   8.239  0.00  0.00    +0.000 A 
ATOM      6  C   UNL     1      46.348   2.955   7.597  0.00  0.00    +0.000 A 
ATOM      7  C   UNL     1      46.409   4.301   7.999  0.00  0.00    +0.000 A 
ATOM      8  C   UNL     1      45.679   4.771   9.101  0.00  0.00    +0.000 A 
ATOM      9  C   UNL     1      44.877   3.837   9.761  0.00  0.00    +0.000 A 
ENDROOT
BRANCH   6  10
ATOM     10  C   UNL     1      47.231   2.381   6.542  0.00  0.00    +0.000 C 
ATOM     11  N   UNL     1      47.364   3.045   5.356  0.00  0.00    +0.000 N 
ATOM     12  O   UNL     1      47.852   1.340   6.726  0.00  0.00    +0.000 OA
ATOM     13  H   UNL     1      46.868   3.879   5.090  0.00  0.00    +0.000 HD
ATOM     14  H   UNL     1      47.987   2.626   4.678  0.00  0.00    +0.000 HD
ENDBRANCH   6  10
BRANCH   1  15
ATOM     15  C   UNL     1      44.595   4.559  12.163  0.00  0.00    +0.000 C 
BRANCH  15  19
ATOM     16  C   UNL     1      44.136   8.774  11.245  0.00  0.00    +0.000 A 
ATOM     17  C   UNL     1      43.090   7.876  10.997  0.00  0.00    +0.000 A 
ATOM     18  C   UNL     1      43.215   6.525  11.336  0.00  0.00    +0.000 A 
ATOM     19  C   UNL     1      44.389   6.044  11.931  0.00  0.00    +0.000 A 
ATOM     20  C   UNL     1      45.427   6.951  12.196  0.00  0.00    +0.000 A 
ATOM     21  C   UNL     1      45.299   8.301  11.861  0.00  0.00    +0.000 A 
BRANCH  16  22
ATOM     22  C   UNL     1      44.018  10.225  10.844  0.00  0.00    +0.000 C 
BRANCH  22  23
ATOM     23  C   UNL     1      42.566  10.711  10.843  0.00  0.00    +0.000 C 
BRANCH  23  24
ATOM     24  N   UNL     1      42.153  11.136  12.180  0.00  0.00    +0.000 NA
ATOM     25  H   UNL     1      41.176  10.883  12.328  0.00  0.00    +0.000 HD
ATOM     26  H   UNL     1      42.198  12.152  12.250  0.00  0.00    +0.000 HD
ENDBRANCH  23  24
ENDBRANCH  22  23
ENDBRANCH  16  22
ENDBRANCH  15  19
ENDBRANCH   1  15
TORSDOF 6
ENDMDL
MODEL 5
REMARK VINA RESULT:    -6.462      4.171      6.160
REMARK INTER + INTRA:          -9.316
REMARK INTER:                  -8.886
REMARK INTRA:                  -0.429
REMARK UNBOUND:                -0.776
REMARK  Name = 
REMARK  6 active torsions:
REMARK  status: ('A' for Active; 'I' for Inactive)
REMARK    1  A    between atoms: N_1  and  C_2
REMARK    2  A    between atoms: C_2  and  C_3
REMARK    3  A    between atoms: C_3  and  C_4
REMARK    4  A    between atoms: C_7  and  C_8
REMARK    5  A    between atoms: C_8  and  N_9
REMARK    6  A    between atoms: C_14  and  C_15
REMARK                            x       y       z     vdW  Elec       q    Type
REMARK                         _______ _______ _______ _____ _____    ______ ____
ROOT
ATOM      1  N   UNL     1      47.406   4.824  14.758  0.00  0.00    +0.000 N 
ATOM      2  N   UNL     1      48.014   6.019  14.583  0.00  0.00    +0.000 NA
ATOM      3  N   UNL     1      47.544   6.539  13.461  0.00  0.00    +0.000 NA
ATOM      4  C   UNL     1      46.710   5.615  12.884  0.00  0.00    +0.000 A 
ATOM      5  C   UNL     1      45.878   5.709  11.763  0.00  0.00    +0.000 A 
ATOM      6  C   UNL     1      45.115   4.589  11.389  0.00  0.00    +0.000 A 
ATOM      7  C   UNL     1      45.246   3.379  12.093  0.00  0.00    +0.000 A 
ATOM      8  C   UNL     1      46.053   3.281  13.236  0.00  0.00    +0.000 A 
ATOM      9  C   UNL     1      46.732   4.439  13.621  0.00  0.00    +0.000 A 
ENDROOT
BRANCH   6  10
ATOM     10  C   UNL     1      44.142   4.780  10.274  0.00  0.00    +0.000 C 
ATOM     11  N   UNL     1      44.537   4.505   8.996  0.00  0.00    +0.000 N 
ATOM     12  O   UNL     1      42.995   5.157  10.485  0.00  0.00    +0.000 OA
ATOM     13  H   UNL     1      45.463   4.232   8.712  0.00  0.00    +0.000 HD
ATOM     14  H   UNL     1      43.839   4.632   8.276  0.00  0.00    +0.000 HD
ENDBRANCH   6  10
BRANCH   1  15
ATOM     15  C   UNL     1      47.153   4.345  16.109  0.00  0.00    +0.000 C 
BRANCH  15  19
ATOM     16  C   UNL     1      50.940   2.788  17.540  0.00  0.00    +0.000 A 
ATOM     17  C   UNL     1      50.600   4.130  17.752  0.00  0.00    +0.000 A 
ATOM     18  C   UNL     1      49.360   4.626  17.335  0.00  0.00    +0.000 A 
ATOM     19  C   UNL     1      48.434   3.788  16.699  0.00  0.00    +0.000 A 
ATOM     20  C   UNL     1      48.771   2.439  16.508  0.00  0.00    +0.000 A 
ATOM     21  C   UNL     1      50.008   1.944  16.928  0.00  0.00    +0.000 A 
BRANCH  16  22
ATOM     22  C   UNL     1      52.293   2.261  17.954  0.00  0.00    +0.000 C 
BRANCH  22  23
ATOM     23  C   UNL     1      52.592   0.887  17.348  0.00  0.00    +0.000 C 
BRANCH  23  24
ATOM     24  N   UNL     1      52.646  -0.144  18.383  0.00  0.00    +0.000 NA
ATOM     25  H   UNL     1      51.798  -0.709  18.341  0.00  0.00    +0.000 HD
ATOM     26  H   UNL     1      52.653   0.292  19.305  0.00  0.00    +0.000 HD
ENDBRANCH  23  24
ENDBRANCH  22  23
ENDBRANCH  16  22
ENDBRANCH  15  19
ENDBRANCH   1  15
TORSDOF 6
ENDMDL
MODEL 6
REMARK VINA RESULT:    -6.326      4.093      8.039
REMARK INTER + INTRA:          -9.136
REMARK INTER:                  -9.181
REMARK INTRA:                   0.045
REMARK UNBOUND:                -0.776
REMARK  Name = 
REMARK  6 active torsions:
REMARK  status: ('A' for Active; 'I' for Inactive)
REMARK    1  A    between atoms: N_1  and  C_2
REMARK    2  A    between atoms: C_2  and  C_3
REMARK    3  A    between atoms: C_3  and  C_4
REMARK    4  A    between atoms: C_7  and  C_8
REMARK    5  A    between atoms: C_8  and  N_9
REMARK    6  A    between atoms: C_14  and  C_15
REMARK                            x       y       z     vdW  Elec       q    Type
REMARK                         _______ _______ _______ _____ _____    ______ ____
ROOT
ATOM      1  N   UNL     1      47.051   4.597  14.433  0.00  0.00    +0.000 N 
ATOM      2  N   UNL     1      47.214   3.293  14.116  0.00  0.00    +0.000 NA
ATOM      3  N   UNL     1      47.795   2.706  15.149  0.00  0.00    +0.000 NA
ATOM      4  C   UNL     1      48.084   3.675  16.078  0.00  0.00    +0.000 A 
ATOM      5  C   UNL     1      48.586   3.572  17.379  0.00  0.00    +0.000 A 
ATOM      6  C   UNL     1      48.788   4.748  18.123  0.00  0.00    +0.000 A 
ATOM      7  C   UNL     1      48.553   6.003  17.536  0.00  0.00    +0.000 A 
ATOM      8  C   UNL     1      48.021   6.119  16.243  0.00  0.00    +0.000 A 
ATOM      9  C   UNL     1      47.759   4.925  15.567  0.00  0.00    +0.000 A 
ENDROOT
BRANCH   6  10
ATOM     10  C   UNL     1      49.192   4.580  19.549  0.00  0.00    +0.000 C 
ATOM     11  N   UNL     1      48.484   3.723  20.342  0.00  0.00    +0.000 N 
ATOM     12  O   UNL     1      50.156   5.179  20.014  0.00  0.00    +0.000 OA
ATOM     13  H   UNL     1      47.657   3.219  20.071  0.00  0.00    +0.000 HD
ATOM     14  H   UNL     1      48.806   3.628  21.296  0.00  0.00    +0.000 HD
ENDBRANCH   6  10
BRANCH   1  15
ATOM     15  C   UNL     1      45.912   5.324  13.894  0.00  0.00    +0.000 C 
BRANCH  15  19
ATOM     16  C   UNL     1      45.063   4.344   9.754  0.00  0.00    +0.000 A 
ATOM     17  C   UNL     1      45.713   5.541  10.081  0.00  0.00    +0.000 A 
ATOM     18  C   UNL     1      46.032   5.840  11.409  0.00  0.00    +0.000 A 
ATOM     19  C   UNL     1      45.709   4.946  12.439  0.00  0.00    +0.000 A 
ATOM     20  C   UNL     1      45.076   3.738  12.105  0.00  0.00    +0.000 A 
ATOM     21  C   UNL     1      44.761   3.439  10.777  0.00  0.00    +0.000 A 
BRANCH  16  22
ATOM     22  C   UNL     1      44.683   4.038   8.326  0.00  0.00    +0.000 C 
BRANCH  22  23
ATOM     23  C   UNL     1      45.790   3.289   7.577  0.00  0.00    +0.000 C 
BRANCH  23  24
ATOM     24  N   UNL     1      46.801   4.216   7.070  0.00  0.00    +0.000 NA
ATOM     25  H   UNL     1      47.116   3.902   6.153  0.00  0.00    +0.000 HD
ATOM     26  H   UNL     1      47.622   4.197   7.676  0.00  0.00    +0.000 HD
ENDBRANCH  23  24
ENDBRANCH  22  23
ENDBRANCH  16  22
ENDBRANCH  15  19
ENDBRANCH   1  15
TORSDOF 6
ENDMDL
MODEL 7
REMARK VINA RESULT:    -6.151      3.097      6.511
REMARK INTER + INTRA:          -8.904
REMARK INTER:                  -8.693
REMARK INTRA:                  -0.211
REMARK UNBOUND:                -0.776
REMARK  Name = 
REMARK  6 active torsions:
REMARK  status: ('A' for Active; 'I' for Inactive)
REMARK    1  A    between atoms: N_1  and  C_2
REMARK    2  A    between atoms: C_2  and  C_3
REMARK    3  A    between atoms: C_3  and  C_4
REMARK    4  A    between atoms: C_7  and  C_8
REMARK    5  A    between atoms: C_8  and  N_9
REMARK    6  A    between atoms: C_14  and  C_15
REMARK                            x       y       z     vdW  Elec       q    Type
REMARK                         _______ _______ _______ _____ _____    ______ ____
ROOT
ATOM      1  N   UNL     1      44.943   6.544  12.309  0.00  0.00    +0.000 N 
ATOM      2  N   UNL     1      44.391   7.720  11.938  0.00  0.00    +0.000 NA
ATOM      3  N   UNL     1      45.380   8.583  11.769  0.00  0.00    +0.000 NA
ATOM      4  C   UNL     1      46.549   7.963  12.133  0.00  0.00    +0.000 A 
ATOM      5  C   UNL     1      47.878   8.387  12.034  0.00  0.00    +0.000 A 
ATOM      6  C   UNL     1      48.899   7.534  12.489  0.00  0.00    +0.000 A 
ATOM      7  C   UNL     1      48.574   6.309  13.097  0.00  0.00    +0.000 A 
ATOM      8  C   UNL     1      47.248   5.858  13.174  0.00  0.00    +0.000 A 
ATOM      9  C   UNL     1      46.271   6.699  12.638  0.00  0.00    +0.000 A 
ENDROOT
BRANCH   6  10
ATOM     10  C   UNL     1      50.302   7.970  12.237  0.00  0.00    +0.000 C 
ATOM     11  N   UNL     1      50.964   7.475  11.150  0.00  0.00    +0.000 N 
ATOM     12  O   UNL     1      50.862   8.777  12.971  0.00  0.00    +0.000 OA
ATOM     13  H   UNL     1      50.612   6.780  10.513  0.00  0.00    +0.000 HD
ATOM     14  H   UNL     1      51.907   7.813  11.010  0.00  0.00    +0.000 HD
ENDBRANCH   6  10
BRANCH   1  15
ATOM     15  C   UNL     1      44.297   5.300  11.919  0.00  0.00    +0.000 C 
BRANCH  15  19
ATOM     16  C   UNL     1      45.979   3.744   8.236  0.00  0.00    +0.000 A 
ATOM     17  C   UNL     1      46.168   5.085   8.590  0.00  0.00    +0.000 A 
ATOM     18  C   UNL     1      45.669   5.581   9.799  0.00  0.00    +0.000 A 
ATOM     19  C   UNL     1      44.972   4.743  10.680  0.00  0.00    +0.000 A 
ATOM     20  C   UNL     1      44.803   3.394  10.330  0.00  0.00    +0.000 A 
ATOM     21  C   UNL     1      45.305   2.899   9.124  0.00  0.00    +0.000 A 
BRANCH  16  22
ATOM     22  C   UNL     1      46.482   3.217   6.913  0.00  0.00    +0.000 C 
BRANCH  22  23
ATOM     23  C   UNL     1      47.196   1.870   7.058  0.00  0.00    +0.000 C 
BRANCH  23  24
ATOM     24  N   UNL     1      48.358   1.793   6.174  0.00  0.00    +0.000 NA
ATOM     25  H   UNL     1      48.087   2.080   5.234  0.00  0.00    +0.000 HD
ATOM     26  H   UNL     1      48.670   0.825   6.097  0.00  0.00    +0.000 HD
ENDBRANCH  23  24
ENDBRANCH  22  23
ENDBRANCH  16  22
ENDBRANCH  15  19
ENDBRANCH   1  15
TORSDOF 6
ENDMDL
MODEL 8
REMARK VINA RESULT:    -5.657      3.643      7.586
REMARK INTER + INTRA:          -8.252
REMARK INTER:                  -7.711
REMARK INTRA:                  -0.541
REMARK UNBOUND:                -0.776
REMARK  Name = 
REMARK  6 active torsions:
REMARK  status: ('A' for Active; 'I' for Inactive)
REMARK    1  A    between atoms: N_1  and  C_2
REMARK    2  A    between atoms: C_2  and  C_3
REMARK    3  A    between atoms: C_3  and  C_4
REMARK    4  A    between atoms: C_7  and  C_8
REMARK    5  A    between atoms: C_8  and  N_9
REMARK    6  A    between atoms: C_14  and  C_15
REMARK                            x       y       z     vdW  Elec       q    Type
REMARK                         _______ _______ _______ _____ _____    ______ ____
ROOT
ATOM      1  N   UNL     1      46.750   6.123  13.268  0.00  0.00    +0.000 N 
ATOM      2  N   UNL     1      47.393   5.153  13.956  0.00  0.00    +0.000 NA
ATOM      3  N   UNL     1      48.347   5.737  14.662  0.00  0.00    +0.000 NA
ATOM      4  C   UNL     1      48.359   7.070  14.335  0.00  0.00    +0.000 A 
ATOM      5  C   UNL     1      49.085   8.137  14.875  0.00  0.00    +0.000 A 
ATOM      6  C   UNL     1      48.897   9.424  14.341  0.00  0.00    +0.000 A 
ATOM      7  C   UNL     1      48.046   9.612  13.238  0.00  0.00    +0.000 A 
ATOM      8  C   UNL     1      47.290   8.557  12.707  0.00  0.00    +0.000 A 
ATOM      9  C   UNL     1      47.444   7.311  13.318  0.00  0.00    +0.000 A 
ENDROOT
BRANCH   6  10
ATOM     10  C   UNL     1      49.586  10.548  15.038  0.00  0.00    +0.000 C 
ATOM     11  N   UNL     1      50.936  10.692  14.887  0.00  0.00    +0.000 N 
ATOM     12  O   UNL     1      48.964  11.353  15.722  0.00  0.00    +0.000 OA
ATOM     13  H   UNL     1      51.542  10.066  14.385  0.00  0.00    +0.000 HD
ATOM     14  H   UNL     1      51.357  11.479  15.364  0.00  0.00    +0.000 HD
ENDBRANCH   6  10
BRANCH   1  15
ATOM     15  C   UNL     1      45.333   5.970  12.978  0.00  0.00    +0.000 C 
BRANCH  15  19
ATOM     16  C   UNL     1      45.075   4.012   9.116  0.00  0.00    +0.000 A 
ATOM     17  C   UNL     1      44.366   3.510  10.215  0.00  0.00    +0.000 A 
ATOM     18  C   UNL     1      44.408   4.164  11.450  0.00  0.00    +0.000 A 
ATOM     19  C   UNL     1      45.157   5.337  11.612  0.00  0.00    +0.000 A 
ATOM     20  C   UNL     1      45.849   5.848  10.502  0.00  0.00    +0.000 A 
ATOM     21  C   UNL     1      45.804   5.196   9.268  0.00  0.00    +0.000 A 
BRANCH  16  22
ATOM     22  C   UNL     1      45.063   3.285   7.793  0.00  0.00    +0.000 C 
BRANCH  22  23
ATOM     23  C   UNL     1      46.345   2.478   7.562  0.00  0.00    +0.000 C 
BRANCH  23  24
ATOM     24  N   UNL     1      46.272   1.176   8.223  0.00  0.00    +0.000 NA
ATOM     25  H   UNL     1      46.991   1.123   8.944  0.00  0.00    +0.000 HD
ATOM     26  H   UNL     1      46.484   0.436   7.553  0.00  0.00    +0.000 HD
ENDBRANCH  23  24
ENDBRANCH  22  23
ENDBRANCH  16  22
ENDBRANCH  15  19
ENDBRANCH   1  15
TORSDOF 6
ENDMDL
MODEL 9
REMARK VINA RESULT:    -5.315      3.187      5.565
REMARK INTER + INTRA:          -7.800
REMARK INTER:                  -7.094
REMARK INTRA:                  -0.706
REMARK UNBOUND:                -0.776
REMARK  Name = 
REMARK  6 active torsions:
REMARK  status: ('A' for Active; 'I' for Inactive)
REMARK    1  A    between atoms: N_1  and  C_2
REMARK    2  A    between atoms: C_2  and  C_3
REMARK    3  A    between atoms: C_3  and  C_4
REMARK    4  A    between atoms: C_7  and  C_8
REMARK    5  A    between atoms: C_8  and  N_9
REMARK    6  A    between atoms: C_14  and  C_15
REMARK                            x       y       z     vdW  Elec       q    Type
REMARK                         _______ _______ _______ _____ _____    ______ ____
ROOT
ATOM      1  N   UNL     1      47.591   7.263  13.867  0.00  0.00    +0.000 N 
ATOM      2  N   UNL     1      48.282   6.327  14.553  0.00  0.00    +0.000 NA
ATOM      3  N   UNL     1      47.820   5.144  14.181  0.00  0.00    +0.000 NA
ATOM      4  C   UNL     1      46.766   5.352  13.327  0.00  0.00    +0.000 A 
ATOM      5  C   UNL     1      46.013   4.451  12.567  0.00  0.00    +0.000 A 
ATOM      6  C   UNL     1      44.973   4.946  11.762  0.00  0.00    +0.000 A 
ATOM      7  C   UNL     1      44.657   6.315  11.781  0.00  0.00    +0.000 A 
ATOM      8  C   UNL     1      45.423   7.234  12.513  0.00  0.00    +0.000 A 
ATOM      9  C   UNL     1      46.498   6.712  13.237  0.00  0.00    +0.000 A 
ENDROOT
BRANCH   6  10
ATOM     10  C   UNL     1      44.291   3.966  10.868  0.00  0.00    +0.000 C 
ATOM     11  N   UNL     1      44.184   2.665  11.270  0.00  0.00    +0.000 N 
ATOM     12  O   UNL     1      43.808   4.309   9.794  0.00  0.00    +0.000 OA
ATOM     13  H   UNL     1      44.579   2.274  12.108  0.00  0.00    +0.000 HD
ATOM     14  H   UNL     1      43.698   2.042  10.639  0.00  0.00    +0.000 HD
ENDBRANCH   6  10
BRANCH   1  15
ATOM     15  C   UNL     1      48.246   8.512  13.510  0.00  0.00    +0.000 C 
BRANCH  15  19
ATOM     16  C   UNL     1      51.943   7.917  11.319  0.00  0.00    +0.000 A 
ATOM     17  C   UNL     1      51.965   8.433  12.620  0.00  0.00    +0.000 A 
ATOM     18  C   UNL     1      50.781   8.583  13.349  0.00  0.00    +0.000 A 
ATOM     19  C   UNL     1      49.549   8.216  12.791  0.00  0.00    +0.000 A 
ATOM     20  C   UNL     1      49.533   7.679  11.494  0.00  0.00    +0.000 A 
ATOM     21  C   UNL     1      50.717   7.527  10.768  0.00  0.00    +0.000 A 
BRANCH  16  22
ATOM     22  C   UNL     1      53.215   7.792  10.516  0.00  0.00    +0.000 C 
BRANCH  22  23
ATOM     23  C   UNL     1      53.221   6.546   9.626  0.00  0.00    +0.000 C 
BRANCH  23  24
ATOM     24  N   UNL     1      53.552   5.349  10.398  0.00  0.00    +0.000 NA
ATOM     25  H   UNL     1      54.228   4.789   9.879  0.00  0.00    +0.000 HD
ATOM     26  H   UNL     1      52.722   4.766  10.506  0.00  0.00    +0.000 HD
ENDBRANCH  23  24
ENDBRANCH  22  23
ENDBRANCH  16  22
ENDBRANCH  15  19
ENDBRANCH   1  15
TORSDOF 6
ENDMDL
