MODEL 1
REMARK VINA RESULT:    -8.057      0.000      0.000
REMARK INTER + INTRA:         -12.250
REMARK INTER:                 -11.355
REMARK INTRA:                  -0.895
REMARK UNBOUND:                -0.895
REMARK  Name = 
REMARK  8 active torsions:
REMARK  status: ('A' for Active; 'I' for Inactive)
REMARK    1  A    between atoms: C_1  and  C_2
REMARK    2  A    between atoms: C_2  and  C_3
REMARK    3  A    between atoms: C_3  and  N_4
REMARK    4  A    between atoms: C_3  and  C_17
REMARK    5  A    between atoms: C_5  and  C_7
REMARK    6  A    between atoms: C_20  and  C_21
REMARK    7  A    between atoms: C_21  and  N_22
REMARK    8  A    between atoms: C_23  and  C_25
REMARK                            x       y       z     vdW  Elec       q    Type
REMARK                         _______ _______ _______ _____ _____    ______ ____
ROOT
ATOM      1  C   UNL     1      47.260   7.864  13.232  0.00  0.00    +0.000 C 
ENDROOT
BRANCH   1   2
ATOM      2  C   UNL     1      46.370   6.759  12.657  0.00  0.00    +0.000 A 
ATOM      3  C   UNL     1      46.515   5.428  13.074  0.00  0.00    +0.000 A 
ATOM      4  C   UNL     1      45.728   4.410  12.513  0.00  0.00    +0.000 A 
ATOM      5  C   UNL     1      44.778   4.698  11.524  0.00  0.00    +0.000 A 
ATOM      6  C   UNL     1      44.602   6.033  11.137  0.00  0.00    +0.000 A 
ATOM      7  C   UNL     1      45.390   7.047  11.691  0.00  0.00    +0.000 A 
BRANCH   5   8
ATOM      8  C   UNL     1      43.983   3.597  10.869  0.00  0.00    +0.000 C 
BRANCH   8   9
ATOM      9  N   UNL     1      44.776   2.754  10.017  0.00  0.00    +0.000 N 
ATOM     10  C   UNL     1      45.197   3.180   8.776  0.00  0.00    +0.000 C 
ATOM     11  O   UNL     1      44.915   4.280   8.309  0.00  0.00    +0.000 OA
ATOM     12  H   UNL     1      45.112   1.847  10.327  0.00  0.00    +0.000 HD
BRANCH  10  13
ATOM     13  C   UNL     1      46.016   2.195   8.047  0.00  0.00    +0.000 A 
ATOM     14  C   UNL     1      46.864   2.449   6.935  0.00  0.00    +0.000 A 
ATOM     15  C   UNL     1      47.401   1.231   6.597  0.00  0.00    +0.000 A 
ATOM     16  N   UNL     1      46.876   0.337   7.479  0.00  0.00    +0.000 N 
ATOM     17  N   UNL     1      46.042   0.886   8.380  0.00  0.00    +0.000 NA
ATOM     18  H   UNL     1      47.043  -0.664   7.524  0.00  0.00    +0.000 HD
ENDBRANCH  10  13
ENDBRANCH   8   9
ENDBRANCH   5   8
ENDBRANCH   1   2
BRANCH   1  19
ATOM     19  N   UNL     1      47.558   7.537  14.622  0.00  0.00    +0.000 N 
ATOM     20  C   UNL     1      48.735   6.983  15.056  0.00  0.00    +0.000 C 
ATOM     21  O   UNL     1      49.709   6.809  14.331  0.00  0.00    +0.000 OA
ATOM     22  H   UNL     1      46.740   7.401  15.204  0.00  0.00    +0.000 HD
BRANCH  20  23
ATOM     23  C   UNL     1      48.788   6.645  16.484  0.00  0.00    +0.000 A 
ATOM     24  C   UNL     1      49.141   7.606  17.423  0.00  0.00    +0.000 A 
ATOM     25  S   UNL     1      49.160   7.013  19.024  0.00  0.00    +0.000 S 
ATOM     26  C   UNL     1      48.741   5.449  18.511  0.00  0.00    +0.000 A 
ATOM     27  N   UNL     1      48.632   4.418  19.397  0.00  0.00    +0.000 NA
ATOM     28  C   UNL     1      48.332   3.283  18.862  0.00  0.00    +0.000 A 
ATOM     29  N   UNL     1      48.112   3.082  17.523  0.00  0.00    +0.000 N 
ATOM     30  C   UNL     1      48.167   4.097  16.601  0.00  0.00    +0.000 A 
ATOM     31  O   UNL     1      47.886   3.901  15.424  0.00  0.00    +0.000 OA
ATOM     32  C   UNL     1      48.541   5.388  17.145  0.00  0.00    +0.000 A 
ATOM     33  H   UNL     1      47.848   2.177  17.166  0.00  0.00    +0.000 HD
ENDBRANCH  20  23
ENDBRANCH   1  19
BRANCH   1  35
ATOM     34  C   UNL     1      47.286  10.161  12.088  0.00  0.00    +0.000 C 
ATOM     35  C   UNL     1      46.602   9.254  13.100  0.00  0.00    +0.000 C 
ENDBRANCH   1  35
TORSDOF 7
ENDMDL
MODEL 2
REMARK VINA RESULT:    -8.017      1.594      2.166
REMARK INTER + INTRA:         -12.193
REMARK INTER:                 -10.855
REMARK INTRA:                  -1.338
REMARK UNBOUND:                -0.895
REMARK  Name = 
REMARK  8 active torsions:
REMARK  status: ('A' for Active; 'I' for Inactive)
REMARK    1  A    between atoms: C_1  and  C_2
REMARK    2  A    between atoms: C_2  and  C_3
REMARK    3  A    between atoms: C_3  and  N_4
REMARK    4  A    between atoms: C_3  and  C_17
REMARK    5  A    between atoms: C_5  and  C_7
REMARK    6  A    between atoms: C_20  and  C_21
REMARK    7  A    between atoms: C_21  and  N_22
REMARK    8  A    between atoms: C_23  and  C_25
REMARK                            x       y       z     vdW  Elec       q    Type
REMARK                         _______ _______ _______ _____ _____    ______ ____
ROOT
ATOM      1  C   UNL     1      47.856   7.428  13.843  0.00  0.00    +0.000 C 
ENDROOT
BRANCH   1   2
ATOM      2  C   UNL     1      46.870   6.535  13.087  0.00  0.00    +0.000 A 
ATOM      3  C   UNL     1      46.559   5.250  13.554  0.00  0.00    +0.000 A 
ATOM      4  C   UNL     1      45.689   4.416  12.835  0.00  0.00    +0.000 A 
ATOM      5  C   UNL     1      45.108   4.846  11.634  0.00  0.00    +0.000 A 
ATOM      6  C   UNL     1      45.385   6.145  11.188  0.00  0.00    +0.000 A 
ATOM      7  C   UNL     1      46.257   6.974  11.901  0.00  0.00    +0.000 A 
BRANCH   5   8
ATOM      8  C   UNL     1      44.231   3.926  10.824  0.00  0.00    +0.000 C 
BRANCH   8   9
ATOM      9  N   UNL     1      44.974   3.024   9.987  0.00  0.00    +0.000 N 
ATOM     10  C   UNL     1      45.344   3.372   8.706  0.00  0.00    +0.000 C 
ATOM     11  O   UNL     1      45.055   4.448   8.190  0.00  0.00    +0.000 OA
ATOM     12  H   UNL     1      45.313   2.130  10.333  0.00  0.00    +0.000 HD
BRANCH  10  13
ATOM     13  C   UNL     1      46.117   2.335   7.999  0.00  0.00    +0.000 A 
ATOM     14  C   UNL     1      46.980   2.528   6.887  0.00  0.00    +0.000 A 
ATOM     15  C   UNL     1      47.458   1.279   6.573  0.00  0.00    +0.000 A 
ATOM     16  N   UNL     1      46.887   0.428   7.469  0.00  0.00    +0.000 N 
ATOM     17  N   UNL     1      46.078   1.033   8.356  0.00  0.00    +0.000 NA
ATOM     18  H   UNL     1      47.005  -0.579   7.533  0.00  0.00    +0.000 HD
ENDBRANCH  10  13
ENDBRANCH   8   9
ENDBRANCH   5   8
ENDBRANCH   1   2
BRANCH   1  19
ATOM     19  N   UNL     1      47.926   6.969  15.226  0.00  0.00    +0.000 N 
ATOM     20  C   UNL     1      49.075   6.568  15.856  0.00  0.00    +0.000 C 
ATOM     21  O   UNL     1      50.190   6.662  15.354  0.00  0.00    +0.000 OA
ATOM     22  H   UNL     1      47.048   6.618  15.594  0.00  0.00    +0.000 HD
BRANCH  20  23
ATOM     23  C   UNL     1      48.902   6.051  17.220  0.00  0.00    +0.000 A 
ATOM     24  C   UNL     1      49.182   4.722  17.511  0.00  0.00    +0.000 A 
ATOM     25  S   UNL     1      48.902   4.312  19.145  0.00  0.00    +0.000 S 
ATOM     26  C   UNL     1      48.358   5.881  19.505  0.00  0.00    +0.000 A 
ATOM     27  N   UNL     1      47.912   6.208  20.750  0.00  0.00    +0.000 NA
ATOM     28  C   UNL     1      47.507   7.427  20.870  0.00  0.00    +0.000 A 
ATOM     29  N   UNL     1      47.523   8.360  19.865  0.00  0.00    +0.000 N 
ATOM     30  C   UNL     1      48.004   8.090  18.609  0.00  0.00    +0.000 A 
ATOM     31  O   UNL     1      48.080   8.967  17.755  0.00  0.00    +0.000 OA
ATOM     32  C   UNL     1      48.434   6.720  18.408  0.00  0.00    +0.000 A 
ATOM     33  H   UNL     1      47.224   9.310  20.027  0.00  0.00    +0.000 HD
ENDBRANCH  20  23
ENDBRANCH   1  19
BRANCH   1  35
ATOM     34  C   UNL     1      48.629   9.843  13.442  0.00  0.00    +0.000 C 
ATOM     35  C   UNL     1      47.462   8.918  13.754  0.00  0.00    +0.000 C 
ENDBRANCH   1  35
TORSDOF 7
ENDMDL
MODEL 3
REMARK VINA RESULT:    -7.953      1.394      1.574
REMARK INTER + INTRA:         -12.103
REMARK INTER:                 -10.627
REMARK INTRA:                  -1.476
REMARK UNBOUND:                -0.895
REMARK  Name = 
REMARK  8 active torsions:
REMARK  status: ('A' for Active; 'I' for Inactive)
REMARK    1  A    between atoms: C_1  and  C_2
REMARK    2  A    between atoms: C_2  and  C_3
REMARK    3  A    between atoms: C_3  and  N_4
REMARK    4  A    between atoms: C_3  and  C_17
REMARK    5  A    between atoms: C_5  and  C_7
REMARK    6  A    between atoms: C_20  and  C_21
REMARK    7  A    between atoms: C_21  and  N_22
REMARK    8  A    between atoms: C_23  and  C_25
REMARK                            x       y       z     vdW  Elec       q    Type
REMARK                         _______ _______ _______ _____ _____    ______ ____
ROOT
ATOM      1  C   UNL     1      46.847   8.185  13.112  0.00  0.00    +0.000 C 
ENDROOT
BRANCH   1   2
ATOM      2  C   UNL     1      46.306   7.081  12.200  0.00  0.00    +0.000 A 
ATOM      3  C   UNL     1      46.938   6.777  10.987  0.00  0.00    +0.000 A 
ATOM      4  C   UNL     1      46.416   5.794  10.131  0.00  0.00    +0.000 A 
ATOM      5  C   UNL     1      45.251   5.092  10.469  0.00  0.00    +0.000 A 
ATOM      6  C   UNL     1      44.642   5.365  11.701  0.00  0.00    +0.000 A 
ATOM      7  C   UNL     1      45.159   6.348  12.551  0.00  0.00    +0.000 A 
BRANCH   5   8
ATOM      8  C   UNL     1      44.647   4.088   9.520  0.00  0.00    +0.000 C 
BRANCH   8   9
ATOM      9  N   UNL     1      45.506   3.767   8.413  0.00  0.00    +0.000 N 
ATOM     10  C   UNL     1      46.004   2.494   8.236  0.00  0.00    +0.000 C 
ATOM     11  O   UNL     1      45.771   1.566   9.006  0.00  0.00    +0.000 OA
ATOM     12  H   UNL     1      45.717   4.445   7.686  0.00  0.00    +0.000 HD
BRANCH  10  13
ATOM     13  C   UNL     1      46.851   2.340   7.039  0.00  0.00    +0.000 A 
ATOM     14  C   UNL     1      46.663   2.967   5.778  0.00  0.00    +0.000 A 
ATOM     15  C   UNL     1      47.687   2.509   4.985  0.00  0.00    +0.000 A 
ATOM     16  N   UNL     1      48.412   1.663   5.767  0.00  0.00    +0.000 N 
ATOM     17  N   UNL     1      47.942   1.544   7.022  0.00  0.00    +0.000 NA
ATOM     18  H   UNL     1      49.239   1.133   5.510  0.00  0.00    +0.000 HD
ENDBRANCH  10  13
ENDBRANCH   8   9
ENDBRANCH   5   8
ENDBRANCH   1   2
BRANCH   1  19
ATOM     19  N   UNL     1      47.291   7.575  14.360  0.00  0.00    +0.000 N 
ATOM     20  C   UNL     1      48.529   7.020  14.558  0.00  0.00    +0.000 C 
ATOM     21  O   UNL     1      49.438   7.081  13.736  0.00  0.00    +0.000 OA
ATOM     22  H   UNL     1      46.539   7.255  14.960  0.00  0.00    +0.000 HD
BRANCH  20  23
ATOM     23  C   UNL     1      48.733   6.373  15.861  0.00  0.00    +0.000 A 
ATOM     24  C   UNL     1      49.602   6.924  16.793  0.00  0.00    +0.000 A 
ATOM     25  S   UNL     1      49.714   6.016  18.235  0.00  0.00    +0.000 S 
ATOM     26  C   UNL     1      48.641   4.839  17.645  0.00  0.00    +0.000 A 
ATOM     27  N   UNL     1      48.327   3.734  18.378  0.00  0.00    +0.000 NA
ATOM     28  C   UNL     1      47.520   2.915  17.794  0.00  0.00    +0.000 A 
ATOM     29  N   UNL     1      46.979   3.104  16.548  0.00  0.00    +0.000 N 
ATOM     30  C   UNL     1      47.230   4.221  15.791  0.00  0.00    +0.000 A 
ATOM     31  O   UNL     1      46.668   4.399  14.716  0.00  0.00    +0.000 OA
ATOM     32  C   UNL     1      48.165   5.156  16.386  0.00  0.00    +0.000 A 
ATOM     33  H   UNL     1      46.326   2.443  16.154  0.00  0.00    +0.000 HD
ENDBRANCH  20  23
ENDBRANCH   1  19
BRANCH   1  35
ATOM     34  C   UNL     1      45.203   9.864  12.080  0.00  0.00    +0.000 C 
ATOM     35  C   UNL     1      45.797   9.289  13.358  0.00  0.00    +0.000 C 
ENDBRANCH   1  35
TORSDOF 7
ENDMDL
MODEL 4
REMARK VINA RESULT:    -7.718      3.415      7.900
REMARK INTER + INTRA:         -11.771
REMARK INTER:                 -10.531
REMARK INTRA:                  -1.240
REMARK UNBOUND:                -0.895
REMARK  Name = 
REMARK  8 active torsions:
REMARK  status: ('A' for Active; 'I' for Inactive)
REMARK    1  A    between atoms: C_1  and  C_2
REMARK    2  A    between atoms: C_2  and  C_3
REMARK    3  A    between atoms: C_3  and  N_4
REMARK    4  A    between atoms: C_3  and  C_17
REMARK    5  A    between atoms: C_5  and  C_7
REMARK    6  A    between atoms: C_20  and  C_21
REMARK    7  A    between atoms: C_21  and  N_22
REMARK    8  A    between atoms: C_23  and  C_25
REMARK                            x       y       z     vdW  Elec       q    Type
REMARK                         _______ _______ _______ _____ _____    ______ ____
ROOT
ATOM      1  C   UNL     1      48.219   8.039  12.315  0.00  0.00    +0.000 C 
ENDROOT
BRANCH   1   2
ATOM      2  C   UNL     1      48.765   7.484  13.634  0.00  0.00    +0.000 A 
ATOM      3  C   UNL     1      48.011   6.587  14.403  0.00  0.00    +0.000 A 
ATOM      4  C   UNL     1      48.494   6.113  15.632  0.00  0.00    +0.000 A 
ATOM      5  C   UNL     1      49.742   6.525  16.122  0.00  0.00    +0.000 A 
ATOM      6  C   UNL     1      50.514   7.389  15.335  0.00  0.00    +0.000 A 
ATOM      7  C   UNL     1      50.030   7.865  14.112  0.00  0.00    +0.000 A 
BRANCH   5   8
ATOM      8  C   UNL     1      50.231   6.075  17.475  0.00  0.00    +0.000 C 
BRANCH   8   9
ATOM      9  N   UNL     1      50.980   4.850  17.430  0.00  0.00    +0.000 N 
ATOM     10  C   UNL     1      50.384   3.633  17.680  0.00  0.00    +0.000 C 
ATOM     11  O   UNL     1      49.198   3.512  17.973  0.00  0.00    +0.000 OA
ATOM     12  H   UNL     1      51.955   4.831  17.143  0.00  0.00    +0.000 HD
BRANCH  10  13
ATOM     13  C   UNL     1      51.297   2.481  17.572  0.00  0.00    +0.000 A 
ATOM     14  C   UNL     1      52.644   2.419  18.020  0.00  0.00    +0.000 A 
ATOM     15  C   UNL     1      53.082   1.159  17.690  0.00  0.00    +0.000 A 
ATOM     16  N   UNL     1      52.027   0.547  17.085  0.00  0.00    +0.000 N 
ATOM     17  N   UNL     1      50.925   1.313  17.006  0.00  0.00    +0.000 NA
ATOM     18  H   UNL     1      51.990  -0.393  16.701  0.00  0.00    +0.000 HD
ENDBRANCH  10  13
ENDBRANCH   8   9
ENDBRANCH   5   8
ENDBRANCH   1   2
BRANCH   1  19
ATOM     19  N   UNL     1      47.493   6.974  11.633  0.00  0.00    +0.000 N 
ATOM     20  C   UNL     1      46.136   6.958  11.440  0.00  0.00    +0.000 C 
ATOM     21  O   UNL     1      45.401   7.898  11.721  0.00  0.00    +0.000 OA
ATOM     22  H   UNL     1      47.974   6.081  11.623  0.00  0.00    +0.000 HD
BRANCH  20  23
ATOM     23  C   UNL     1      45.600   5.741  10.815  0.00  0.00    +0.000 A 
ATOM     24  C   UNL     1      45.767   5.515   9.455  0.00  0.00    +0.000 A 
ATOM     25  S   UNL     1      45.058   4.058   8.917  0.00  0.00    +0.000 S 
ATOM     26  C   UNL     1      44.470   3.704  10.472  0.00  0.00    +0.000 A 
ATOM     27  N   UNL     1      43.718   2.592  10.709  0.00  0.00    +0.000 NA
ATOM     28  C   UNL     1      43.321   2.466  11.930  0.00  0.00    +0.000 A 
ATOM     29  N   UNL     1      43.620   3.339  12.945  0.00  0.00    +0.000 N 
ATOM     30  C   UNL     1      44.409   4.446  12.763  0.00  0.00    +0.000 A 
ATOM     31  O   UNL     1      44.724   5.163  13.707  0.00  0.00    +0.000 OA
ATOM     32  C   UNL     1      44.849   4.657  11.398  0.00  0.00    +0.000 A 
ATOM     33  H   UNL     1      43.307   3.170  13.889  0.00  0.00    +0.000 HD
ENDBRANCH  20  23
ENDBRANCH   1  19
BRANCH   1  35
ATOM     34  C   UNL     1      49.314  10.138  11.325  0.00  0.00    +0.000 C 
ATOM     35  C   UNL     1      49.343   8.621  11.431  0.00  0.00    +0.000 C 
ENDBRANCH   1  35
TORSDOF 7
ENDMDL
MODEL 5
REMARK VINA RESULT:    -7.608      2.474      4.441
REMARK INTER + INTRA:         -11.616
REMARK INTER:                 -10.260
REMARK INTRA:                  -1.356
REMARK UNBOUND:                -0.895
REMARK  Name = 
REMARK  8 active torsions:
REMARK  status: ('A' for Active; 'I' for Inactive)
REMARK    1  A    between atoms: C_1  and  C_2
REMARK    2  A    between atoms: C_2  and  C_3
REMARK    3  A    between atoms: C_3  and  N_4
REMARK    4  A    between atoms: C_3  and  C_17
REMARK    5  A    between atoms: C_5  and  C_7
REMARK    6  A    between atoms: C_20  and  C_21
REMARK    7  A    between atoms: C_21  and  N_22
REMARK    8  A    between atoms: C_23  and  C_25
REMARK                            x       y       z     vdW  Elec       q    Type
REMARK                         _______ _______ _______ _____ _____    ______ ____
ROOT
ATOM      1  C   UNL     1      47.147   5.059  15.140  0.00  0.00    +0.000 C 
ENDROOT
BRANCH   1   2
ATOM      2  C   UNL     1      46.330   4.815  13.869  0.00  0.00    +0.000 A 
ATOM      3  C   UNL     1      46.230   3.532  13.312  0.00  0.00    +0.000 A 
ATOM      4  C   UNL     1      45.516   3.319  12.123  0.00  0.00    +0.000 A 
ATOM      5  C   UNL     1      44.884   4.382  11.462  0.00  0.00    +0.000 A 
ATOM      6  C   UNL     1      44.947   5.656  12.040  0.00  0.00    +0.000 A 
ATOM      7  C   UNL     1      45.664   5.871  13.222  0.00  0.00    +0.000 A 
BRANCH   5   8
ATOM      8  C   UNL     1      44.178   4.168  10.148  0.00  0.00    +0.000 C 
BRANCH   8   9
ATOM      9  N   UNL     1      45.079   3.982   9.043  0.00  0.00    +0.000 N 
ATOM     10  C   UNL     1      45.362   2.726   8.551  0.00  0.00    +0.000 C 
ATOM     11  O   UNL     1      44.890   1.695   9.022  0.00  0.00    +0.000 OA
ATOM     12  H   UNL     1      45.482   4.770   8.544  0.00  0.00    +0.000 HD
BRANCH  10  13
ATOM     13  C   UNL     1      46.291   2.724   7.406  0.00  0.00    +0.000 A 
ATOM     14  C   UNL     1      47.218   1.702   7.065  0.00  0.00    +0.000 A 
ATOM     15  C   UNL     1      47.862   2.153   5.939  0.00  0.00    +0.000 A 
ATOM     16  N   UNL     1      47.319   3.370   5.663  0.00  0.00    +0.000 N 
ATOM     17  N   UNL     1      46.355   3.744   6.523  0.00  0.00    +0.000 NA
ATOM     18  H   UNL     1      47.558   4.001   4.903  0.00  0.00    +0.000 HD
ENDBRANCH  10  13
ENDBRANCH   8   9
ENDBRANCH   5   8
ENDBRANCH   1   2
BRANCH   1  19
ATOM     19  N   UNL     1      48.367   5.769  14.773  0.00  0.00    +0.000 N 
ATOM     20  C   UNL     1      48.973   6.725  15.546  0.00  0.00    +0.000 C 
ATOM     21  O   UNL     1      48.614   7.002  16.686  0.00  0.00    +0.000 OA
ATOM     22  H   UNL     1      48.553   5.792  13.776  0.00  0.00    +0.000 HD
BRANCH  20  23
ATOM     23  C   UNL     1      50.139   7.383  14.942  0.00  0.00    +0.000 A 
ATOM     24  C   UNL     1      51.366   7.378  15.590  0.00  0.00    +0.000 A 
ATOM     25  S   UNL     1      52.589   8.209  14.736  0.00  0.00    +0.000 S 
ATOM     26  C   UNL     1      51.509   8.639  13.496  0.00  0.00    +0.000 A 
ATOM     27  N   UNL     1      51.907   9.412  12.446  0.00  0.00    +0.000 NA
ATOM     28  C   UNL     1      50.975   9.678  11.595  0.00  0.00    +0.000 A 
ATOM     29  N   UNL     1      49.682   9.229  11.684  0.00  0.00    +0.000 N 
ATOM     30  C   UNL     1      49.247   8.413  12.698  0.00  0.00    +0.000 A 
ATOM     31  O   UNL     1      48.107   7.963  12.705  0.00  0.00    +0.000 OA
ATOM     32  C   UNL     1      50.247   8.116  13.705  0.00  0.00    +0.000 A 
ATOM     33  H   UNL     1      49.003   9.444  10.969  0.00  0.00    +0.000 HD
ENDBRANCH  20  23
ENDBRANCH   1  19
BRANCH   1  35
ATOM     34  C   UNL     1      47.159   3.796  17.374  0.00  0.00    +0.000 C 
ATOM     35  C   UNL     1      47.455   3.741  15.883  0.00  0.00    +0.000 C 
ENDBRANCH   1  35
TORSDOF 7
ENDMDL
MODEL 6
REMARK VINA RESULT:    -7.472      3.276      8.416
REMARK INTER + INTRA:         -11.425
REMARK INTER:                 -10.218
REMARK INTRA:                  -1.207
REMARK UNBOUND:                -0.895
REMARK  Name = 
REMARK  8 active torsions:
REMARK  status: ('A' for Active; 'I' for Inactive)
REMARK    1  A    between atoms: C_1  and  C_2
REMARK    2  A    between atoms: C_2  and  C_3
REMARK    3  A    between atoms: C_3  and  N_4
REMARK    4  A    between atoms: C_3  and  C_17
REMARK    5  A    between atoms: C_5  and  C_7
REMARK    6  A    between atoms: C_20  and  C_21
REMARK    7  A    between atoms: C_21  and  N_22
REMARK    8  A    between atoms: C_23  and  C_25
REMARK                            x       y       z     vdW  Elec       q    Type
REMARK                         _______ _______ _______ _____ _____    ______ ____
ROOT
ATOM      1  C   UNL     1      47.657   6.940  13.111  0.00  0.00    +0.000 C 
ENDROOT
BRANCH   1   2
ATOM      2  C   UNL     1      48.068   6.438  14.497  0.00  0.00    +0.000 A 
ATOM      3  C   UNL     1      49.022   7.128  15.258  0.00  0.00    +0.000 A 
ATOM      4  C   UNL     1      49.429   6.642  16.511  0.00  0.00    +0.000 A 
ATOM      5  C   UNL     1      48.892   5.457  17.032  0.00  0.00    +0.000 A 
ATOM      6  C   UNL     1      47.907   4.790  16.292  0.00  0.00    +0.000 A 
ATOM      7  C   UNL     1      47.506   5.271  15.041  0.00  0.00    +0.000 A 
BRANCH   5   8
ATOM      8  C   UNL     1      49.381   4.895  18.343  0.00  0.00    +0.000 C 
BRANCH   8   9
ATOM      9  N   UNL     1      50.118   3.671  18.196  0.00  0.00    +0.000 N 
ATOM     10  C   UNL     1      51.463   3.675  17.893  0.00  0.00    +0.000 C 
ATOM     11  O   UNL     1      52.110   4.702  17.710  0.00  0.00    +0.000 OA
ATOM     12  H   UNL     1      49.694   2.766  18.380  0.00  0.00    +0.000 HD
BRANCH  10  13
ATOM     13  C   UNL     1      52.063   2.331  17.799  0.00  0.00    +0.000 A 
ATOM     14  C   UNL     1      53.421   1.988  18.039  0.00  0.00    +0.000 A 
ATOM     15  C   UNL     1      53.501   0.635  17.815  0.00  0.00    +0.000 A 
ATOM     16  N   UNL     1      52.246   0.241  17.466  0.00  0.00    +0.000 N 
ATOM     17  N   UNL     1      51.345   1.239  17.457  0.00  0.00    +0.000 NA
ATOM     18  H   UNL     1      51.932  -0.693  17.221  0.00  0.00    +0.000 HD
ENDBRANCH  10  13
ENDBRANCH   8   9
ENDBRANCH   5   8
ENDBRANCH   1   2
BRANCH   1  19
ATOM     19  N   UNL     1      46.837   5.916  12.475  0.00  0.00    +0.000 N 
ATOM     20  C   UNL     1      45.468   5.949  12.401  0.00  0.00    +0.000 C 
ATOM     21  O   UNL     1      44.794   6.907  12.765  0.00  0.00    +0.000 OA
ATOM     22  H   UNL     1      47.283   5.008  12.404  0.00  0.00    +0.000 HD
BRANCH  20  23
ATOM     23  C   UNL     1      44.837   4.766  11.802  0.00  0.00    +0.000 A 
ATOM     24  C   UNL     1      44.046   3.923  12.572  0.00  0.00    +0.000 A 
ATOM     25  S   UNL     1      43.418   2.597  11.698  0.00  0.00    +0.000 S 
ATOM     26  C   UNL     1      44.216   3.081  10.279  0.00  0.00    +0.000 A 
ATOM     27  N   UNL     1      44.137   2.345   9.135  0.00  0.00    +0.000 NA
ATOM     28  C   UNL     1      44.813   2.820   8.144  0.00  0.00    +0.000 A 
ATOM     29  N   UNL     1      45.549   3.977   8.183  0.00  0.00    +0.000 N 
ATOM     30  C   UNL     1      45.622   4.774   9.297  0.00  0.00    +0.000 A 
ATOM     31  O   UNL     1      46.222   5.843   9.275  0.00  0.00    +0.000 OA
ATOM     32  C   UNL     1      44.912   4.263  10.453  0.00  0.00    +0.000 A 
ATOM     33  H   UNL     1      46.032   4.318   7.365  0.00  0.00    +0.000 HD
ENDBRANCH  20  23
ENDBRANCH   1  19
BRANCH   1  35
ATOM     34  C   UNL     1      48.845   8.725  11.700  0.00  0.00    +0.000 C 
ATOM     35  C   UNL     1      48.884   7.307  12.249  0.00  0.00    +0.000 C 
ENDBRANCH   1  35
TORSDOF 7
ENDMDL
MODEL 7
REMARK VINA RESULT:    -7.136      4.622      9.255
REMARK INTER + INTRA:         -10.952
REMARK INTER:                 -10.115
REMARK INTRA:                  -0.837
REMARK UNBOUND:                -0.895
REMARK  Name = 
REMARK  8 active torsions:
REMARK  status: ('A' for Active; 'I' for Inactive)
REMARK    1  A    between atoms: C_1  and  C_2
REMARK    2  A    between atoms: C_2  and  C_3
REMARK    3  A    between atoms: C_3  and  N_4
REMARK    4  A    between atoms: C_3  and  C_17
REMARK    5  A    between atoms: C_5  and  C_7
REMARK    6  A    between atoms: C_20  and  C_21
REMARK    7  A    between atoms: C_21  and  N_22
REMARK    8  A    between atoms: C_23  and  C_25
REMARK                            x       y       z     vdW  Elec       q    Type
REMARK                         _______ _______ _______ _____ _____    ______ ____
ROOT
ATOM      1  C   UNL     1      48.468   5.091  17.830  0.00  0.00    +0.000 C 
ENDROOT
BRANCH   1   2
ATOM      2  C   UNL     1      49.570   4.033  17.720  0.00  0.00    +0.000 A 
ATOM      3  C   UNL     1      50.885   4.322  18.111  0.00  0.00    +0.000 A 
ATOM      4  C   UNL     1      51.902   3.365  17.969  0.00  0.00    +0.000 A 
ATOM      5  C   UNL     1      51.629   2.099  17.433  0.00  0.00    +0.000 A 
ATOM      6  C   UNL     1      50.308   1.795  17.082  0.00  0.00    +0.000 A 
ATOM      7  C   UNL     1      49.295   2.750  17.218  0.00  0.00    +0.000 A 
BRANCH   5   8
ATOM      8  C   UNL     1      52.733   1.096  17.212  0.00  0.00    +0.000 C 
BRANCH   8   9
ATOM      9  N   UNL     1      52.800   0.090  18.236  0.00  0.00    +0.000 N 
ATOM     10  C   UNL     1      53.890  -0.746  18.351  0.00  0.00    +0.000 C 
ATOM     11  O   UNL     1      54.854  -0.706  17.591  0.00  0.00    +0.000 OA
ATOM     12  H   UNL     1      52.083   0.007  18.951  0.00  0.00    +0.000 HD
BRANCH  10  13
ATOM     13  C   UNL     1      53.798  -1.704  19.467  0.00  0.00    +0.000 A 
ATOM     14  C   UNL     1      54.878  -2.234  20.224  0.00  0.00    +0.000 A 
ATOM     15  C   UNL     1      54.304  -3.086  21.136  0.00  0.00    +0.000 A 
ATOM     16  N   UNL     1      52.964  -3.035  20.898  0.00  0.00    +0.000 N 
ATOM     17  N   UNL     1      52.619  -2.199  19.903  0.00  0.00    +0.000 NA
ATOM     18  H   UNL     1      52.227  -3.543  21.377  0.00  0.00    +0.000 HD
ENDBRANCH  10  13
ENDBRANCH   8   9
ENDBRANCH   5   8
ENDBRANCH   1   2
BRANCH   1  19
ATOM     19  N   UNL     1      47.866   5.267  16.513  0.00  0.00    +0.000 N 
ATOM     20  C   UNL     1      48.469   5.905  15.461  0.00  0.00    +0.000 C 
ATOM     21  O   UNL     1      49.631   6.298  15.483  0.00  0.00    +0.000 OA
ATOM     22  H   UNL     1      46.853   5.217  16.507  0.00  0.00    +0.000 HD
BRANCH  20  23
ATOM     23  C   UNL     1      47.645   6.055  14.254  0.00  0.00    +0.000 A 
ATOM     24  C   UNL     1      47.461   7.304  13.677  0.00  0.00    +0.000 A 
ATOM     25  S   UNL     1      46.459   7.272  12.295  0.00  0.00    +0.000 S 
ATOM     26  C   UNL     1      46.204   5.599  12.449  0.00  0.00    +0.000 A 
ATOM     27  N   UNL     1      45.386   4.925  11.592  0.00  0.00    +0.000 NA
ATOM     28  C   UNL     1      45.268   3.665  11.845  0.00  0.00    +0.000 A 
ATOM     29  N   UNL     1      45.908   3.008  12.865  0.00  0.00    +0.000 N 
ATOM     30  C   UNL     1      46.775   3.636  13.724  0.00  0.00    +0.000 A 
ATOM     31  O   UNL     1      47.393   3.005  14.574  0.00  0.00    +0.000 OA
ATOM     32  C   UNL     1      46.911   5.063  13.509  0.00  0.00    +0.000 A 
ATOM     33  H   UNL     1      45.803   2.013  12.994  0.00  0.00    +0.000 HD
ENDBRANCH  20  23
ENDBRANCH   1  19
BRANCH   1  35
ATOM     34  C   UNL     1      47.921   7.353  18.911  0.00  0.00    +0.000 C 
ATOM     35  C   UNL     1      49.008   6.422  18.395  0.00  0.00    +0.000 C 
ENDBRANCH   1  35
TORSDOF 7
ENDMDL
MODEL 8
REMARK VINA RESULT:    -7.114      2.919      4.109
REMARK INTER + INTRA:         -10.920
REMARK INTER:                  -9.693
REMARK INTRA:                  -1.227
REMARK UNBOUND:                -0.895
REMARK  Name = 
REMARK  8 active torsions:
REMARK  status: ('A' for Active; 'I' for Inactive)
REMARK    1  A    between atoms: C_1  and  C_2
REMARK    2  A    between atoms: C_2  and  C_3
REMARK    3  A    between atoms: C_3  and  N_4
REMARK    4  A    between atoms: C_3  and  C_17
REMARK    5  A    between atoms: C_5  and  C_7
REMARK    6  A    between atoms: C_20  and  C_21
REMARK    7  A    between atoms: C_21  and  N_22
REMARK    8  A    between atoms: C_23  and  C_25
REMARK                            x       y       z     vdW  Elec       q    Type
REMARK                         _______ _______ _______ _____ _____    ______ ____
ROOT
ATOM      1  C   UNL     1      47.168   5.466  14.899  0.00  0.00    +0.000 C 
ENDROOT
BRANCH   1   2
ATOM      2  C   UNL     1      46.349   5.185  13.636  0.00  0.00    +0.000 A 
ATOM      3  C   UNL     1      45.920   3.886  13.331  0.00  0.00    +0.000 A 
ATOM      4  C   UNL     1      45.207   3.623  12.151  0.00  0.00    +0.000 A 
ATOM      5  C   UNL     1      44.904   4.653  11.249  0.00  0.00    +0.000 A 
ATOM      6  C   UNL     1      45.294   5.958  11.574  0.00  0.00    +0.000 A 
ATOM      7  C   UNL     1      46.010   6.219  12.747  0.00  0.00    +0.000 A 
BRANCH   5   8
ATOM      8  C   UNL     1      44.202   4.362   9.947  0.00  0.00    +0.000 C 
BRANCH   8   9
ATOM      9  N   UNL     1      45.106   4.095   8.862  0.00  0.00    +0.000 N 
ATOM     10  C   UNL     1      45.450   2.806   8.515  0.00  0.00    +0.000 C 
ATOM     11  O   UNL     1      45.035   1.815   9.108  0.00  0.00    +0.000 OA
ATOM     12  H   UNL     1      45.465   4.839   8.270  0.00  0.00    +0.000 HD
BRANCH  10  13
ATOM     13  C   UNL     1      46.372   2.718   7.368  0.00  0.00    +0.000 A 
ATOM     14  C   UNL     1      47.296   1.672   7.099  0.00  0.00    +0.000 A 
ATOM     15  C   UNL     1      47.934   2.037   5.938  0.00  0.00    +0.000 A 
ATOM     16  N   UNL     1      47.390   3.232   5.576  0.00  0.00    +0.000 N 
ATOM     17  N   UNL     1      46.432   3.670   6.412  0.00  0.00    +0.000 NA
ATOM     18  H   UNL     1      47.625   3.804   4.771  0.00  0.00    +0.000 HD
ENDBRANCH  10  13
ENDBRANCH   8   9
ENDBRANCH   5   8
ENDBRANCH   1   2
BRANCH   1  19
ATOM     19  N   UNL     1      48.388   6.163  14.509  0.00  0.00    +0.000 N 
ATOM     20  C   UNL     1      48.852   7.310  15.100  0.00  0.00    +0.000 C 
ATOM     21  O   UNL     1      48.345   7.809  16.099  0.00  0.00    +0.000 OA
ATOM     22  H   UNL     1      48.692   5.975  13.561  0.00  0.00    +0.000 HD
BRANCH  20  23
ATOM     23  C   UNL     1      50.049   7.899  14.488  0.00  0.00    +0.000 A 
ATOM     24  C   UNL     1      49.938   8.737  13.386  0.00  0.00    +0.000 A 
ATOM     25  S   UNL     1      51.443   9.304  12.811  0.00  0.00    +0.000 S 
ATOM     26  C   UNL     1      52.291   8.416  13.985  0.00  0.00    +0.000 A 
ATOM     27  N   UNL     1      53.653   8.418  14.028  0.00  0.00    +0.000 NA
ATOM     28  C   UNL     1      54.160   7.680  14.956  0.00  0.00    +0.000 A 
ATOM     29  N   UNL     1      53.433   6.950  15.862  0.00  0.00    +0.000 N 
ATOM     30  C   UNL     1      52.061   6.952  15.884  0.00  0.00    +0.000 A 
ATOM     31  O   UNL     1      51.440   6.353  16.756  0.00  0.00    +0.000 OA
ATOM     32  C   UNL     1      51.440   7.735  14.834  0.00  0.00    +0.000 A 
ATOM     33  H   UNL     1      53.885   6.416  16.588  0.00  0.00    +0.000 HD
ENDBRANCH  20  23
ENDBRANCH   1  19
BRANCH   1  35
ATOM     34  C   UNL     1      47.583   4.376  17.185  0.00  0.00    +0.000 C 
ATOM     35  C   UNL     1      47.473   4.171  15.681  0.00  0.00    +0.000 C 
ENDBRANCH   1  35
TORSDOF 7
ENDMDL
MODEL 9
REMARK VINA RESULT:    -6.917      4.472      9.109
REMARK INTER + INTRA:         -10.643
REMARK INTER:                 -10.050
REMARK INTRA:                  -0.593
REMARK UNBOUND:                -0.895
REMARK  Name = 
REMARK  8 active torsions:
REMARK  status: ('A' for Active; 'I' for Inactive)
REMARK    1  A    between atoms: C_1  and  C_2
REMARK    2  A    between atoms: C_2  and  C_3
REMARK    3  A    between atoms: C_3  and  N_4
REMARK    4  A    between atoms: C_3  and  C_17
REMARK    5  A    between atoms: C_5  and  C_7
REMARK    6  A    between atoms: C_20  and  C_21
REMARK    7  A    between atoms: C_21  and  N_22
REMARK    8  A    between atoms: C_23  and  C_25
REMARK                            x       y       z     vdW  Elec       q    Type
REMARK                         _______ _______ _______ _____ _____    ______ ____
ROOT
ATOM      1  C   UNL     1      47.585   4.519  17.350  0.00  0.00    +0.000 C 
ENDROOT
BRANCH   1   2
ATOM      2  C   UNL     1      49.078   4.182  17.399  0.00  0.00    +0.000 A 
ATOM      3  C   UNL     1      49.511   2.855  17.523  0.00  0.00    +0.000 A 
ATOM      4  C   UNL     1      50.879   2.551  17.611  0.00  0.00    +0.000 A 
ATOM      5  C   UNL     1      51.845   3.567  17.576  0.00  0.00    +0.000 A 
ATOM      6  C   UNL     1      51.415   4.889  17.409  0.00  0.00    +0.000 A 
ATOM      7  C   UNL     1      50.052   5.192  17.327  0.00  0.00    +0.000 A 
BRANCH   5   8
ATOM      8  C   UNL     1      53.309   3.250  17.744  0.00  0.00    +0.000 C 
BRANCH   8   9
ATOM      9  N   UNL     1      53.613   1.857  17.562  0.00  0.00    +0.000 N 
ATOM     10  C   UNL     1      54.078   1.082  18.603  0.00  0.00    +0.000 C 
ATOM     11  O   UNL     1      54.280   1.521  19.732  0.00  0.00    +0.000 OA
ATOM     12  H   UNL     1      53.430   1.380  16.684  0.00  0.00    +0.000 HD
BRANCH  10  13
ATOM     13  C   UNL     1      54.319  -0.327  18.243  0.00  0.00    +0.000 A 
ATOM     14  C   UNL     1      55.125  -0.806  17.175  0.00  0.00    +0.000 A 
ATOM     15  C   UNL     1      55.032  -2.175  17.232  0.00  0.00    +0.000 A 
ATOM     16  N   UNL     1      54.211  -2.448  18.283  0.00  0.00    +0.000 N 
ATOM     17  N   UNL     1      53.769  -1.354  18.928  0.00  0.00    +0.000 NA
ATOM     18  H   UNL     1      53.910  -3.359  18.618  0.00  0.00    +0.000 HD
ENDBRANCH  10  13
ENDBRANCH   8   9
ENDBRANCH   5   8
ENDBRANCH   1   2
BRANCH   1  19
ATOM     19  N   UNL     1      47.287   5.099  16.045  0.00  0.00    +0.000 N 
ATOM     20  C   UNL     1      47.297   4.403  14.864  0.00  0.00    +0.000 C 
ATOM     21  O   UNL     1      47.449   3.188  14.795  0.00  0.00    +0.000 OA
ATOM     22  H   UNL     1      47.420   6.103  15.994  0.00  0.00    +0.000 HD
BRANCH  20  23
ATOM     23  C   UNL     1      47.062   5.204  13.656  0.00  0.00    +0.000 A 
ATOM     24  C   UNL     1      47.707   6.422  13.480  0.00  0.00    +0.000 A 
ATOM     25  S   UNL     1      47.289   7.207  12.023  0.00  0.00    +0.000 S 
ATOM     26  C   UNL     1      46.203   5.970  11.601  0.00  0.00    +0.000 A 
ATOM     27  N   UNL     1      45.458   6.039  10.462  0.00  0.00    +0.000 NA
ATOM     28  C   UNL     1      44.660   5.041  10.284  0.00  0.00    +0.000 A 
ATOM     29  N   UNL     1      44.548   3.967  11.130  0.00  0.00    +0.000 N 
ATOM     30  C   UNL     1      45.308   3.833  12.264  0.00  0.00    +0.000 A 
ATOM     31  O   UNL     1      45.243   2.823  12.956  0.00  0.00    +0.000 OA
ATOM     32  C   UNL     1      46.194   4.949  12.533  0.00  0.00    +0.000 A 
ATOM     33  H   UNL     1      43.928   3.199  10.921  0.00  0.00    +0.000 HD
ENDBRANCH  20  23
ENDBRANCH   1  19
BRANCH   1  35
ATOM     34  C   UNL     1      47.898   5.179  19.810  0.00  0.00    +0.000 C 
ATOM     35  C   UNL     1      47.174   5.461  18.502  0.00  0.00    +0.000 C 
ENDBRANCH   1  35
TORSDOF 7
ENDMDL
