MODEL 1
REMARK VINA RESULT:    -7.027      0.000      0.000
REMARK INTER + INTRA:         -10.892
REMARK INTER:                  -9.697
REMARK INTRA:                  -1.195
REMARK UNBOUND:                -1.195
REMARK  Name = 
REMARK  7 active torsions:
REMARK  status: ('A' for Active; 'I' for Inactive)
REMARK    1  A    between atoms: N_1  and  C_2
REMARK    2  A    between atoms: C_2  and  C_3
REMARK    3  A    between atoms: C_6  and  C_7
REMARK    4  A    between atoms: C_7  and  C_8
REMARK    5  A    between atoms: C_11  and  C_12
REMARK    6  A    between atoms: C_12  and  N_13
REMARK    7  A    between atoms: C_14  and  C_16
REMARK                            x       y       z     vdW  Elec       q    Type
REMARK                         _______ _______ _______ _____ _____    ______ ____
ROOT
ATOM      1  C   UNL     1      49.364   7.834  15.732  0.00  0.00    +0.000 A 
ATOM      2  C   UNL     1      48.310   8.735  15.539  0.00  0.00    +0.000 A 
ATOM      3  C   UNL     1      47.590   8.757  14.340  0.00  0.00    +0.000 A 
ATOM      4  C   UNL     1      47.937   7.906  13.284  0.00  0.00    +0.000 A 
ATOM      5  C   UNL     1      49.050   7.070  13.443  0.00  0.00    +0.000 A 
ATOM      6  C   UNL     1      49.747   7.018  14.660  0.00  0.00    +0.000 A 
ENDROOT
BRANCH   1   7
ATOM      7  C   UNL     1      50.043   7.750  17.082  0.00  0.00    +0.000 C 
BRANCH   7  11
ATOM      8  C   UNL     1      48.774   3.590  17.971  0.00  0.00    +0.000 C 
ATOM      9  C   UNL     1      50.261   3.942  18.094  0.00  0.00    +0.000 C 
ATOM     10  C   UNL     1      50.623   5.253  17.392  0.00  0.00    +0.000 C 
ATOM     11  C   UNL     1      49.775   6.444  17.878  0.00  0.00    +0.000 C 
ATOM     12  C   UNL     1      48.274   6.099  17.795  0.00  0.00    +0.000 C 
ATOM     13  C   UNL     1      47.928   4.772  18.472  0.00  0.00    +0.000 C 
BRANCH   8  14
ATOM     14  C   UNL     1      48.368   3.150  16.547  0.00  0.00    +0.000 C 
BRANCH  14  15
ATOM     15  N   UNL     1      49.160   2.024  16.054  0.00  0.00    +0.000 NA
ATOM     16  H   UNL     1      50.126   2.120  16.366  0.00  0.00    +0.000 HD
ATOM     17  H   UNL     1      48.822   1.151  16.460  0.00  0.00    +0.000 HD
ENDBRANCH  14  15
ENDBRANCH   8  14
ENDBRANCH   7  11
ENDBRANCH   1   7
BRANCH   4  18
ATOM     18  C   UNL     1      47.145   7.899  11.998  0.00  0.00    +0.000 C 
BRANCH  18  19
ATOM     19  N   UNL     1      46.542   6.618  11.753  0.00  0.00    +0.000 N 
ATOM     20  C   UNL     1      45.190   6.475  11.546  0.00  0.00    +0.000 C 
ATOM     21  O   UNL     1      44.422   7.431  11.535  0.00  0.00    +0.000 OA
ATOM     22  H   UNL     1      47.082   5.802  12.025  0.00  0.00    +0.000 HD
BRANCH  20  23
ATOM     23  C   UNL     1      44.725   5.109  11.272  0.00  0.00    +0.000 A 
ATOM     24  C   UNL     1      43.933   4.444  12.199  0.00  0.00    +0.000 A 
ATOM     25  S   UNL     1      43.451   2.887  11.694  0.00  0.00    +0.000 S 
ATOM     26  C   UNL     1      44.331   3.023  10.244  0.00  0.00    +0.000 A 
ATOM     27  N   UNL     1      44.370   1.999   9.350  0.00  0.00    +0.000 NA
ATOM     28  C   UNL     1      45.097   2.230   8.307  0.00  0.00    +0.000 A 
ATOM     29  N   UNL     1      45.774   3.398   8.071  0.00  0.00    +0.000 N 
ATOM     30  C   UNL     1      45.726   4.474   8.922  0.00  0.00    +0.000 A 
ATOM     31  O   UNL     1      46.290   5.533   8.646  0.00  0.00    +0.000 OA
ATOM     32  C   UNL     1      44.951   4.254  10.132  0.00  0.00    +0.000 A 
ATOM     33  H   UNL     1      46.306   3.526   7.222  0.00  0.00    +0.000 HD
ENDBRANCH  20  23
ENDBRANCH  18  19
ENDBRANCH   4  18
TORSDOF 7
ENDMDL
MODEL 2
REMARK VINA RESULT:    -6.823      4.085      8.855
REMARK INTER + INTRA:         -10.611
REMARK INTER:                  -9.879
REMARK INTRA:                  -0.732
REMARK UNBOUND:                -1.195
REMARK  Name = 
REMARK  7 active torsions:
REMARK  status: ('A' for Active; 'I' for Inactive)
REMARK    1  A    between atoms: N_1  and  C_2
REMARK    2  A    between atoms: C_2  and  C_3
REMARK    3  A    between atoms: C_6  and  C_7
REMARK    4  A    between atoms: C_7  and  C_8
REMARK    5  A    between atoms: C_11  and  C_12
REMARK    6  A    between atoms: C_12  and  N_13
REMARK    7  A    between atoms: C_14  and  C_16
REMARK                            x       y       z     vdW  Elec       q    Type
REMARK                         _______ _______ _______ _____ _____    ______ ____
ROOT
ATOM      1  C   UNL     1      47.258   5.626  13.585  0.00  0.00    +0.000 A 
ATOM      2  C   UNL     1      46.914   4.271  13.669  0.00  0.00    +0.000 A 
ATOM      3  C   UNL     1      47.062   3.561  14.865  0.00  0.00    +0.000 A 
ATOM      4  C   UNL     1      47.603   4.180  15.998  0.00  0.00    +0.000 A 
ATOM      5  C   UNL     1      48.034   5.509  15.888  0.00  0.00    +0.000 A 
ATOM      6  C   UNL     1      47.846   6.233  14.701  0.00  0.00    +0.000 A 
ENDROOT
BRANCH   1   7
ATOM      7  C   UNL     1      46.971   6.397  12.315  0.00  0.00    +0.000 C 
BRANCH   7  11
ATOM      8  C   UNL     1      43.096   4.528  11.216  0.00  0.00    +0.000 C 
ATOM      9  C   UNL     1      43.098   5.636  12.276  0.00  0.00    +0.000 C 
ATOM     10  C   UNL     1      44.490   5.911  12.848  0.00  0.00    +0.000 C 
ATOM     11  C   UNL     1      45.528   6.244  11.760  0.00  0.00    +0.000 C 
ATOM     12  C   UNL     1      45.520   5.159  10.663  0.00  0.00    +0.000 C 
ATOM     13  C   UNL     1      44.119   4.870  10.121  0.00  0.00    +0.000 C 
BRANCH   8  14
ATOM     14  C   UNL     1      43.329   3.120  11.807  0.00  0.00    +0.000 C 
BRANCH  14  15
ATOM     15  N   UNL     1      43.686   2.131  10.790  0.00  0.00    +0.000 NA
ATOM     16  H   UNL     1      42.877   1.547  10.579  0.00  0.00    +0.000 HD
ATOM     17  H   UNL     1      43.928   2.596   9.916  0.00  0.00    +0.000 HD
ENDBRANCH  14  15
ENDBRANCH   8  14
ENDBRANCH   7  11
ENDBRANCH   1   7
BRANCH   4  18
ATOM     18  C   UNL     1      47.737   3.431  17.303  0.00  0.00    +0.000 C 
BRANCH  18  19
ATOM     19  N   UNL     1      49.114   3.216  17.652  0.00  0.00    +0.000 N 
ATOM     20  C   UNL     1      49.887   2.270  17.021  0.00  0.00    +0.000 C 
ATOM     21  O   UNL     1      49.457   1.569  16.111  0.00  0.00    +0.000 OA
ATOM     22  H   UNL     1      49.414   3.566  18.557  0.00  0.00    +0.000 HD
BRANCH  20  23
ATOM     23  C   UNL     1      51.287   2.190  17.460  0.00  0.00    +0.000 A 
ATOM     24  C   UNL     1      51.874   0.954  17.695  0.00  0.00    +0.000 A 
ATOM     25  S   UNL     1      53.515   1.053  18.154  0.00  0.00    +0.000 S 
ATOM     26  C   UNL     1      53.483   2.753  18.112  0.00  0.00    +0.000 A 
ATOM     27  N   UNL     1      54.582   3.483  18.441  0.00  0.00    +0.000 NA
ATOM     28  C   UNL     1      54.408   4.762  18.390  0.00  0.00    +0.000 A 
ATOM     29  N   UNL     1      53.237   5.376  18.025  0.00  0.00    +0.000 N 
ATOM     30  C   UNL     1      52.118   4.681  17.642  0.00  0.00    +0.000 A 
ATOM     31  O   UNL     1      51.106   5.265  17.253  0.00  0.00    +0.000 OA
ATOM     32  C   UNL     1      52.249   3.235  17.716  0.00  0.00    +0.000 A 
ATOM     33  H   UNL     1      53.173   6.383  17.981  0.00  0.00    +0.000 HD
ENDBRANCH  20  23
ENDBRANCH  18  19
ENDBRANCH   4  18
TORSDOF 7
ENDMDL
MODEL 3
REMARK VINA RESULT:    -6.802      4.302      8.828
REMARK INTER + INTRA:         -10.582
REMARK INTER:                 -10.013
REMARK INTRA:                  -0.569
REMARK UNBOUND:                -1.195
REMARK  Name = 
REMARK  7 active torsions:
REMARK  status: ('A' for Active; 'I' for Inactive)
REMARK    1  A    between atoms: N_1  and  C_2
REMARK    2  A    between atoms: C_2  and  C_3
REMARK    3  A    between atoms: C_6  and  C_7
REMARK    4  A    between atoms: C_7  and  C_8
REMARK    5  A    between atoms: C_11  and  C_12
REMARK    6  A    between atoms: C_12  and  N_13
REMARK    7  A    between atoms: C_14  and  C_16
REMARK                            x       y       z     vdW  Elec       q    Type
REMARK                         _______ _______ _______ _____ _____    ______ ____
ROOT
ATOM      1  C   UNL     1      47.240   6.110  13.154  0.00  0.00    +0.000 A 
ATOM      2  C   UNL     1      46.875   4.836  13.607  0.00  0.00    +0.000 A 
ATOM      3  C   UNL     1      47.206   4.407  14.897  0.00  0.00    +0.000 A 
ATOM      4  C   UNL     1      47.950   5.227  15.752  0.00  0.00    +0.000 A 
ATOM      5  C   UNL     1      48.396   6.464  15.266  0.00  0.00    +0.000 A 
ATOM      6  C   UNL     1      48.029   6.911  13.987  0.00  0.00    +0.000 A 
ENDROOT
BRANCH   1   7
ATOM      7  C   UNL     1      46.763   6.591  11.801  0.00  0.00    +0.000 C 
BRANCH   7  11
ATOM      8  C   UNL     1      42.989   4.275  11.475  0.00  0.00    +0.000 C 
ATOM      9  C   UNL     1      43.000   5.534  12.351  0.00  0.00    +0.000 C 
ATOM     10  C   UNL     1      44.414   6.003  12.701  0.00  0.00    +0.000 C 
ATOM     11  C   UNL     1      45.289   6.240  11.456  0.00  0.00    +0.000 C 
ATOM     12  C   UNL     1      45.266   4.998  10.542  0.00  0.00    +0.000 C 
ATOM     13  C   UNL     1      43.848   4.518  10.224  0.00  0.00    +0.000 C 
BRANCH   8  14
ATOM     14  C   UNL     1      43.419   3.001  12.234  0.00  0.00    +0.000 C 
BRANCH  14  15
ATOM     15  N   UNL     1      42.970   1.772  11.579  0.00  0.00    +0.000 NA
ATOM     16  H   UNL     1      42.517   1.164  12.262  0.00  0.00    +0.000 HD
ATOM     17  H   UNL     1      42.259   1.985  10.881  0.00  0.00    +0.000 HD
ENDBRANCH  14  15
ENDBRANCH   8  14
ENDBRANCH   7  11
ENDBRANCH   1   7
BRANCH   4  18
ATOM     18  C   UNL     1      48.284   4.786  17.158  0.00  0.00    +0.000 C 
BRANCH  18  19
ATOM     19  N   UNL     1      49.655   4.373  17.272  0.00  0.00    +0.000 N 
ATOM     20  C   UNL     1      50.328   4.400  18.471  0.00  0.00    +0.000 C 
ATOM     21  O   UNL     1      49.794   4.756  19.517  0.00  0.00    +0.000 OA
ATOM     22  H   UNL     1      50.194   4.342  16.412  0.00  0.00    +0.000 HD
BRANCH  20  23
ATOM     23  C   UNL     1      51.714   3.913  18.439  0.00  0.00    +0.000 A 
ATOM     24  C   UNL     1      52.746   4.723  18.895  0.00  0.00    +0.000 A 
ATOM     25  S   UNL     1      54.281   3.977  18.825  0.00  0.00    +0.000 S 
ATOM     26  C   UNL     1      53.627   2.569  18.128  0.00  0.00    +0.000 A 
ATOM     27  N   UNL     1      54.425   1.525  17.778  0.00  0.00    +0.000 NA
ATOM     28  C   UNL     1      53.799   0.533  17.238  0.00  0.00    +0.000 A 
ATOM     29  N   UNL     1      52.445   0.486  17.029  0.00  0.00    +0.000 N 
ATOM     30  C   UNL     1      51.596   1.495  17.406  0.00  0.00    +0.000 A 
ATOM     31  O   UNL     1      50.377   1.390  17.268  0.00  0.00    +0.000 OA
ATOM     32  C   UNL     1      52.254   2.654  17.989  0.00  0.00    +0.000 A 
ATOM     33  H   UNL     1      52.012  -0.332  16.622  0.00  0.00    +0.000 HD
ENDBRANCH  20  23
ENDBRANCH  18  19
ENDBRANCH   4  18
TORSDOF 7
ENDMDL
MODEL 4
REMARK VINA RESULT:    -6.738      3.637      8.952
REMARK INTER + INTRA:         -10.494
REMARK INTER:                  -9.582
REMARK INTRA:                  -0.911
REMARK UNBOUND:                -1.195
REMARK  Name = 
REMARK  7 active torsions:
REMARK  status: ('A' for Active; 'I' for Inactive)
REMARK    1  A    between atoms: N_1  and  C_2
REMARK    2  A    between atoms: C_2  and  C_3
REMARK    3  A    between atoms: C_6  and  C_7
REMARK    4  A    between atoms: C_7  and  C_8
REMARK    5  A    between atoms: C_11  and  C_12
REMARK    6  A    between atoms: C_12  and  N_13
REMARK    7  A    between atoms: C_14  and  C_16
REMARK                            x       y       z     vdW  Elec       q    Type
REMARK                         _______ _______ _______ _____ _____    ______ ____
ROOT
ATOM      1  C   UNL     1      45.138   4.965  11.746  0.00  0.00    +0.000 A 
ATOM      2  C   UNL     1      45.653   4.349  12.893  0.00  0.00    +0.000 A 
ATOM      3  C   UNL     1      46.746   4.893  13.575  0.00  0.00    +0.000 A 
ATOM      4  C   UNL     1      47.382   6.045  13.100  0.00  0.00    +0.000 A 
ATOM      5  C   UNL     1      46.926   6.609  11.900  0.00  0.00    +0.000 A 
ATOM      6  C   UNL     1      45.803   6.088  11.239  0.00  0.00    +0.000 A 
ENDROOT
BRANCH   1   7
ATOM      7  C   UNL     1      43.880   4.423  11.102  0.00  0.00    +0.000 C 
BRANCH   7  11
ATOM      8  C   UNL     1      45.808   2.660   7.513  0.00  0.00    +0.000 C 
ATOM      9  C   UNL     1      45.627   1.776   8.753  0.00  0.00    +0.000 C 
ATOM     10  C   UNL     1      45.333   2.581  10.021  0.00  0.00    +0.000 C 
ATOM     11  C   UNL     1      44.110   3.506   9.870  0.00  0.00    +0.000 C 
ATOM     12  C   UNL     1      44.254   4.381   8.608  0.00  0.00    +0.000 C 
ATOM     13  C   UNL     1      44.580   3.570   7.353  0.00  0.00    +0.000 C 
BRANCH   8  14
ATOM     14  C   UNL     1      47.127   3.464   7.525  0.00  0.00    +0.000 C 
BRANCH  14  15
ATOM     15  N   UNL     1      48.109   2.958   6.567  0.00  0.00    +0.000 NA
ATOM     16  H   UNL     1      48.967   3.506   6.631  0.00  0.00    +0.000 HD
ATOM     17  H   UNL     1      48.371   2.002   6.803  0.00  0.00    +0.000 HD
ENDBRANCH  14  15
ENDBRANCH   8  14
ENDBRANCH   7  11
ENDBRANCH   1   7
BRANCH   4  18
ATOM     18  C   UNL     1      48.543   6.658  13.847  0.00  0.00    +0.000 C 
BRANCH  18  19
ATOM     19  N   UNL     1      48.247   6.821  15.243  0.00  0.00    +0.000 N 
ATOM     20  C   UNL     1      49.185   6.584  16.221  0.00  0.00    +0.000 C 
ATOM     21  O   UNL     1      50.333   6.241  15.960  0.00  0.00    +0.000 OA
ATOM     22  H   UNL     1      47.265   6.830  15.502  0.00  0.00    +0.000 HD
BRANCH  20  23
ATOM     23  C   UNL     1      48.747   6.829  17.601  0.00  0.00    +0.000 A 
ATOM     24  C   UNL     1      48.372   8.107  17.996  0.00  0.00    +0.000 A 
ATOM     25  S   UNL     1      47.849   8.195  19.619  0.00  0.00    +0.000 S 
ATOM     26  C   UNL     1      48.161   6.541  19.868  0.00  0.00    +0.000 A 
ATOM     27  N   UNL     1      47.957   5.966  21.083  0.00  0.00    +0.000 NA
ATOM     28  C   UNL     1      48.259   4.710  21.135  0.00  0.00    +0.000 A 
ATOM     29  N   UNL     1      48.733   3.977  20.078  0.00  0.00    +0.000 N 
ATOM     30  C   UNL     1      48.911   4.505  18.824  0.00  0.00    +0.000 A 
ATOM     31  O   UNL     1      49.271   3.801  17.881  0.00  0.00    +0.000 OA
ATOM     32  C   UNL     1      48.619   5.925  18.718  0.00  0.00    +0.000 A 
ATOM     33  H   UNL     1      48.927   2.991  20.178  0.00  0.00    +0.000 HD
ENDBRANCH  20  23
ENDBRANCH  18  19
ENDBRANCH   4  18
TORSDOF 7
ENDMDL
MODEL 5
REMARK VINA RESULT:    -6.458      3.337      5.268
REMARK INTER + INTRA:         -10.107
REMARK INTER:                  -9.127
REMARK INTRA:                  -0.980
REMARK UNBOUND:                -1.195
REMARK  Name = 
REMARK  7 active torsions:
REMARK  status: ('A' for Active; 'I' for Inactive)
REMARK    1  A    between atoms: N_1  and  C_2
REMARK    2  A    between atoms: C_2  and  C_3
REMARK    3  A    between atoms: C_6  and  C_7
REMARK    4  A    between atoms: C_7  and  C_8
REMARK    5  A    between atoms: C_11  and  C_12
REMARK    6  A    between atoms: C_12  and  N_13
REMARK    7  A    between atoms: C_14  and  C_16
REMARK                            x       y       z     vdW  Elec       q    Type
REMARK                         _______ _______ _______ _____ _____    ______ ____
ROOT
ATOM      1  C   UNL     1      49.510   5.638  19.656  0.00  0.00    +0.000 A 
ATOM      2  C   UNL     1      49.668   6.071  18.334  0.00  0.00    +0.000 A 
ATOM      3  C   UNL     1      49.051   5.396  17.275  0.00  0.00    +0.000 A 
ATOM      4  C   UNL     1      48.295   4.242  17.509  0.00  0.00    +0.000 A 
ATOM      5  C   UNL     1      48.215   3.755  18.821  0.00  0.00    +0.000 A 
ATOM      6  C   UNL     1      48.798   4.455  19.888  0.00  0.00    +0.000 A 
ENDROOT
BRANCH   1   7
ATOM      7  C   UNL     1      50.087   6.459  20.789  0.00  0.00    +0.000 C 
BRANCH   7  11
ATOM      8  C   UNL     1      47.929  10.256  19.987  0.00  0.00    +0.000 C 
ATOM      9  C   UNL     1      47.233   9.185  20.835  0.00  0.00    +0.000 C 
ATOM     10  C   UNL     1      47.885   7.806  20.707  0.00  0.00    +0.000 C 
ATOM     11  C   UNL     1      49.388   7.823  21.041  0.00  0.00    +0.000 C 
ATOM     12  C   UNL     1      50.105   8.918  20.223  0.00  0.00    +0.000 C 
ATOM     13  C   UNL     1      49.427  10.284  20.333  0.00  0.00    +0.000 C 
BRANCH   8  14
ATOM     14  C   UNL     1      47.689  10.083  18.471  0.00  0.00    +0.000 C 
BRANCH  14  15
ATOM     15  N   UNL     1      47.504  11.358  17.778  0.00  0.00    +0.000 NA
ATOM     16  H   UNL     1      46.510  11.520  17.617  0.00  0.00    +0.000 HD
ATOM     17  H   UNL     1      47.819  12.128  18.366  0.00  0.00    +0.000 HD
ENDBRANCH  14  15
ENDBRANCH   8  14
ENDBRANCH   7  11
ENDBRANCH   1   7
BRANCH   4  18
ATOM     18  C   UNL     1      47.599   3.525  16.377  0.00  0.00    +0.000 C 
BRANCH  18  19
ATOM     19  N   UNL     1      46.914   4.443  15.510  0.00  0.00    +0.000 N 
ATOM     20  C   UNL     1      46.870   4.266  14.147  0.00  0.00    +0.000 C 
ATOM     21  O   UNL     1      47.393   3.305  13.592  0.00  0.00    +0.000 OA
ATOM     22  H   UNL     1      46.719   5.366  15.888  0.00  0.00    +0.000 HD
BRANCH  20  23
ATOM     23  C   UNL     1      46.102   5.267  13.395  0.00  0.00    +0.000 A 
ATOM     24  C   UNL     1      46.586   6.562  13.265  0.00  0.00    +0.000 A 
ATOM     25  S   UNL     1      45.585   7.575  12.323  0.00  0.00    +0.000 S 
ATOM     26  C   UNL     1      44.441   6.334  12.105  0.00  0.00    +0.000 A 
ATOM     27  N   UNL     1      43.296   6.553  11.404  0.00  0.00    +0.000 NA
ATOM     28  C   UNL     1      42.507   5.532  11.340  0.00  0.00    +0.000 A 
ATOM     29  N   UNL     1      42.767   4.308  11.901  0.00  0.00    +0.000 N 
ATOM     30  C   UNL     1      43.928   4.029  12.577  0.00  0.00    +0.000 A 
ATOM     31  O   UNL     1      44.161   2.899  13.007  0.00  0.00    +0.000 OA
ATOM     32  C   UNL     1      44.837   5.156  12.710  0.00  0.00    +0.000 A 
ATOM     33  H   UNL     1      42.119   3.541  11.793  0.00  0.00    +0.000 HD
ENDBRANCH  20  23
ENDBRANCH  18  19
ENDBRANCH   4  18
TORSDOF 7
ENDMDL
MODEL 6
REMARK VINA RESULT:    -6.392      3.936      8.140
REMARK INTER + INTRA:         -10.016
REMARK INTER:                  -8.996
REMARK INTRA:                  -1.020
REMARK UNBOUND:                -1.195
REMARK  Name = 
REMARK  7 active torsions:
REMARK  status: ('A' for Active; 'I' for Inactive)
REMARK    1  A    between atoms: N_1  and  C_2
REMARK    2  A    between atoms: C_2  and  C_3
REMARK    3  A    between atoms: C_6  and  C_7
REMARK    4  A    between atoms: C_7  and  C_8
REMARK    5  A    between atoms: C_11  and  C_12
REMARK    6  A    between atoms: C_12  and  N_13
REMARK    7  A    between atoms: C_14  and  C_16
REMARK                            x       y       z     vdW  Elec       q    Type
REMARK                         _______ _______ _______ _____ _____    ______ ____
ROOT
ATOM      1  C   UNL     1      47.949   7.780  13.114  0.00  0.00    +0.000 A 
ATOM      2  C   UNL     1      49.130   7.080  13.387  0.00  0.00    +0.000 A 
ATOM      3  C   UNL     1      49.808   7.251  14.598  0.00  0.00    +0.000 A 
ATOM      4  C   UNL     1      49.343   8.165  15.551  0.00  0.00    +0.000 A 
ATOM      5  C   UNL     1      48.214   8.935  15.239  0.00  0.00    +0.000 A 
ATOM      6  C   UNL     1      47.511   8.732  14.042  0.00  0.00    +0.000 A 
ENDROOT
BRANCH   1   7
ATOM      7  C   UNL     1      47.174   7.482  11.848  0.00  0.00    +0.000 C 
BRANCH   7  11
ATOM      8  C   UNL     1      44.170   4.212  11.832  0.00  0.00    +0.000 C 
ATOM      9  C   UNL     1      44.954   4.491  10.544  0.00  0.00    +0.000 C 
ATOM     10  C   UNL     1      45.644   5.857  10.549  0.00  0.00    +0.000 C 
ATOM     11  C   UNL     1      46.571   6.053  11.763  0.00  0.00    +0.000 C 
ATOM     12  C   UNL     1      45.812   5.745  13.070  0.00  0.00    +0.000 C 
ATOM     13  C   UNL     1      45.101   4.391  13.042  0.00  0.00    +0.000 C 
BRANCH   8  14
ATOM     14  C   UNL     1      42.886   5.061  11.959  0.00  0.00    +0.000 C 
BRANCH  14  15
ATOM     15  N   UNL     1      42.567   5.402  13.345  0.00  0.00    +0.000 NA
ATOM     16  H   UNL     1      43.390   5.266  13.931  0.00  0.00    +0.000 HD
ATOM     17  H   UNL     1      42.333   6.391  13.420  0.00  0.00    +0.000 HD
ENDBRANCH  14  15
ENDBRANCH   8  14
ENDBRANCH   7  11
ENDBRANCH   1   7
BRANCH   4  18
ATOM     18  C   UNL     1      50.049   8.334  16.876  0.00  0.00    +0.000 C 
BRANCH  18  19
ATOM     19  N   UNL     1      50.895   7.212  17.172  0.00  0.00    +0.000 N 
ATOM     20  C   UNL     1      50.532   6.243  18.078  0.00  0.00    +0.000 C 
ATOM     21  O   UNL     1      49.458   6.266  18.670  0.00  0.00    +0.000 OA
ATOM     22  H   UNL     1      51.876   7.304  16.924  0.00  0.00    +0.000 HD
BRANCH  20  23
ATOM     23  C   UNL     1      51.484   5.138  18.250  0.00  0.00    +0.000 A 
ATOM     24  C   UNL     1      52.725   5.371  18.828  0.00  0.00    +0.000 A 
ATOM     25  S   UNL     1      53.680   3.964  18.987  0.00  0.00    +0.000 S 
ATOM     26  C   UNL     1      52.492   3.005  18.236  0.00  0.00    +0.000 A 
ATOM     27  N   UNL     1      52.696   1.677  18.023  0.00  0.00    +0.000 NA
ATOM     28  C   UNL     1      51.722   1.079  17.421  0.00  0.00    +0.000 A 
ATOM     29  N   UNL     1      50.558   1.685  17.026  0.00  0.00    +0.000 N 
ATOM     30  C   UNL     1      50.290   3.011  17.261  0.00  0.00    +0.000 A 
ATOM     31  O   UNL     1      49.206   3.507  16.956  0.00  0.00    +0.000 OA
ATOM     32  C   UNL     1      51.370   3.741  17.905  0.00  0.00    +0.000 A 
ATOM     33  H   UNL     1      49.823   1.155  16.581  0.00  0.00    +0.000 HD
ENDBRANCH  20  23
ENDBRANCH  18  19
ENDBRANCH   4  18
TORSDOF 7
ENDMDL
MODEL 7
REMARK VINA RESULT:    -6.377      3.719      5.480
REMARK INTER + INTRA:          -9.996
REMARK INTER:                 -10.507
REMARK INTRA:                   0.511
REMARK UNBOUND:                -1.195
REMARK  Name = 
REMARK  7 active torsions:
REMARK  status: ('A' for Active; 'I' for Inactive)
REMARK    1  A    between atoms: N_1  and  C_2
REMARK    2  A    between atoms: C_2  and  C_3
REMARK    3  A    between atoms: C_6  and  C_7
REMARK    4  A    between atoms: C_7  and  C_8
REMARK    5  A    between atoms: C_11  and  C_12
REMARK    6  A    between atoms: C_12  and  N_13
REMARK    7  A    between atoms: C_14  and  C_16
REMARK                            x       y       z     vdW  Elec       q    Type
REMARK                         _______ _______ _______ _____ _____    ______ ____
ROOT
ATOM      1  C   UNL     1      51.432   3.650  17.630  0.00  0.00    +0.000 A 
ATOM      2  C   UNL     1      50.684   4.830  17.536  0.00  0.00    +0.000 A 
ATOM      3  C   UNL     1      49.308   4.794  17.292  0.00  0.00    +0.000 A 
ATOM      4  C   UNL     1      48.651   3.575  17.089  0.00  0.00    +0.000 A 
ATOM      5  C   UNL     1      49.416   2.400  17.089  0.00  0.00    +0.000 A 
ATOM      6  C   UNL     1      50.789   2.433  17.376  0.00  0.00    +0.000 A 
ENDROOT
BRANCH   1   7
ATOM      7  C   UNL     1      52.894   3.716  18.016  0.00  0.00    +0.000 C 
BRANCH   7  11
ATOM      8  C   UNL     1      54.931  -0.227  17.878  0.00  0.00    +0.000 C 
ATOM      9  C   UNL     1      55.615   0.924  18.627  0.00  0.00    +0.000 C 
ATOM     10  C   UNL     1      55.036   2.295  18.272  0.00  0.00    +0.000 C 
ATOM     11  C   UNL     1      53.514   2.374  18.496  0.00  0.00    +0.000 C 
ATOM     12  C   UNL     1      52.806   1.206  17.779  0.00  0.00    +0.000 C 
ATOM     13  C   UNL     1      53.414  -0.156  18.115  0.00  0.00    +0.000 C 
BRANCH   8  14
ATOM     14  C   UNL     1      55.281  -0.267  16.374  0.00  0.00    +0.000 C 
BRANCH  14  15
ATOM     15  N   UNL     1      54.378  -1.124  15.606  0.00  0.00    +0.000 NA
ATOM     16  H   UNL     1      54.137  -0.668  14.726  0.00  0.00    +0.000 HD
ATOM     17  H   UNL     1      54.848  -1.991  15.350  0.00  0.00    +0.000 HD
ENDBRANCH  14  15
ENDBRANCH   8  14
ENDBRANCH   7  11
ENDBRANCH   1   7
BRANCH   4  18
ATOM     18  C   UNL     1      47.160   3.524  16.857  0.00  0.00    +0.000 C 
BRANCH  18  19
ATOM     19  N   UNL     1      46.745   4.474  15.863  0.00  0.00    +0.000 N 
ATOM     20  C   UNL     1      46.829   4.206  14.516  0.00  0.00    +0.000 C 
ATOM     21  O   UNL     1      47.241   3.134  14.084  0.00  0.00    +0.000 OA
ATOM     22  H   UNL     1      46.668   5.442  16.163  0.00  0.00    +0.000 HD
BRANCH  20  23
ATOM     23  C   UNL     1      46.334   5.260  13.621  0.00  0.00    +0.000 A 
ATOM     24  C   UNL     1      47.091   6.405  13.408  0.00  0.00    +0.000 A 
ATOM     25  S   UNL     1      46.381   7.498  12.306  0.00  0.00    +0.000 S 
ATOM     26  C   UNL     1      45.011   6.507  12.119  0.00  0.00    +0.000 A 
ATOM     27  N   UNL     1      43.978   6.884  11.318  0.00  0.00    +0.000 NA
ATOM     28  C   UNL     1      42.993   6.048  11.290  0.00  0.00    +0.000 A 
ATOM     29  N   UNL     1      42.955   4.864  11.978  0.00  0.00    +0.000 N 
ATOM     30  C   UNL     1      43.992   4.422  12.761  0.00  0.00    +0.000 A 
ATOM     31  O   UNL     1      43.954   3.320  13.309  0.00  0.00    +0.000 OA
ATOM     32  C   UNL     1      45.113   5.342  12.857  0.00  0.00    +0.000 A 
ATOM     33  H   UNL     1      42.164   4.241  11.894  0.00  0.00    +0.000 HD
ENDBRANCH  20  23
ENDBRANCH  18  19
ENDBRANCH   4  18
TORSDOF 7
ENDMDL
MODEL 8
REMARK VINA RESULT:    -6.198      3.867      5.613
REMARK INTER + INTRA:          -9.748
REMARK INTER:                  -8.592
REMARK INTRA:                  -1.157
REMARK UNBOUND:                -1.195
REMARK  Name = 
REMARK  7 active torsions:
REMARK  status: ('A' for Active; 'I' for Inactive)
REMARK    1  A    between atoms: N_1  and  C_2
REMARK    2  A    between atoms: C_2  and  C_3
REMARK    3  A    between atoms: C_6  and  C_7
REMARK    4  A    between atoms: C_7  and  C_8
REMARK    5  A    between atoms: C_11  and  C_12
REMARK    6  A    between atoms: C_12  and  N_13
REMARK    7  A    between atoms: C_14  and  C_16
REMARK                            x       y       z     vdW  Elec       q    Type
REMARK                         _______ _______ _______ _____ _____    ______ ____
ROOT
ATOM      1  C   UNL     1      50.794   8.628  12.109  0.00  0.00    +0.000 A 
ATOM      2  C   UNL     1      49.996   9.773  12.216  0.00  0.00    +0.000 A 
ATOM      3  C   UNL     1      48.600   9.686  12.177  0.00  0.00    +0.000 A 
ATOM      4  C   UNL     1      47.968   8.452  11.984  0.00  0.00    +0.000 A 
ATOM      5  C   UNL     1      48.768   7.319  11.783  0.00  0.00    +0.000 A 
ATOM      6  C   UNL     1      50.167   7.400  11.864  0.00  0.00    +0.000 A 
ENDROOT
BRANCH   1   7
ATOM      7  C   UNL     1      52.294   8.739  12.278  0.00  0.00    +0.000 C 
BRANCH   7  11
ATOM      8  C   UNL     1      53.533   7.630   8.161  0.00  0.00    +0.000 C 
ATOM      9  C   UNL     1      53.095   9.076   8.428  0.00  0.00    +0.000 C 
ATOM     10  C   UNL     1      52.328   9.233   9.743  0.00  0.00    +0.000 C 
ATOM     11  C   UNL     1      53.113   8.705  10.958  0.00  0.00    +0.000 C 
ATOM     12  C   UNL     1      53.594   7.263  10.699  0.00  0.00    +0.000 C 
ATOM     13  C   UNL     1      54.331   7.110   9.367  0.00  0.00    +0.000 C 
BRANCH   8  14
ATOM     14  C   UNL     1      52.359   6.696   7.797  0.00  0.00    +0.000 C 
BRANCH  14  15
ATOM     15  N   UNL     1      52.703   5.734   6.749  0.00  0.00    +0.000 NA
ATOM     16  H   UNL     1      53.444   6.117   6.162  0.00  0.00    +0.000 HD
ATOM     17  H   UNL     1      53.086   4.885   7.163  0.00  0.00    +0.000 HD
ENDBRANCH  14  15
ENDBRANCH   8  14
ENDBRANCH   7  11
ENDBRANCH   1   7
BRANCH   4  18
ATOM     18  C   UNL     1      46.461   8.344  11.974  0.00  0.00    +0.000 C 
BRANCH  18  19
ATOM     19  N   UNL     1      46.029   6.987  11.785  0.00  0.00    +0.000 N 
ATOM     20  C   UNL     1      44.718   6.669  11.517  0.00  0.00    +0.000 C 
ATOM     21  O   UNL     1      43.845   7.523  11.402  0.00  0.00    +0.000 OA
ATOM     22  H   UNL     1      46.644   6.260  12.139  0.00  0.00    +0.000 HD
BRANCH  20  23
ATOM     23  C   UNL     1      44.434   5.243  11.312  0.00  0.00    +0.000 A 
ATOM     24  C   UNL     1      43.683   4.541  12.247  0.00  0.00    +0.000 A 
ATOM     25  S   UNL     1      43.416   2.909  11.822  0.00  0.00    +0.000 S 
ATOM     26  C   UNL     1      44.342   3.068  10.404  0.00  0.00    +0.000 A 
ATOM     27  N   UNL     1      44.547   2.006   9.579  0.00  0.00    +0.000 NA
ATOM     28  C   UNL     1      45.290   2.264   8.554  0.00  0.00    +0.000 A 
ATOM     29  N   UNL     1      45.833   3.490   8.272  0.00  0.00    +0.000 N 
ATOM     30  C   UNL     1      45.616   4.599   9.050  0.00  0.00    +0.000 A 
ATOM     31  O   UNL     1      46.061   5.701   8.730  0.00  0.00    +0.000 OA
ATOM     32  C   UNL     1      44.815   4.357  10.239  0.00  0.00    +0.000 A 
ATOM     33  H   UNL     1      46.386   3.632   7.439  0.00  0.00    +0.000 HD
ENDBRANCH  20  23
ENDBRANCH  18  19
ENDBRANCH   4  18
TORSDOF 7
ENDMDL
MODEL 9
REMARK VINA RESULT:    -6.090      5.498      7.932
REMARK INTER + INTRA:          -9.599
REMARK INTER:                  -8.689
REMARK INTRA:                  -0.910
REMARK UNBOUND:                -1.195
REMARK  Name = 
REMARK  7 active torsions:
REMARK  status: ('A' for Active; 'I' for Inactive)
REMARK    1  A    between atoms: N_1  and  C_2
REMARK    2  A    between atoms: C_2  and  C_3
REMARK    3  A    between atoms: C_6  and  C_7
REMARK    4  A    between atoms: C_7  and  C_8
REMARK    5  A    between atoms: C_11  and  C_12
REMARK    6  A    between atoms: C_12  and  N_13
REMARK    7  A    between atoms: C_14  and  C_16
REMARK                            x       y       z     vdW  Elec       q    Type
REMARK                         _______ _______ _______ _____ _____    ______ ____
ROOT
ATOM      1  C   UNL     1      47.364   7.530  12.666  0.00  0.00    +0.000 A 
ATOM      2  C   UNL     1      48.558   6.804  12.744  0.00  0.00    +0.000 A 
ATOM      3  C   UNL     1      49.781   7.386  12.394  0.00  0.00    +0.000 A 
ATOM      4  C   UNL     1      49.833   8.699  11.913  0.00  0.00    +0.000 A 
ATOM      5  C   UNL     1      48.628   9.395  11.747  0.00  0.00    +0.000 A 
ATOM      6  C   UNL     1      47.406   8.825  12.137  0.00  0.00    +0.000 A 
ENDROOT
BRANCH   1   7
ATOM      7  C   UNL     1      46.076   6.913  13.168  0.00  0.00    +0.000 C 
BRANCH   7  11
ATOM      8  C   UNL     1      43.677   4.332  10.466  0.00  0.00    +0.000 C 
ATOM      9  C   UNL     1      42.940   5.192  11.501  0.00  0.00    +0.000 C 
ATOM     10  C   UNL     1      43.859   5.711  12.608  0.00  0.00    +0.000 C 
ATOM     11  C   UNL     1      45.068   6.494  12.062  0.00  0.00    +0.000 C 
ATOM     12  C   UNL     1      45.806   5.661  10.995  0.00  0.00    +0.000 C 
ATOM     13  C   UNL     1      44.873   5.120   9.910  0.00  0.00    +0.000 C 
BRANCH   8  14
ATOM     14  C   UNL     1      44.099   2.950  11.013  0.00  0.00    +0.000 C 
BRANCH  14  15
ATOM     15  N   UNL     1      43.004   2.247  11.682  0.00  0.00    +0.000 NA
ATOM     16  H   UNL     1      42.774   1.398  11.166  0.00  0.00    +0.000 HD
ATOM     17  H   UNL     1      43.298   1.938  12.608  0.00  0.00    +0.000 HD
ENDBRANCH  14  15
ENDBRANCH   8  14
ENDBRANCH   7  11
ENDBRANCH   1   7
BRANCH   4  18
ATOM     18  C   UNL     1      51.152   9.348  11.564  0.00  0.00    +0.000 C 
BRANCH  18  19
ATOM     19  N   UNL     1      51.591   8.978  10.247  0.00  0.00    +0.000 N 
ATOM     20  C   UNL     1      52.866   8.523  10.004  0.00  0.00    +0.000 C 
ATOM     21  O   UNL     1      53.696   8.385  10.896  0.00  0.00    +0.000 OA
ATOM     22  H   UNL     1      51.044   9.334   9.468  0.00  0.00    +0.000 HD
BRANCH  20  23
ATOM     23  C   UNL     1      53.158   8.149   8.613  0.00  0.00    +0.000 A 
ATOM     24  C   UNL     1      53.137   9.114   7.614  0.00  0.00    +0.000 A 
ATOM     25  S   UNL     1      53.544   8.508   6.071  0.00  0.00    +0.000 S 
ATOM     26  C   UNL     1      53.707   6.925   6.674  0.00  0.00    +0.000 A 
ATOM     27  N   UNL     1      54.016   5.890   5.847  0.00  0.00    +0.000 NA
ATOM     28  C   UNL     1      54.083   4.741   6.435  0.00  0.00    +0.000 A 
ATOM     29  N   UNL     1      53.882   4.538   7.776  0.00  0.00    +0.000 N 
ATOM     30  C   UNL     1      53.614   5.558   8.653  0.00  0.00    +0.000 A 
ATOM     31  O   UNL     1      53.509   5.349   9.862  0.00  0.00    +0.000 OA
ATOM     32  C   UNL     1      53.492   6.869   8.038  0.00  0.00    +0.000 A 
ATOM     33  H   UNL     1      53.973   3.616   8.179  0.00  0.00    +0.000 HD
ENDBRANCH  20  23
ENDBRANCH  18  19
ENDBRANCH   4  18
TORSDOF 7
ENDMDL
