MODEL 1
REMARK VINA RESULT:    -8.434      0.000      0.000
REMARK INTER + INTRA:         -13.605
REMARK INTER:                 -12.378
REMARK INTRA:                  -1.226
REMARK UNBOUND:                -1.226
REMARK  Name = 
REMARK  9 active torsions:
REMARK  status: ('A' for Active; 'I' for Inactive)
REMARK    1  A    between atoms: C_1  and  O_2
REMARK    2  A    between atoms: O_2  and  C_3
REMARK    3  A    between atoms: C_10  and  C_11
REMARK    4  A    between atoms: N_13  and  C_14
REMARK    5  A    between atoms: C_14  and  C_15
REMARK    6  A    between atoms: C_18  and  N_19
REMARK    7  A    between atoms: N_19  and  C_20
REMARK    8  A    between atoms: C_20  and  C_21
REMARK    9  A    between atoms: C_21  and  C_22
REMARK                            x       y       z     vdW  Elec       q    Type
REMARK                         _______ _______ _______ _____ _____    ______ ____
ROOT
ATOM      1  C   UNL     1      46.760   6.777  12.769  0.00  0.00    +0.000 A 
ATOM      2  C   UNL     1      46.775   5.403  13.028  0.00  0.00    +0.000 A 
ATOM      3  C   UNL     1      45.797   4.565  12.485  0.00  0.00    +0.000 A 
ATOM      4  C   UNL     1      44.763   5.080  11.698  0.00  0.00    +0.000 A 
ATOM      5  C   UNL     1      44.785   6.446  11.395  0.00  0.00    +0.000 A 
ATOM      6  C   UNL     1      45.762   7.292  11.933  0.00  0.00    +0.000 A 
ENDROOT
BRANCH   4   7
ATOM      7  N   UNL     1      43.759   4.291  11.115  0.00  0.00    +0.000 N 
ATOM      8  H   UNL     1      43.047   4.907  10.724  0.00  0.00    +0.000 HD
BRANCH   7   9
ATOM      9  C   UNL     1      44.165   3.272  10.135  0.00  0.00    +0.000 C 
BRANCH   9  10
ATOM     10  C   UNL     1      44.635   3.915   8.821  0.00  0.00    +0.000 C 
BRANCH  10  11
ATOM     11  C   UNL     1      45.645   3.067   8.092  0.00  0.00    +0.000 A 
ATOM     12  C   UNL     1      46.489   3.636   7.127  0.00  0.00    +0.000 A 
ATOM     13  C   UNL     1      47.422   2.848   6.450  0.00  0.00    +0.000 A 
ATOM     14  C   UNL     1      47.524   1.487   6.734  0.00  0.00    +0.000 A 
ATOM     15  C   UNL     1      46.689   0.925   7.692  0.00  0.00    +0.000 A 
ATOM     16  F   UNL     1      46.783  -0.384   7.963  0.00  0.00    +0.000 F 
ATOM     17  C   UNL     1      45.755   1.699   8.373  0.00  0.00    +0.000 A 
ENDBRANCH  10  11
ENDBRANCH   9  10
ENDBRANCH   7   9
ENDBRANCH   4   7
BRANCH   1  18
ATOM     18  C   UNL     1      47.826   7.667  13.347  0.00  0.00    +0.000 C 
BRANCH  18  21
ATOM     19  C   UNL     1      48.889   7.124  15.484  0.00  0.00    +0.000 C 
ATOM     20  O   UNL     1      49.873   6.683  14.890  0.00  0.00    +0.000 OA
ATOM     21  N   UNL     1      47.821   7.627  14.789  0.00  0.00    +0.000 N 
ATOM     22  H   UNL     1      47.019   8.003  15.278  0.00  0.00    +0.000 HD
BRANCH  19  30
ATOM     23  C   UNL     1      48.848   4.636  17.876  0.00  0.00    +0.000 A 
ATOM     24  N   UNL     1      48.786   3.891  18.998  0.00  0.00    +0.000 NA
ATOM     25  C   UNL     1      48.706   4.522  20.172  0.00  0.00    +0.000 A 
ATOM     26  N   UNL     1      48.680   5.837  20.371  0.00  0.00    +0.000 NA
ATOM     27  C   UNL     1      48.730   6.542  19.230  0.00  0.00    +0.000 A 
ATOM     28  S   UNL     1      48.711   8.236  19.296  0.00  0.00    +0.000 S 
ATOM     29  C   UNL     1      48.783   8.352  17.605  0.00  0.00    +0.000 A 
ATOM     30  C   UNL     1      48.827   7.123  16.955  0.00  0.00    +0.000 A 
ATOM     31  C   UNL     1      48.804   6.040  17.931  0.00  0.00    +0.000 A 
BRANCH  23  33
ATOM     32  C   UNL     1      47.653   3.609  16.157  0.00  0.00    +0.000 C 
ATOM     33  O   UNL     1      48.934   3.979  16.665  0.00  0.00    +0.000 OA
ENDBRANCH  23  33
ENDBRANCH  19  30
ENDBRANCH  18  21
ENDBRANCH   1  18
TORSDOF 8
ENDMDL
MODEL 2
REMARK VINA RESULT:    -7.994      1.807      2.793
REMARK INTER + INTRA:         -12.959
REMARK INTER:                 -11.693
REMARK INTRA:                  -1.266
REMARK UNBOUND:                -1.226
REMARK  Name = 
REMARK  9 active torsions:
REMARK  status: ('A' for Active; 'I' for Inactive)
REMARK    1  A    between atoms: C_1  and  O_2
REMARK    2  A    between atoms: O_2  and  C_3
REMARK    3  A    between atoms: C_10  and  C_11
REMARK    4  A    between atoms: N_13  and  C_14
REMARK    5  A    between atoms: C_14  and  C_15
REMARK    6  A    between atoms: C_18  and  N_19
REMARK    7  A    between atoms: N_19  and  C_20
REMARK    8  A    between atoms: C_20  and  C_21
REMARK    9  A    between atoms: C_21  and  C_22
REMARK                            x       y       z     vdW  Elec       q    Type
REMARK                         _______ _______ _______ _____ _____    ______ ____
ROOT
ATOM      1  C   UNL     1      47.433   6.211  13.354  0.00  0.00    +0.000 A 
ATOM      2  C   UNL     1      46.710   5.060  13.682  0.00  0.00    +0.000 A 
ATOM      3  C   UNL     1      45.631   4.647  12.897  0.00  0.00    +0.000 A 
ATOM      4  C   UNL     1      45.225   5.390  11.783  0.00  0.00    +0.000 A 
ATOM      5  C   UNL     1      45.986   6.508  11.426  0.00  0.00    +0.000 A 
ATOM      6  C   UNL     1      47.071   6.926  12.206  0.00  0.00    +0.000 A 
ENDROOT
BRANCH   4   7
ATOM      7  N   UNL     1      44.159   5.023  10.948  0.00  0.00    +0.000 N 
ATOM      8  H   UNL     1      43.875   5.838  10.404  0.00  0.00    +0.000 HD
BRANCH   7   9
ATOM      9  C   UNL     1      44.334   3.850  10.079  0.00  0.00    +0.000 C 
BRANCH   9  10
ATOM     10  C   UNL     1      44.805   4.260   8.675  0.00  0.00    +0.000 C 
BRANCH  10  11
ATOM     11  C   UNL     1      45.656   3.203   8.019  0.00  0.00    +0.000 A 
ATOM     12  C   UNL     1      45.726   1.910   8.557  0.00  0.00    +0.000 A 
ATOM     13  C   UNL     1      46.518   0.933   7.950  0.00  0.00    +0.000 A 
ATOM     14  C   UNL     1      47.243   1.237   6.798  0.00  0.00    +0.000 A 
ATOM     15  C   UNL     1      47.171   2.518   6.265  0.00  0.00    +0.000 A 
ATOM     16  F   UNL     1      47.869   2.814   5.161  0.00  0.00    +0.000 F 
ATOM     17  C   UNL     1      46.386   3.501   6.861  0.00  0.00    +0.000 A 
ENDBRANCH  10  11
ENDBRANCH   9  10
ENDBRANCH   7   9
ENDBRANCH   4   7
BRANCH   1  18
ATOM     18  C   UNL     1      48.602   6.637  14.199  0.00  0.00    +0.000 C 
BRANCH  18  21
ATOM     19  C   UNL     1      49.108   6.265  16.564  0.00  0.00    +0.000 C 
ATOM     20  O   UNL     1      50.204   5.791  16.263  0.00  0.00    +0.000 OA
ATOM     21  N   UNL     1      48.246   6.704  15.595  0.00  0.00    +0.000 N 
ATOM     22  H   UNL     1      47.352   7.108  15.845  0.00  0.00    +0.000 HD
BRANCH  19  30
ATOM     23  C   UNL     1      47.764   8.808  18.473  0.00  0.00    +0.000 A 
ATOM     24  N   UNL     1      47.276   9.608  19.442  0.00  0.00    +0.000 NA
ATOM     25  C   UNL     1      47.126   9.098  20.667  0.00  0.00    +0.000 A 
ATOM     26  N   UNL     1      47.408   7.857  21.054  0.00  0.00    +0.000 NA
ATOM     27  C   UNL     1      47.903   7.097  20.065  0.00  0.00    +0.000 A 
ATOM     28  S   UNL     1      48.314   5.483  20.380  0.00  0.00    +0.000 S 
ATOM     29  C   UNL     1      48.822   5.248  18.778  0.00  0.00    +0.000 A 
ATOM     30  C   UNL     1      48.690   6.374  17.972  0.00  0.00    +0.000 A 
ATOM     31  C   UNL     1      48.131   7.478  18.743  0.00  0.00    +0.000 A 
BRANCH  23  33
ATOM     32  C   UNL     1      49.195   9.941  17.022  0.00  0.00    +0.000 C 
ATOM     33  O   UNL     1      47.915   9.339  17.208  0.00  0.00    +0.000 OA
ENDBRANCH  23  33
ENDBRANCH  19  30
ENDBRANCH  18  21
ENDBRANCH   1  18
TORSDOF 8
ENDMDL
MODEL 3
REMARK VINA RESULT:    -7.767      2.342      2.882
REMARK INTER + INTRA:         -12.626
REMARK INTER:                 -11.706
REMARK INTRA:                  -0.920
REMARK UNBOUND:                -1.226
REMARK  Name = 
REMARK  9 active torsions:
REMARK  status: ('A' for Active; 'I' for Inactive)
REMARK    1  A    between atoms: C_1  and  O_2
REMARK    2  A    between atoms: O_2  and  C_3
REMARK    3  A    between atoms: C_10  and  C_11
REMARK    4  A    between atoms: N_13  and  C_14
REMARK    5  A    between atoms: C_14  and  C_15
REMARK    6  A    between atoms: C_18  and  N_19
REMARK    7  A    between atoms: N_19  and  C_20
REMARK    8  A    between atoms: C_20  and  C_21
REMARK    9  A    between atoms: C_21  and  C_22
REMARK                            x       y       z     vdW  Elec       q    Type
REMARK                         _______ _______ _______ _____ _____    ______ ____
ROOT
ATOM      1  C   UNL     1      48.089   6.897  14.288  0.00  0.00    +0.000 A 
ATOM      2  C   UNL     1      47.465   5.649  14.391  0.00  0.00    +0.000 A 
ATOM      3  C   UNL     1      46.747   5.120  13.315  0.00  0.00    +0.000 A 
ATOM      4  C   UNL     1      46.604   5.837  12.123  0.00  0.00    +0.000 A 
ATOM      5  C   UNL     1      47.276   7.058  12.005  0.00  0.00    +0.000 A 
ATOM      6  C   UNL     1      48.000   7.593  13.077  0.00  0.00    +0.000 A 
ENDROOT
BRANCH   4   7
ATOM      7  N   UNL     1      45.906   5.356  11.003  0.00  0.00    +0.000 N 
ATOM      8  H   UNL     1      46.578   4.954  10.350  0.00  0.00    +0.000 HD
BRANCH   7   9
ATOM      9  C   UNL     1      44.783   4.436  11.233  0.00  0.00    +0.000 C 
BRANCH   9  10
ATOM     10  C   UNL     1      44.120   4.023   9.910  0.00  0.00    +0.000 C 
BRANCH  10  11
ATOM     11  C   UNL     1      45.095   3.401   8.944  0.00  0.00    +0.000 A 
ATOM     12  C   UNL     1      45.777   4.195   8.011  0.00  0.00    +0.000 A 
ATOM     13  C   UNL     1      46.679   3.617   7.114  0.00  0.00    +0.000 A 
ATOM     14  C   UNL     1      46.909   2.242   7.144  0.00  0.00    +0.000 A 
ATOM     15  C   UNL     1      46.234   1.457   8.070  0.00  0.00    +0.000 A 
ATOM     16  F   UNL     1      46.451   0.136   8.098  0.00  0.00    +0.000 F 
ATOM     17  C   UNL     1      45.333   2.021   8.968  0.00  0.00    +0.000 A 
ENDBRANCH  10  11
ENDBRANCH   9  10
ENDBRANCH   7   9
ENDBRANCH   4   7
BRANCH   1  18
ATOM     18  C   UNL     1      48.871   7.449  15.447  0.00  0.00    +0.000 C 
BRANCH  18  21
ATOM     19  C   UNL     1      49.931   6.105  17.196  0.00  0.00    +0.000 C 
ATOM     20  O   UNL     1      49.121   6.528  18.022  0.00  0.00    +0.000 OA
ATOM     21  N   UNL     1      49.881   6.519  15.892  0.00  0.00    +0.000 N 
ATOM     22  H   UNL     1      50.538   6.160  15.211  0.00  0.00    +0.000 HD
BRANCH  19  30
ATOM     23  C   UNL     1      50.231   2.673  16.983  0.00  0.00    +0.000 A 
ATOM     24  N   UNL     1      50.596   1.377  17.056  0.00  0.00    +0.000 NA
ATOM     25  C   UNL     1      51.783   1.085  17.594  0.00  0.00    +0.000 A 
ATOM     26  N   UNL     1      52.673   1.947  18.080  0.00  0.00    +0.000 NA
ATOM     27  C   UNL     1      52.265   3.224  18.001  0.00  0.00    +0.000 A 
ATOM     28  S   UNL     1      53.278   4.458  18.571  0.00  0.00    +0.000 S 
ATOM     29  C   UNL     1      52.141   5.648  18.161  0.00  0.00    +0.000 A 
ATOM     30  C   UNL     1      50.979   5.146  17.584  0.00  0.00    +0.000 A 
ATOM     31  C   UNL     1      51.060   3.693  17.481  0.00  0.00    +0.000 A 
BRANCH  23  33
ATOM     32  C   UNL     1      47.953   2.966  17.387  0.00  0.00    +0.000 C 
ATOM     33  O   UNL     1      49.004   2.970  16.423  0.00  0.00    +0.000 OA
ENDBRANCH  23  33
ENDBRANCH  19  30
ENDBRANCH  18  21
ENDBRANCH   1  18
TORSDOF 8
ENDMDL
MODEL 4
REMARK VINA RESULT:    -7.701      1.491      2.049
REMARK INTER + INTRA:         -12.529
REMARK INTER:                 -10.883
REMARK INTRA:                  -1.647
REMARK UNBOUND:                -1.226
REMARK  Name = 
REMARK  9 active torsions:
REMARK  status: ('A' for Active; 'I' for Inactive)
REMARK    1  A    between atoms: C_1  and  O_2
REMARK    2  A    between atoms: O_2  and  C_3
REMARK    3  A    between atoms: C_10  and  C_11
REMARK    4  A    between atoms: N_13  and  C_14
REMARK    5  A    between atoms: C_14  and  C_15
REMARK    6  A    between atoms: C_18  and  N_19
REMARK    7  A    between atoms: N_19  and  C_20
REMARK    8  A    between atoms: C_20  and  C_21
REMARK    9  A    between atoms: C_21  and  C_22
REMARK                            x       y       z     vdW  Elec       q    Type
REMARK                         _______ _______ _______ _____ _____    ______ ____
ROOT
ATOM      1  C   UNL     1      47.567   6.806  12.784  0.00  0.00    +0.000 A 
ATOM      2  C   UNL     1      46.658   7.719  12.241  0.00  0.00    +0.000 A 
ATOM      3  C   UNL     1      45.294   7.419  12.182  0.00  0.00    +0.000 A 
ATOM      4  C   UNL     1      44.808   6.187  12.632  0.00  0.00    +0.000 A 
ATOM      5  C   UNL     1      45.713   5.300  13.226  0.00  0.00    +0.000 A 
ATOM      6  C   UNL     1      47.080   5.596  13.291  0.00  0.00    +0.000 A 
ENDROOT
BRANCH   4   7
ATOM      7  N   UNL     1      43.451   5.830  12.611  0.00  0.00    +0.000 N 
ATOM      8  H   UNL     1      42.898   6.633  12.909  0.00  0.00    +0.000 HD
BRANCH   7   9
ATOM      9  C   UNL     1      42.908   5.252  11.373  0.00  0.00    +0.000 C 
BRANCH   9  10
ATOM     10  C   UNL     1      43.260   3.761  11.250  0.00  0.00    +0.000 C 
BRANCH  10  11
ATOM     11  C   UNL     1      44.197   3.482  10.104  0.00  0.00    +0.000 A 
ATOM     12  C   UNL     1      44.751   4.536   9.364  0.00  0.00    +0.000 A 
ATOM     13  C   UNL     1      45.618   4.274   8.299  0.00  0.00    +0.000 A 
ATOM     14  C   UNL     1      45.941   2.959   7.969  0.00  0.00    +0.000 A 
ATOM     15  C   UNL     1      45.393   1.916   8.704  0.00  0.00    +0.000 A 
ATOM     16  F   UNL     1      45.699   0.651   8.386  0.00  0.00    +0.000 F 
ATOM     17  C   UNL     1      44.528   2.163   9.766  0.00  0.00    +0.000 A 
ENDBRANCH  10  11
ENDBRANCH   9  10
ENDBRANCH   7   9
ENDBRANCH   4   7
BRANCH   1  18
ATOM     18  C   UNL     1      49.030   7.147  12.855  0.00  0.00    +0.000 C 
BRANCH  18  21
ATOM     19  C   UNL     1      49.426   7.920  15.143  0.00  0.00    +0.000 C 
ATOM     20  O   UNL     1      48.871   8.989  14.886  0.00  0.00    +0.000 OA
ATOM     21  N   UNL     1      49.553   6.950  14.185  0.00  0.00    +0.000 N 
ATOM     22  H   UNL     1      49.995   6.066  14.403  0.00  0.00    +0.000 HD
BRANCH  19  30
ATOM     23  C   UNL     1      49.198   5.260  17.331  0.00  0.00    +0.000 A 
ATOM     24  N   UNL     1      49.254   4.403  18.371  0.00  0.00    +0.000 NA
ATOM     25  C   UNL     1      49.958   4.761  19.448  0.00  0.00    +0.000 A 
ATOM     26  N   UNL     1      50.632   5.895  19.619  0.00  0.00    +0.000 NA
ATOM     27  C   UNL     1      50.539   6.726  18.568  0.00  0.00    +0.000 A 
ATOM     28  S   UNL     1      51.342   8.219  18.614  0.00  0.00    +0.000 S 
ATOM     29  C   UNL     1      50.771   8.627  17.069  0.00  0.00    +0.000 A 
ATOM     30  C   UNL     1      49.970   7.652  16.485  0.00  0.00    +0.000 A 
ATOM     31  C   UNL     1      49.840   6.509  17.382  0.00  0.00    +0.000 A 
BRANCH  23  33
ATOM     32  C   UNL     1      47.626   3.764  16.478  0.00  0.00    +0.000 C 
ATOM     33  O   UNL     1      48.470   4.884  16.220  0.00  0.00    +0.000 OA
ENDBRANCH  23  33
ENDBRANCH  19  30
ENDBRANCH  18  21
ENDBRANCH   1  18
TORSDOF 8
ENDMDL
MODEL 5
REMARK VINA RESULT:    -7.063      1.613      2.217
REMARK INTER + INTRA:         -11.592
REMARK INTER:                 -10.246
REMARK INTRA:                  -1.346
REMARK UNBOUND:                -1.226
REMARK  Name = 
REMARK  9 active torsions:
REMARK  status: ('A' for Active; 'I' for Inactive)
REMARK    1  A    between atoms: C_1  and  O_2
REMARK    2  A    between atoms: O_2  and  C_3
REMARK    3  A    between atoms: C_10  and  C_11
REMARK    4  A    between atoms: N_13  and  C_14
REMARK    5  A    between atoms: C_14  and  C_15
REMARK    6  A    between atoms: C_18  and  N_19
REMARK    7  A    between atoms: N_19  and  C_20
REMARK    8  A    between atoms: C_20  and  C_21
REMARK    9  A    between atoms: C_21  and  C_22
REMARK                            x       y       z     vdW  Elec       q    Type
REMARK                         _______ _______ _______ _____ _____    ______ ____
ROOT
ATOM      1  C   UNL     1      48.029   8.135  13.549  0.00  0.00    +0.000 A 
ATOM      2  C   UNL     1      48.383   7.150  12.621  0.00  0.00    +0.000 A 
ATOM      3  C   UNL     1      47.434   6.629  11.737  0.00  0.00    +0.000 A 
ATOM      4  C   UNL     1      46.102   7.053  11.779  0.00  0.00    +0.000 A 
ATOM      5  C   UNL     1      45.765   8.078  12.670  0.00  0.00    +0.000 A 
ATOM      6  C   UNL     1      46.711   8.607  13.557  0.00  0.00    +0.000 A 
ENDROOT
BRANCH   4   7
ATOM      7  N   UNL     1      45.105   6.579  10.912  0.00  0.00    +0.000 N 
ATOM      8  H   UNL     1      45.466   6.600   9.958  0.00  0.00    +0.000 HD
BRANCH   7   9
ATOM      9  C   UNL     1      44.492   5.276  11.211  0.00  0.00    +0.000 C 
BRANCH   9  10
ATOM     10  C   UNL     1      43.782   4.696   9.978  0.00  0.00    +0.000 C 
BRANCH  10  11
ATOM     11  C   UNL     1      44.680   3.805   9.159  0.00  0.00    +0.000 A 
ATOM     12  C   UNL     1      44.815   2.446   9.475  0.00  0.00    +0.000 A 
ATOM     13  C   UNL     1      45.651   1.622   8.717  0.00  0.00    +0.000 A 
ATOM     14  C   UNL     1      46.356   2.149   7.635  0.00  0.00    +0.000 A 
ATOM     15  C   UNL     1      46.220   3.495   7.322  0.00  0.00    +0.000 A 
ATOM     16  F   UNL     1      46.900   4.004   6.286  0.00  0.00    +0.000 F 
ATOM     17  C   UNL     1      45.392   4.326   8.070  0.00  0.00    +0.000 A 
ENDBRANCH  10  11
ENDBRANCH   9  10
ENDBRANCH   7   9
ENDBRANCH   4   7
BRANCH   1  18
ATOM     18  C   UNL     1      49.062   8.698  14.485  0.00  0.00    +0.000 C 
BRANCH  18  21
ATOM     19  C   UNL     1      48.557   8.294  16.846  0.00  0.00    +0.000 C 
ATOM     20  O   UNL     1      47.903   9.337  16.892  0.00  0.00    +0.000 OA
ATOM     21  N   UNL     1      49.173   7.906  15.686  0.00  0.00    +0.000 N 
ATOM     22  H   UNL     1      49.697   7.041  15.646  0.00  0.00    +0.000 HD
BRANCH  19  30
ATOM     23  C   UNL     1      48.542   4.879  17.345  0.00  0.00    +0.000 A 
ATOM     24  N   UNL     1      48.545   3.620  17.827  0.00  0.00    +0.000 NA
ATOM     25  C   UNL     1      48.704   3.447  19.142  0.00  0.00    +0.000 A 
ATOM     26  N   UNL     1      48.867   4.399  20.057  0.00  0.00    +0.000 NA
ATOM     27  C   UNL     1      48.845   5.637  19.539  0.00  0.00    +0.000 A 
ATOM     28  S   UNL     1      49.043   6.973  20.564  0.00  0.00    +0.000 S 
ATOM     29  C   UNL     1      48.895   8.053  19.264  0.00  0.00    +0.000 A 
ATOM     30  C   UNL     1      48.699   7.435  18.033  0.00  0.00    +0.000 A 
ATOM     31  C   UNL     1      48.678   5.987  18.200  0.00  0.00    +0.000 A 
BRANCH  23  33
ATOM     32  C   UNL     1      47.232   4.367  15.485  0.00  0.00    +0.000 C 
ATOM     33  O   UNL     1      48.379   5.052  15.985  0.00  0.00    +0.000 OA
ENDBRANCH  23  33
ENDBRANCH  19  30
ENDBRANCH  18  21
ENDBRANCH   1  18
TORSDOF 8
ENDMDL
MODEL 6
REMARK VINA RESULT:    -7.051      2.101      2.589
REMARK INTER + INTRA:         -11.574
REMARK INTER:                 -10.366
REMARK INTRA:                  -1.208
REMARK UNBOUND:                -1.226
REMARK  Name = 
REMARK  9 active torsions:
REMARK  status: ('A' for Active; 'I' for Inactive)
REMARK    1  A    between atoms: C_1  and  O_2
REMARK    2  A    between atoms: O_2  and  C_3
REMARK    3  A    between atoms: C_10  and  C_11
REMARK    4  A    between atoms: N_13  and  C_14
REMARK    5  A    between atoms: C_14  and  C_15
REMARK    6  A    between atoms: C_18  and  N_19
REMARK    7  A    between atoms: N_19  and  C_20
REMARK    8  A    between atoms: C_20  and  C_21
REMARK    9  A    between atoms: C_21  and  C_22
REMARK                            x       y       z     vdW  Elec       q    Type
REMARK                         _______ _______ _______ _____ _____    ______ ____
ROOT
ATOM      1  C   UNL     1      47.881   6.747  12.966  0.00  0.00    +0.000 A 
ATOM      2  C   UNL     1      47.386   5.670  13.708  0.00  0.00    +0.000 A 
ATOM      3  C   UNL     1      46.317   4.907  13.233  0.00  0.00    +0.000 A 
ATOM      4  C   UNL     1      45.692   5.220  12.021  0.00  0.00    +0.000 A 
ATOM      5  C   UNL     1      46.227   6.262  11.255  0.00  0.00    +0.000 A 
ATOM      6  C   UNL     1      47.300   7.029  11.724  0.00  0.00    +0.000 A 
ENDROOT
BRANCH   4   7
ATOM      7  N   UNL     1      44.623   4.487  11.483  0.00  0.00    +0.000 N 
ATOM      8  H   UNL     1      43.752   4.848  11.872  0.00  0.00    +0.000 HD
BRANCH   7   9
ATOM      9  C   UNL     1      44.533   4.369  10.020  0.00  0.00    +0.000 C 
BRANCH   9  10
ATOM     10  C   UNL     1      44.437   2.899   9.582  0.00  0.00    +0.000 C 
BRANCH  10  11
ATOM     11  C   UNL     1      45.402   2.562   8.476  0.00  0.00    +0.000 A 
ATOM     12  C   UNL     1      46.031   1.309   8.436  0.00  0.00    +0.000 A 
ATOM     13  C   UNL     1      46.928   0.999   7.411  0.00  0.00    +0.000 A 
ATOM     14  C   UNL     1      47.201   1.936   6.415  0.00  0.00    +0.000 A 
ATOM     15  C   UNL     1      46.576   3.176   6.454  0.00  0.00    +0.000 A 
ATOM     16  F   UNL     1      46.839   4.078   5.500  0.00  0.00    +0.000 F 
ATOM     17  C   UNL     1      45.681   3.497   7.470  0.00  0.00    +0.000 A 
ENDBRANCH  10  11
ENDBRANCH   9  10
ENDBRANCH   7   9
ENDBRANCH   4   7
BRANCH   1  18
ATOM     18  C   UNL     1      49.042   7.551  13.482  0.00  0.00    +0.000 C 
BRANCH  18  21
ATOM     19  C   UNL     1      50.819   7.354  15.153  0.00  0.00    +0.000 C 
ATOM     20  O   UNL     1      51.492   8.187  14.546  0.00  0.00    +0.000 OA
ATOM     21  N   UNL     1      49.588   6.976  14.687  0.00  0.00    +0.000 N 
ATOM     22  H   UNL     1      49.029   6.303  15.195  0.00  0.00    +0.000 HD
BRANCH  19  30
ATOM     23  C   UNL     1      49.413   6.742  18.246  0.00  0.00    +0.000 A 
ATOM     24  N   UNL     1      49.140   6.418  19.526  0.00  0.00    +0.000 NA
ATOM     25  C   UNL     1      50.102   5.842  20.251  0.00  0.00    +0.000 A 
ATOM     26  N   UNL     1      51.333   5.541  19.847  0.00  0.00    +0.000 NA
ATOM     27  C   UNL     1      51.570   5.892  18.573  0.00  0.00    +0.000 A 
ATOM     28  S   UNL     1      53.089   5.577  17.891  0.00  0.00    +0.000 S 
ATOM     29  C   UNL     1      52.621   6.263  16.411  0.00  0.00    +0.000 A 
ATOM     30  C   UNL     1      51.314   6.739  16.396  0.00  0.00    +0.000 A 
ATOM     31  C   UNL     1      50.683   6.507  17.690  0.00  0.00    +0.000 A 
BRANCH  23  33
ATOM     32  C   UNL     1      48.046   8.616  18.008  0.00  0.00    +0.000 C 
ATOM     33  O   UNL     1      48.415   7.335  17.500  0.00  0.00    +0.000 OA
ENDBRANCH  23  33
ENDBRANCH  19  30
ENDBRANCH  18  21
ENDBRANCH   1  18
TORSDOF 8
ENDMDL
MODEL 7
REMARK VINA RESULT:    -6.980      2.973      3.967
REMARK INTER + INTRA:         -11.470
REMARK INTER:                 -10.558
REMARK INTRA:                  -0.912
REMARK UNBOUND:                -1.226
REMARK  Name = 
REMARK  9 active torsions:
REMARK  status: ('A' for Active; 'I' for Inactive)
REMARK    1  A    between atoms: C_1  and  O_2
REMARK    2  A    between atoms: O_2  and  C_3
REMARK    3  A    between atoms: C_10  and  C_11
REMARK    4  A    between atoms: N_13  and  C_14
REMARK    5  A    between atoms: C_14  and  C_15
REMARK    6  A    between atoms: C_18  and  N_19
REMARK    7  A    between atoms: N_19  and  C_20
REMARK    8  A    between atoms: C_20  and  C_21
REMARK    9  A    between atoms: C_21  and  C_22
REMARK                            x       y       z     vdW  Elec       q    Type
REMARK                         _______ _______ _______ _____ _____    ______ ____
ROOT
ATOM      1  C   UNL     1      48.481   6.181  15.309  0.00  0.00    +0.000 A 
ATOM      2  C   UNL     1      48.211   6.712  14.044  0.00  0.00    +0.000 A 
ATOM      3  C   UNL     1      47.270   6.111  13.203  0.00  0.00    +0.000 A 
ATOM      4  C   UNL     1      46.600   4.946  13.590  0.00  0.00    +0.000 A 
ATOM      5  C   UNL     1      46.832   4.450  14.878  0.00  0.00    +0.000 A 
ATOM      6  C   UNL     1      47.771   5.049  15.726  0.00  0.00    +0.000 A 
ENDROOT
BRANCH   4   7
ATOM      7  N   UNL     1      45.637   4.301  12.798  0.00  0.00    +0.000 N 
ATOM      8  H   UNL     1      45.406   3.407  13.231  0.00  0.00    +0.000 HD
BRANCH   7   9
ATOM      9  C   UNL     1      44.417   5.046  12.452  0.00  0.00    +0.000 C 
BRANCH   9  10
ATOM     10  C   UNL     1      44.487   5.598  11.020  0.00  0.00    +0.000 C 
BRANCH  10  11
ATOM     11  C   UNL     1      44.827   4.536  10.007  0.00  0.00    +0.000 A 
ATOM     12  C   UNL     1      44.287   3.246  10.118  0.00  0.00    +0.000 A 
ATOM     13  C   UNL     1      44.607   2.262   9.180  0.00  0.00    +0.000 A 
ATOM     14  C   UNL     1      45.464   2.558   8.121  0.00  0.00    +0.000 A 
ATOM     15  C   UNL     1      45.996   3.836   8.010  0.00  0.00    +0.000 A 
ATOM     16  F   UNL     1      46.823   4.122   6.996  0.00  0.00    +0.000 F 
ATOM     17  C   UNL     1      45.687   4.825   8.939  0.00  0.00    +0.000 A 
ENDBRANCH  10  11
ENDBRANCH   9  10
ENDBRANCH   7   9
ENDBRANCH   4   7
BRANCH   1  18
ATOM     18  C   UNL     1      49.485   6.845  16.209  0.00  0.00    +0.000 C 
BRANCH  18  21
ATOM     19  C   UNL     1      50.701   5.690  17.992  0.00  0.00    +0.000 C 
ATOM     20  O   UNL     1      50.042   6.291  18.841  0.00  0.00    +0.000 OA
ATOM     21  N   UNL     1      50.491   5.912  16.657  0.00  0.00    +0.000 N 
ATOM     22  H   UNL     1      51.022   5.406  15.960  0.00  0.00    +0.000 HD
BRANCH  19  30
ATOM     23  C   UNL     1      51.205   2.340  17.330  0.00  0.00    +0.000 A 
ATOM     24  N   UNL     1      51.624   1.060  17.267  0.00  0.00    +0.000 NA
ATOM     25  C   UNL     1      52.739   0.727  17.922  0.00  0.00    +0.000 A 
ATOM     26  N   UNL     1      53.508   1.534  18.649  0.00  0.00    +0.000 NA
ATOM     27  C   UNL     1      53.049   2.794  18.698  0.00  0.00    +0.000 A 
ATOM     28  S   UNL     1      53.909   3.960  19.579  0.00  0.00    +0.000 S 
ATOM     29  C   UNL     1      52.778   5.162  19.186  0.00  0.00    +0.000 A 
ATOM     30  C   UNL     1      51.734   4.716  18.383  0.00  0.00    +0.000 A 
ATOM     31  C   UNL     1      51.904   3.299  18.084  0.00  0.00    +0.000 A 
BRANCH  23  33
ATOM     32  C   UNL     1      48.882   2.504  17.444  0.00  0.00    +0.000 C 
ATOM     33  O   UNL     1      50.053   2.679  16.649  0.00  0.00    +0.000 OA
ENDBRANCH  23  33
ENDBRANCH  19  30
ENDBRANCH  18  21
ENDBRANCH   1  18
TORSDOF 8
ENDMDL
MODEL 8
REMARK VINA RESULT:    -6.924      5.543      7.703
REMARK INTER + INTRA:         -11.389
REMARK INTER:                 -10.133
REMARK INTRA:                  -1.255
REMARK UNBOUND:                -1.226
REMARK  Name = 
REMARK  9 active torsions:
REMARK  status: ('A' for Active; 'I' for Inactive)
REMARK    1  A    between atoms: C_1  and  O_2
REMARK    2  A    between atoms: O_2  and  C_3
REMARK    3  A    between atoms: C_10  and  C_11
REMARK    4  A    between atoms: N_13  and  C_14
REMARK    5  A    between atoms: C_14  and  C_15
REMARK    6  A    between atoms: C_18  and  N_19
REMARK    7  A    between atoms: N_19  and  C_20
REMARK    8  A    between atoms: C_20  and  C_21
REMARK    9  A    between atoms: C_21  and  C_22
REMARK                            x       y       z     vdW  Elec       q    Type
REMARK                         _______ _______ _______ _____ _____    ______ ____
ROOT
ATOM      1  C   UNL     1      49.437   8.078  11.854  0.00  0.00    +0.000 A 
ATOM      2  C   UNL     1      49.360   6.805  12.427  0.00  0.00    +0.000 A 
ATOM      3  C   UNL     1      48.145   6.311  12.909  0.00  0.00    +0.000 A 
ATOM      4  C   UNL     1      46.983   7.088  12.862  0.00  0.00    +0.000 A 
ATOM      5  C   UNL     1      47.052   8.338  12.237  0.00  0.00    +0.000 A 
ATOM      6  C   UNL     1      48.265   8.838  11.749  0.00  0.00    +0.000 A 
ENDROOT
BRANCH   4   7
ATOM      7  N   UNL     1      45.731   6.646  13.317  0.00  0.00    +0.000 N 
ATOM      8  H   UNL     1      45.351   7.346  13.955  0.00  0.00    +0.000 HD
BRANCH   7   9
ATOM      9  C   UNL     1      44.731   6.253  12.314  0.00  0.00    +0.000 C 
BRANCH   9  10
ATOM     10  C   UNL     1      44.608   4.725  12.215  0.00  0.00    +0.000 C 
BRANCH  10  11
ATOM     11  C   UNL     1      44.884   4.212  10.826  0.00  0.00    +0.000 A 
ATOM     12  C   UNL     1      45.421   5.060   9.847  0.00  0.00    +0.000 A 
ATOM     13  C   UNL     1      45.673   4.583   8.558  0.00  0.00    +0.000 A 
ATOM     14  C   UNL     1      45.395   3.255   8.238  0.00  0.00    +0.000 A 
ATOM     15  C   UNL     1      44.865   2.415   9.209  0.00  0.00    +0.000 A 
ATOM     16  F   UNL     1      44.593   1.140   8.902  0.00  0.00    +0.000 F 
ATOM     17  C   UNL     1      44.608   2.878  10.496  0.00  0.00    +0.000 A 
ENDBRANCH  10  11
ENDBRANCH   9  10
ENDBRANCH   7   9
ENDBRANCH   4   7
BRANCH   1  18
ATOM     18  C   UNL     1      50.747   8.592  11.326  0.00  0.00    +0.000 C 
BRANCH  18  21
ATOM     19  C   UNL     1      52.742   7.763  10.175  0.00  0.00    +0.000 C 
ATOM     20  O   UNL     1      53.062   8.916   9.885  0.00  0.00    +0.000 OA
ATOM     21  N   UNL     1      51.598   7.514  10.886  0.00  0.00    +0.000 N 
ATOM     22  H   UNL     1      51.344   6.567  11.137  0.00  0.00    +0.000 HD
BRANCH  19  30
ATOM     23  C   UNL     1      53.057   5.954   7.252  0.00  0.00    +0.000 A 
ATOM     24  N   UNL     1      53.358   5.075   6.275  0.00  0.00    +0.000 NA
ATOM     25  C   UNL     1      54.275   4.138   6.528  0.00  0.00    +0.000 A 
ATOM     26  N   UNL     1      54.947   3.967   7.664  0.00  0.00    +0.000 NA
ATOM     27  C   UNL     1      54.608   4.851   8.615  0.00  0.00    +0.000 A 
ATOM     28  S   UNL     1      55.370   4.781  10.128  0.00  0.00    +0.000 S 
ATOM     29  C   UNL     1      54.464   6.097  10.700  0.00  0.00    +0.000 A 
ATOM     30  C   UNL     1      53.574   6.619   9.767  0.00  0.00    +0.000 A 
ATOM     31  C   UNL     1      53.669   5.877   8.516  0.00  0.00    +0.000 A 
BRANCH  23  33
ATOM     32  C   UNL     1      52.683   8.103   6.426  0.00  0.00    +0.000 C 
ATOM     33  O   UNL     1      52.110   6.922   6.985  0.00  0.00    +0.000 OA
ENDBRANCH  23  33
ENDBRANCH  19  30
ENDBRANCH  18  21
ENDBRANCH   1  18
TORSDOF 8
ENDMDL
MODEL 9
REMARK VINA RESULT:    -6.804      3.811      8.454
REMARK INTER + INTRA:         -11.212
REMARK INTER:                  -9.021
REMARK INTRA:                  -2.191
REMARK UNBOUND:                -1.226
REMARK  Name = 
REMARK  9 active torsions:
REMARK  status: ('A' for Active; 'I' for Inactive)
REMARK    1  A    between atoms: C_1  and  O_2
REMARK    2  A    between atoms: O_2  and  C_3
REMARK    3  A    between atoms: C_10  and  C_11
REMARK    4  A    between atoms: N_13  and  C_14
REMARK    5  A    between atoms: C_14  and  C_15
REMARK    6  A    between atoms: C_18  and  N_19
REMARK    7  A    between atoms: N_19  and  C_20
REMARK    8  A    between atoms: C_20  and  C_21
REMARK    9  A    between atoms: C_21  and  C_22
REMARK                            x       y       z     vdW  Elec       q    Type
REMARK                         _______ _______ _______ _____ _____    ______ ____
ROOT
ATOM      1  C   UNL     1      49.148   7.900  15.971  0.00  0.00    +0.000 A 
ATOM      2  C   UNL     1      50.221   7.006  16.045  0.00  0.00    +0.000 A 
ATOM      3  C   UNL     1      50.724   6.596  17.283  0.00  0.00    +0.000 A 
ATOM      4  C   UNL     1      50.192   7.095  18.476  0.00  0.00    +0.000 A 
ATOM      5  C   UNL     1      49.083   7.945  18.398  0.00  0.00    +0.000 A 
ATOM      6  C   UNL     1      48.572   8.356  17.162  0.00  0.00    +0.000 A 
ENDROOT
BRANCH   4   7
ATOM      7  N   UNL     1      50.644   6.714  19.750  0.00  0.00    +0.000 N 
ATOM      8  H   UNL     1      50.227   7.337  20.442  0.00  0.00    +0.000 HD
BRANCH   7   9
ATOM      9  C   UNL     1      50.485   5.308  20.147  0.00  0.00    +0.000 C 
BRANCH   9  10
ATOM     10  C   UNL     1      49.009   4.882  20.118  0.00  0.00    +0.000 C 
BRANCH  10  11
ATOM     11  C   UNL     1      48.615   4.254  18.806  0.00  0.00    +0.000 A 
ATOM     12  C   UNL     1      47.440   4.650  18.151  0.00  0.00    +0.000 A 
ATOM     13  C   UNL     1      47.075   4.064  16.936  0.00  0.00    +0.000 A 
ATOM     14  C   UNL     1      47.883   3.082  16.364  0.00  0.00    +0.000 A 
ATOM     15  C   UNL     1      49.047   2.692  17.013  0.00  0.00    +0.000 A 
ATOM     16  F   UNL     1      49.822   1.746  16.466  0.00  0.00    +0.000 F 
ATOM     17  C   UNL     1      49.421   3.267  18.223  0.00  0.00    +0.000 A 
ENDBRANCH  10  11
ENDBRANCH   9  10
ENDBRANCH   7   9
ENDBRANCH   4   7
BRANCH   1  18
ATOM     18  C   UNL     1      48.606   8.322  14.633  0.00  0.00    +0.000 C 
BRANCH  18  21
ATOM     19  C   UNL     1      47.761   6.424  13.340  0.00  0.00    +0.000 C 
ATOM     20  O   UNL     1      48.891   6.211  12.899  0.00  0.00    +0.000 OA
ATOM     21  N   UNL     1      47.531   7.460  14.204  0.00  0.00    +0.000 N 
ATOM     22  H   UNL     1      46.605   7.625  14.577  0.00  0.00    +0.000 HD
BRANCH  19  30
ATOM     23  C   UNL     1      44.706   7.044  11.858  0.00  0.00    +0.000 A 
ATOM     24  N   UNL     1      43.463   6.999  11.336  0.00  0.00    +0.000 NA
ATOM     25  C   UNL     1      42.854   5.814  11.256  0.00  0.00    +0.000 A 
ATOM     26  N   UNL     1      43.345   4.638  11.640  0.00  0.00    +0.000 NA
ATOM     27  C   UNL     1      44.576   4.727  12.166  0.00  0.00    +0.000 A 
ATOM     28  S   UNL     1      45.357   3.322  12.704  0.00  0.00    +0.000 S 
ATOM     29  C   UNL     1      46.722   4.207  13.187  0.00  0.00    +0.000 A 
ATOM     30  C   UNL     1      46.623   5.574  12.951  0.00  0.00    +0.000 A 
ATOM     31  C   UNL     1      45.340   5.882  12.330  0.00  0.00    +0.000 A 
BRANCH  23  33
ATOM     32  C   UNL     1      44.558   9.314  11.345  0.00  0.00    +0.000 C 
ATOM     33  O   UNL     1      45.332   8.272  11.936  0.00  0.00    +0.000 OA
ENDBRANCH  23  33
ENDBRANCH  19  30
ENDBRANCH  18  21
ENDBRANCH   1  18
TORSDOF 8
ENDMDL
