MODEL 1
REMARK VINA RESULT:    -7.381      0.000      0.000
REMARK INTER + INTRA:         -10.244
REMARK INTER:                  -9.539
REMARK INTRA:                  -0.706
REMARK UNBOUND:                -0.706
REMARK  Name = 
REMARK  6 active torsions:
REMARK  status: ('A' for Active; 'I' for Inactive)
REMARK    1  A    between atoms: N_1  and  C_2
REMARK    2  A    between atoms: C_2  and  C_3
REMARK    3  A    between atoms: C_6  and  C_7
REMARK    4  A    between atoms: C_7  and  C_8
REMARK    5  A    between atoms: C_8  and  C_9
REMARK    6  A    between atoms: C_14  and  N_15
REMARK                            x       y       z     vdW  Elec       q    Type
REMARK                         _______ _______ _______ _____ _____    ______ ____
ROOT
ATOM      1  C   UNL     1      43.906   4.430  10.311  0.00  0.00    +0.000 C 
ENDROOT
BRANCH   1   5
ATOM      2  C   UNL     1      46.572   2.326   7.588  0.00  0.00    +0.000 A 
ATOM      3  C   UNL     1      46.454   3.719   7.522  0.00  0.00    +0.000 A 
ATOM      4  C   UNL     1      45.581   4.409   8.369  0.00  0.00    +0.000 A 
ATOM      5  C   UNL     1      44.785   3.722   9.294  0.00  0.00    +0.000 A 
ATOM      6  C   UNL     1      44.888   2.322   9.343  0.00  0.00    +0.000 A 
ATOM      7  C   UNL     1      45.767   1.632   8.498  0.00  0.00    +0.000 A 
BRANCH   2   8
ATOM      8  C   UNL     1      47.563   1.602   6.713  0.00  0.00    +0.000 C 
BRANCH   8   9
ATOM      9  N   UNL     1      48.666   2.478   6.328  0.00  0.00    +0.000 NA
ATOM     10  H   UNL     1      48.295   3.296   5.850  0.00  0.00    +0.000 HD
ATOM     11  H   UNL     1      49.251   1.987   5.654  0.00  0.00    +0.000 HD
ENDBRANCH   8   9
ENDBRANCH   2   8
ENDBRANCH   1   5
BRANCH   1  12
ATOM     12  C   UNL     1      44.332   4.281  11.778  0.00  0.00    +0.000 C 
BRANCH  12  13
ATOM     13  C   UNL     1      45.575   5.066  12.119  0.00  0.00    +0.000 A 
ATOM     14  C   UNL     1      45.786   6.313  11.508  0.00  0.00    +0.000 A 
ATOM     15  C   UNL     1      46.905   7.067  11.833  0.00  0.00    +0.000 A 
ATOM     16  C   UNL     1      47.790   6.542  12.754  0.00  0.00    +0.000 A 
ATOM     17  N   UNL     1      47.636   5.335  13.340  0.00  0.00    +0.000 NA
ATOM     18  C   UNL     1      46.544   4.619  13.019  0.00  0.00    +0.000 A 
BRANCH  18  19
ATOM     19  N   UNL     1      46.458   3.376  13.640  0.00  0.00    +0.000 N 
ATOM     20  H   UNL     1      47.338   2.903  13.445  0.00  0.00    +0.000 HD
ATOM     21  H   UNL     1      46.308   3.473  14.637  0.00  0.00    +0.000 HD
ENDBRANCH  18  19
ENDBRANCH  12  13
ENDBRANCH   1  12
TORSDOF 6
ENDMDL
MODEL 2
REMARK VINA RESULT:    -7.254      0.710      1.361
REMARK INTER + INTRA:         -10.080
REMARK INTER:                  -9.343
REMARK INTRA:                  -0.737
REMARK UNBOUND:                -0.706
REMARK  Name = 
REMARK  6 active torsions:
REMARK  status: ('A' for Active; 'I' for Inactive)
REMARK    1  A    between atoms: N_1  and  C_2
REMARK    2  A    between atoms: C_2  and  C_3
REMARK    3  A    between atoms: C_6  and  C_7
REMARK    4  A    between atoms: C_7  and  C_8
REMARK    5  A    between atoms: C_8  and  C_9
REMARK    6  A    between atoms: C_14  and  N_15
REMARK                            x       y       z     vdW  Elec       q    Type
REMARK                         _______ _______ _______ _____ _____    ______ ____
ROOT
ATOM      1  C   UNL     1      43.798   4.786   9.955  0.00  0.00    +0.000 C 
ENDROOT
BRANCH   1   5
ATOM      2  C   UNL     1      46.449   2.144   7.731  0.00  0.00    +0.000 A 
ATOM      3  C   UNL     1      45.562   1.618   8.676  0.00  0.00    +0.000 A 
ATOM      4  C   UNL     1      44.723   2.454   9.421  0.00  0.00    +0.000 A 
ATOM      5  C   UNL     1      44.764   3.845   9.255  0.00  0.00    +0.000 A 
ATOM      6  C   UNL     1      45.670   4.372   8.322  0.00  0.00    +0.000 A 
ATOM      7  C   UNL     1      46.506   3.533   7.572  0.00  0.00    +0.000 A 
BRANCH   2   8
ATOM      8  C   UNL     1      47.301   1.228   6.891  0.00  0.00    +0.000 C 
BRANCH   8   9
ATOM      9  N   UNL     1      48.367   1.966   6.220  0.00  0.00    +0.000 NA
ATOM     10  H   UNL     1      48.845   2.556   6.897  0.00  0.00    +0.000 HD
ATOM     11  H   UNL     1      47.947   2.591   5.534  0.00  0.00    +0.000 HD
ENDBRANCH   8   9
ENDBRANCH   2   8
ENDBRANCH   1   5
BRANCH   1  12
ATOM     12  C   UNL     1      43.721   4.648  11.481  0.00  0.00    +0.000 C 
BRANCH  12  13
ATOM     13  C   UNL     1      44.982   5.091  12.182  0.00  0.00    +0.000 A 
ATOM     14  C   UNL     1      45.318   6.455  12.187  0.00  0.00    +0.000 A 
ATOM     15  C   UNL     1      46.455   6.889  12.856  0.00  0.00    +0.000 A 
ATOM     16  C   UNL     1      47.230   5.940  13.492  0.00  0.00    +0.000 A 
ATOM     17  N   UNL     1      46.955   4.617  13.483  0.00  0.00    +0.000 NA
ATOM     18  C   UNL     1      45.847   4.213  12.836  0.00  0.00    +0.000 A 
BRANCH  18  19
ATOM     19  N   UNL     1      45.634   2.838  12.848  0.00  0.00    +0.000 N 
ATOM     20  H   UNL     1      45.438   2.576  11.884  0.00  0.00    +0.000 HD
ATOM     21  H   UNL     1      46.443   2.343  13.204  0.00  0.00    +0.000 HD
ENDBRANCH  18  19
ENDBRANCH  12  13
ENDBRANCH   1  12
TORSDOF 6
ENDMDL
MODEL 3
REMARK VINA RESULT:    -6.620      1.737      5.673
REMARK INTER + INTRA:          -9.261
REMARK INTER:                  -9.269
REMARK INTRA:                   0.008
REMARK UNBOUND:                -0.706
REMARK  Name = 
REMARK  6 active torsions:
REMARK  status: ('A' for Active; 'I' for Inactive)
REMARK    1  A    between atoms: N_1  and  C_2
REMARK    2  A    between atoms: C_2  and  C_3
REMARK    3  A    between atoms: C_6  and  C_7
REMARK    4  A    between atoms: C_7  and  C_8
REMARK    5  A    between atoms: C_8  and  C_9
REMARK    6  A    between atoms: C_14  and  N_15
REMARK                            x       y       z     vdW  Elec       q    Type
REMARK                         _______ _______ _______ _____ _____    ______ ____
ROOT
ATOM      1  C   UNL     1      44.256   4.090  10.043  0.00  0.00    +0.000 C 
ENDROOT
BRANCH   1   5
ATOM      2  C   UNL     1      47.026   6.078  12.749  0.00  0.00    +0.000 A 
ATOM      3  C   UNL     1      46.367   4.911  13.150  0.00  0.00    +0.000 A 
ATOM      4  C   UNL     1      45.452   4.275  12.304  0.00  0.00    +0.000 A 
ATOM      5  C   UNL     1      45.155   4.801  11.041  0.00  0.00    +0.000 A 
ATOM      6  C   UNL     1      45.801   5.985  10.650  0.00  0.00    +0.000 A 
ATOM      7  C   UNL     1      46.722   6.618  11.495  0.00  0.00    +0.000 A 
BRANCH   2   8
ATOM      8  C   UNL     1      48.057   6.717  13.645  0.00  0.00    +0.000 C 
BRANCH   8   9
ATOM      9  N   UNL     1      49.385   6.665  13.041  0.00  0.00    +0.000 NA
ATOM     10  H   UNL     1      49.294   6.512  12.040  0.00  0.00    +0.000 HD
ATOM     11  H   UNL     1      49.880   5.856  13.415  0.00  0.00    +0.000 HD
ENDBRANCH   8   9
ENDBRANCH   2   8
ENDBRANCH   1   5
BRANCH   1  12
ATOM     12  C   UNL     1      44.645   4.246   8.567  0.00  0.00    +0.000 C 
BRANCH  12  13
ATOM     13  C   UNL     1      45.617   3.194   8.094  0.00  0.00    +0.000 A 
ATOM     14  C   UNL     1      46.656   3.563   7.224  0.00  0.00    +0.000 A 
ATOM     15  C   UNL     1      47.583   2.618   6.804  0.00  0.00    +0.000 A 
ATOM     16  C   UNL     1      47.432   1.323   7.259  0.00  0.00    +0.000 A 
ATOM     17  N   UNL     1      46.429   0.924   8.071  0.00  0.00    +0.000 NA
ATOM     18  C   UNL     1      45.544   1.853   8.474  0.00  0.00    +0.000 A 
BRANCH  18  19
ATOM     19  N   UNL     1      44.524   1.371   9.290  0.00  0.00    +0.000 N 
ATOM     20  H   UNL     1      43.821   0.985   8.663  0.00  0.00    +0.000 HD
ATOM     21  H   UNL     1      44.868   0.667   9.932  0.00  0.00    +0.000 HD
ENDBRANCH  18  19
ENDBRANCH  12  13
ENDBRANCH   1  12
TORSDOF 6
ENDMDL
MODEL 4
REMARK VINA RESULT:    -5.843      2.132      5.458
REMARK INTER + INTRA:          -8.257
REMARK INTER:                  -7.614
REMARK INTRA:                  -0.643
REMARK UNBOUND:                -0.706
REMARK  Name = 
REMARK  6 active torsions:
REMARK  status: ('A' for Active; 'I' for Inactive)
REMARK    1  A    between atoms: N_1  and  C_2
REMARK    2  A    between atoms: C_2  and  C_3
REMARK    3  A    between atoms: C_6  and  C_7
REMARK    4  A    between atoms: C_7  and  C_8
REMARK    5  A    between atoms: C_8  and  C_9
REMARK    6  A    between atoms: C_14  and  N_15
REMARK                            x       y       z     vdW  Elec       q    Type
REMARK                         _______ _______ _______ _____ _____    ______ ____
ROOT
ATOM      1  C   UNL     1      43.542   5.136  12.874  0.00  0.00    +0.000 C 
ENDROOT
BRANCH   1   5
ATOM      2  C   UNL     1      47.647   6.585  12.906  0.00  0.00    +0.000 A 
ATOM      3  C   UNL     1      47.341   5.326  13.436  0.00  0.00    +0.000 A 
ATOM      4  C   UNL     1      46.023   4.857  13.461  0.00  0.00    +0.000 A 
ATOM      5  C   UNL     1      44.971   5.643  12.974  0.00  0.00    +0.000 A 
ATOM      6  C   UNL     1      45.278   6.913  12.463  0.00  0.00    +0.000 A 
ATOM      7  C   UNL     1      46.598   7.381  12.433  0.00  0.00    +0.000 A 
BRANCH   2   8
ATOM      8  C   UNL     1      49.078   7.052  12.828  0.00  0.00    +0.000 C 
BRANCH   8   9
ATOM      9  N   UNL     1      49.756   6.889  14.110  0.00  0.00    +0.000 NA
ATOM     10  H   UNL     1      50.277   7.736  14.325  0.00  0.00    +0.000 HD
ATOM     11  H   UNL     1      50.442   6.140  14.022  0.00  0.00    +0.000 HD
ENDBRANCH   8   9
ENDBRANCH   2   8
ENDBRANCH   1   5
BRANCH   1  12
ATOM     12  C   UNL     1      42.951   5.081  11.460  0.00  0.00    +0.000 C 
BRANCH  12  13
ATOM     13  C   UNL     1      43.762   4.236  10.509  0.00  0.00    +0.000 A 
ATOM     14  C   UNL     1      44.381   4.848   9.407  0.00  0.00    +0.000 A 
ATOM     15  C   UNL     1      45.161   4.095   8.539  0.00  0.00    +0.000 A 
ATOM     16  C   UNL     1      45.287   2.744   8.794  0.00  0.00    +0.000 A 
ATOM     17  N   UNL     1      44.682   2.115   9.825  0.00  0.00    +0.000 NA
ATOM     18  C   UNL     1      43.936   2.859  10.661  0.00  0.00    +0.000 A 
BRANCH  18  19
ATOM     19  N   UNL     1      43.324   2.146  11.688  0.00  0.00    +0.000 N 
ATOM     20  H   UNL     1      43.584   2.619  12.552  0.00  0.00    +0.000 HD
ATOM     21  H   UNL     1      42.319   2.122  11.571  0.00  0.00    +0.000 HD
ENDBRANCH  18  19
ENDBRANCH  12  13
ENDBRANCH   1  12
TORSDOF 6
ENDMDL
MODEL 5
REMARK VINA RESULT:    -5.738      2.101      6.020
REMARK INTER + INTRA:          -8.121
REMARK INTER:                  -7.556
REMARK INTRA:                  -0.565
REMARK UNBOUND:                -0.706
REMARK  Name = 
REMARK  6 active torsions:
REMARK  status: ('A' for Active; 'I' for Inactive)
REMARK    1  A    between atoms: N_1  and  C_2
REMARK    2  A    between atoms: C_2  and  C_3
REMARK    3  A    between atoms: C_6  and  C_7
REMARK    4  A    between atoms: C_7  and  C_8
REMARK    5  A    between atoms: C_8  and  C_9
REMARK    6  A    between atoms: C_14  and  N_15
REMARK                            x       y       z     vdW  Elec       q    Type
REMARK                         _______ _______ _______ _____ _____    ______ ____
ROOT
ATOM      1  C   UNL     1      45.876   6.229  11.025  0.00  0.00    +0.000 C 
ENDROOT
BRANCH   1   5
ATOM      2  C   UNL     1      47.567   5.321  14.931  0.00  0.00    +0.000 A 
ATOM      3  C   UNL     1      48.033   6.420  14.201  0.00  0.00    +0.000 A 
ATOM      4  C   UNL     1      47.521   6.710  12.932  0.00  0.00    +0.000 A 
ATOM      5  C   UNL     1      46.543   5.895  12.348  0.00  0.00    +0.000 A 
ATOM      6  C   UNL     1      46.093   4.781  13.073  0.00  0.00    +0.000 A 
ATOM      7  C   UNL     1      46.602   4.494  14.347  0.00  0.00    +0.000 A 
BRANCH   2   8
ATOM      8  C   UNL     1      48.081   5.058  16.324  0.00  0.00    +0.000 C 
BRANCH   8   9
ATOM      9  N   UNL     1      49.522   5.279  16.405  0.00  0.00    +0.000 NA
ATOM     10  H   UNL     1      49.730   5.847  17.222  0.00  0.00    +0.000 HD
ATOM     11  H   UNL     1      49.813   5.821  15.592  0.00  0.00    +0.000 HD
ENDBRANCH   8   9
ENDBRANCH   2   8
ENDBRANCH   1   5
BRANCH   1  12
ATOM     12  C   UNL     1      44.714   5.315  10.614  0.00  0.00    +0.000 C 
BRANCH  12  13
ATOM     13  C   UNL     1      45.127   4.221   9.660  0.00  0.00    +0.000 A 
ATOM     14  C   UNL     1      45.894   4.553   8.530  0.00  0.00    +0.000 A 
ATOM     15  C   UNL     1      46.315   3.558   7.658  0.00  0.00    +0.000 A 
ATOM     16  C   UNL     1      45.943   2.257   7.937  0.00  0.00    +0.000 A 
ATOM     17  N   UNL     1      45.182   1.905   8.995  0.00  0.00    +0.000 NA
ATOM     18  C   UNL     1      44.788   2.879   9.834  0.00  0.00    +0.000 A 
BRANCH  18  19
ATOM     19  N   UNL     1      43.989   2.450  10.891  0.00  0.00    +0.000 N 
ATOM     20  H   UNL     1      44.184   3.083  11.665  0.00  0.00    +0.000 HD
ATOM     21  H   UNL     1      43.008   2.468  10.641  0.00  0.00    +0.000 HD
ENDBRANCH  18  19
ENDBRANCH  12  13
ENDBRANCH   1  12
TORSDOF 6
ENDMDL
MODEL 6
REMARK VINA RESULT:    -5.682      1.681      2.553
REMARK INTER + INTRA:          -8.049
REMARK INTER:                  -7.349
REMARK INTRA:                  -0.700
REMARK UNBOUND:                -0.706
REMARK  Name = 
REMARK  6 active torsions:
REMARK  status: ('A' for Active; 'I' for Inactive)
REMARK    1  A    between atoms: N_1  and  C_2
REMARK    2  A    between atoms: C_2  and  C_3
REMARK    3  A    between atoms: C_6  and  C_7
REMARK    4  A    between atoms: C_7  and  C_8
REMARK    5  A    between atoms: C_8  and  C_9
REMARK    6  A    between atoms: C_14  and  N_15
REMARK                            x       y       z     vdW  Elec       q    Type
REMARK                         _______ _______ _______ _____ _____    ______ ____
ROOT
ATOM      1  C   UNL     1      44.519   6.573  11.443  0.00  0.00    +0.000 C 
ENDROOT
BRANCH   1   5
ATOM      2  C   UNL     1      44.930   2.763   9.378  0.00  0.00    +0.000 A 
ATOM      3  C   UNL     1      44.334   2.817  10.644  0.00  0.00    +0.000 A 
ATOM      4  C   UNL     1      44.220   4.028  11.334  0.00  0.00    +0.000 A 
ATOM      5  C   UNL     1      44.718   5.218  10.787  0.00  0.00    +0.000 A 
ATOM      6  C   UNL     1      45.335   5.157   9.527  0.00  0.00    +0.000 A 
ATOM      7  C   UNL     1      45.445   3.945   8.833  0.00  0.00    +0.000 A 
BRANCH   2   8
ATOM      8  C   UNL     1      44.990   1.463   8.619  0.00  0.00    +0.000 C 
BRANCH   8   9
ATOM      9  N   UNL     1      46.356   1.157   8.204  0.00  0.00    +0.000 NA
ATOM     10  H   UNL     1      46.468   1.385   7.219  0.00  0.00    +0.000 HD
ATOM     11  H   UNL     1      46.503   0.152   8.288  0.00  0.00    +0.000 HD
ENDBRANCH   8   9
ENDBRANCH   2   8
ENDBRANCH   1   5
BRANCH   1  12
ATOM     12  C   UNL     1      45.124   6.731  12.844  0.00  0.00    +0.000 C 
BRANCH  12  13
ATOM     13  C   UNL     1      46.630   6.823  12.834  0.00  0.00    +0.000 A 
ATOM     14  C   UNL     1      47.258   7.651  11.888  0.00  0.00    +0.000 A 
ATOM     15  C   UNL     1      48.641   7.778  11.883  0.00  0.00    +0.000 A 
ATOM     16  C   UNL     1      49.357   7.061  12.821  0.00  0.00    +0.000 A 
ATOM     17  N   UNL     1      48.791   6.233  13.725  0.00  0.00    +0.000 NA
ATOM     18  C   UNL     1      47.450   6.125  13.721  0.00  0.00    +0.000 A 
BRANCH  18  19
ATOM     19  N   UNL     1      46.934   5.240  14.664  0.00  0.00    +0.000 N 
ATOM     20  H   UNL     1      47.043   4.309  14.264  0.00  0.00    +0.000 HD
ATOM     21  H   UNL     1      47.421   5.319  15.548  0.00  0.00    +0.000 HD
ENDBRANCH  18  19
ENDBRANCH  12  13
ENDBRANCH   1  12
TORSDOF 6
ENDMDL
MODEL 7
REMARK VINA RESULT:    -5.677      2.914      6.436
REMARK INTER + INTRA:          -8.042
REMARK INTER:                  -7.522
REMARK INTRA:                  -0.520
REMARK UNBOUND:                -0.706
REMARK  Name = 
REMARK  6 active torsions:
REMARK  status: ('A' for Active; 'I' for Inactive)
REMARK    1  A    between atoms: N_1  and  C_2
REMARK    2  A    between atoms: C_2  and  C_3
REMARK    3  A    between atoms: C_6  and  C_7
REMARK    4  A    between atoms: C_7  and  C_8
REMARK    5  A    between atoms: C_8  and  C_9
REMARK    6  A    between atoms: C_14  and  N_15
REMARK                            x       y       z     vdW  Elec       q    Type
REMARK                         _______ _______ _______ _____ _____    ______ ____
ROOT
ATOM      1  C   UNL     1      47.362   6.812  12.287  0.00  0.00    +0.000 C 
ENDROOT
BRANCH   1   5
ATOM      2  C   UNL     1      47.731   4.663  16.054  0.00  0.00    +0.000 A 
ATOM      3  C   UNL     1      48.369   5.896  15.883  0.00  0.00    +0.000 A 
ATOM      4  C   UNL     1      48.285   6.587  14.669  0.00  0.00    +0.000 A 
ATOM      5  C   UNL     1      47.577   6.053  13.585  0.00  0.00    +0.000 A 
ATOM      6  C   UNL     1      46.957   4.805  13.753  0.00  0.00    +0.000 A 
ATOM      7  C   UNL     1      47.036   4.115  14.970  0.00  0.00    +0.000 A 
BRANCH   2   8
ATOM      8  C   UNL     1      47.776   3.960  17.387  0.00  0.00    +0.000 C 
BRANCH   8   9
ATOM      9  N   UNL     1      46.585   3.140  17.591  0.00  0.00    +0.000 NA
ATOM     10  H   UNL     1      46.440   2.547  16.778  0.00  0.00    +0.000 HD
ATOM     11  H   UNL     1      45.774   3.755  17.652  0.00  0.00    +0.000 HD
ENDBRANCH   8   9
ENDBRANCH   2   8
ENDBRANCH   1   5
BRANCH   1  12
ATOM     12  C   UNL     1      45.904   7.146  11.943  0.00  0.00    +0.000 C 
BRANCH  12  13
ATOM     13  C   UNL     1      45.215   6.057  11.158  0.00  0.00    +0.000 A 
ATOM     14  C   UNL     1      45.794   5.604   9.962  0.00  0.00    +0.000 A 
ATOM     15  C   UNL     1      45.195   4.579   9.242  0.00  0.00    +0.000 A 
ATOM     16  C   UNL     1      44.022   4.045   9.737  0.00  0.00    +0.000 A 
ATOM     17  N   UNL     1      43.420   4.474  10.867  0.00  0.00    +0.000 NA
ATOM     18  C   UNL     1      44.016   5.463  11.556  0.00  0.00    +0.000 A 
BRANCH  18  19
ATOM     19  N   UNL     1      43.332   5.872  12.698  0.00  0.00    +0.000 N 
ATOM     20  H   UNL     1      44.045   6.176  13.359  0.00  0.00    +0.000 HD
ATOM     21  H   UNL     1      42.683   6.621  12.489  0.00  0.00    +0.000 HD
ENDBRANCH  18  19
ENDBRANCH  12  13
ENDBRANCH   1  12
TORSDOF 6
ENDMDL
MODEL 8
REMARK VINA RESULT:    -5.654      1.703      5.812
REMARK INTER + INTRA:          -8.013
REMARK INTER:                  -7.343
REMARK INTRA:                  -0.670
REMARK UNBOUND:                -0.706
REMARK  Name = 
REMARK  6 active torsions:
REMARK  status: ('A' for Active; 'I' for Inactive)
REMARK    1  A    between atoms: N_1  and  C_2
REMARK    2  A    between atoms: C_2  and  C_3
REMARK    3  A    between atoms: C_6  and  C_7
REMARK    4  A    between atoms: C_7  and  C_8
REMARK    5  A    between atoms: C_8  and  C_9
REMARK    6  A    between atoms: C_14  and  N_15
REMARK                            x       y       z     vdW  Elec       q    Type
REMARK                         _______ _______ _______ _____ _____    ______ ____
ROOT
ATOM      1  C   UNL     1      44.254   3.448  12.057  0.00  0.00    +0.000 C 
ENDROOT
BRANCH   1   5
ATOM      2  C   UNL     1      47.164   6.350  13.494  0.00  0.00    +0.000 A 
ATOM      3  C   UNL     1      47.351   4.985  13.739  0.00  0.00    +0.000 A 
ATOM      4  C   UNL     1      46.412   4.041  13.310  0.00  0.00    +0.000 A 
ATOM      5  C   UNL     1      45.247   4.439  12.641  0.00  0.00    +0.000 A 
ATOM      6  C   UNL     1      45.051   5.810  12.416  0.00  0.00    +0.000 A 
ATOM      7  C   UNL     1      45.995   6.755  12.841  0.00  0.00    +0.000 A 
BRANCH   2   8
ATOM      8  C   UNL     1      48.214   7.350  13.905  0.00  0.00    +0.000 C 
BRANCH   8   9
ATOM      9  N   UNL     1      49.487   6.692  14.188  0.00  0.00    +0.000 NA
ATOM     10  H   UNL     1      49.408   5.700  13.975  0.00  0.00    +0.000 HD
ATOM     11  H   UNL     1      49.673   6.761  15.187  0.00  0.00    +0.000 HD
ENDBRANCH   8   9
ENDBRANCH   2   8
ENDBRANCH   1   5
BRANCH   1  12
ATOM     12  C   UNL     1      43.766   3.753  10.635  0.00  0.00    +0.000 C 
BRANCH  12  13
ATOM     13  C   UNL     1      44.727   3.296   9.566  0.00  0.00    +0.000 A 
ATOM     14  C   UNL     1      44.859   1.921   9.308  0.00  0.00    +0.000 A 
ATOM     15  C   UNL     1      45.712   1.480   8.304  0.00  0.00    +0.000 A 
ATOM     16  C   UNL     1      46.419   2.431   7.595  0.00  0.00    +0.000 A 
ATOM     17  N   UNL     1      46.340   3.758   7.835  0.00  0.00    +0.000 NA
ATOM     18  C   UNL     1      45.505   4.170   8.806  0.00  0.00    +0.000 A 
BRANCH  18  19
ATOM     19  N   UNL     1      45.489   5.546   9.015  0.00  0.00    +0.000 N 
ATOM     20  H   UNL     1      44.839   5.927   8.330  0.00  0.00    +0.000 HD
ATOM     21  H   UNL     1      45.199   5.771   9.959  0.00  0.00    +0.000 HD
ENDBRANCH  18  19
ENDBRANCH  12  13
ENDBRANCH   1  12
TORSDOF 6
ENDMDL
MODEL 9
REMARK VINA RESULT:    -5.477      2.583      6.163
REMARK INTER + INTRA:          -7.784
REMARK INTER:                  -7.141
REMARK INTRA:                  -0.643
REMARK UNBOUND:                -0.706
REMARK  Name = 
REMARK  6 active torsions:
REMARK  status: ('A' for Active; 'I' for Inactive)
REMARK    1  A    between atoms: N_1  and  C_2
REMARK    2  A    between atoms: C_2  and  C_3
REMARK    3  A    between atoms: C_6  and  C_7
REMARK    4  A    between atoms: C_7  and  C_8
REMARK    5  A    between atoms: C_8  and  C_9
REMARK    6  A    between atoms: C_14  and  N_15
REMARK                            x       y       z     vdW  Elec       q    Type
REMARK                         _______ _______ _______ _____ _____    ______ ____
ROOT
ATOM      1  C   UNL     1      45.277   5.381  12.690  0.00  0.00    +0.000 C 
ENDROOT
BRANCH   1   5
ATOM      2  C   UNL     1      47.390   9.151  12.167  0.00  0.00    +0.000 A 
ATOM      3  C   UNL     1      48.056   7.937  11.965  0.00  0.00    +0.000 A 
ATOM      4  C   UNL     1      47.401   6.716  12.157  0.00  0.00    +0.000 A 
ATOM      5  C   UNL     1      46.065   6.675  12.577  0.00  0.00    +0.000 A 
ATOM      6  C   UNL     1      45.406   7.894  12.801  0.00  0.00    +0.000 A 
ATOM      7  C   UNL     1      46.061   9.117  12.603  0.00  0.00    +0.000 A 
BRANCH   2   8
ATOM      8  C   UNL     1      48.089  10.459  11.896  0.00  0.00    +0.000 C 
BRANCH   8   9
ATOM      9  N   UNL     1      47.588  11.515  12.771  0.00  0.00    +0.000 NA
ATOM     10  H   UNL     1      47.117  11.097  13.569  0.00  0.00    +0.000 HD
ATOM     11  H   UNL     1      46.884  12.050  12.264  0.00  0.00    +0.000 HD
ENDBRANCH   8   9
ENDBRANCH   2   8
ENDBRANCH   1   5
BRANCH   1  12
ATOM     12  C   UNL     1      44.143   5.200  11.673  0.00  0.00    +0.000 C 
BRANCH  12  13
ATOM     13  C   UNL     1      44.520   4.310  10.514  0.00  0.00    +0.000 A 
ATOM     14  C   UNL     1      45.212   4.863   9.424  0.00  0.00    +0.000 A 
ATOM     15  C   UNL     1      45.600   4.055   8.363  0.00  0.00    +0.000 A 
ATOM     16  C   UNL     1      45.271   2.715   8.420  0.00  0.00    +0.000 A 
ATOM     17  N   UNL     1      44.581   2.154   9.437  0.00  0.00    +0.000 NA
ATOM     18  C   UNL     1      44.218   2.949  10.460  0.00  0.00    +0.000 A 
BRANCH  18  19
ATOM     19  N   UNL     1      43.492   2.312  11.462  0.00  0.00    +0.000 N 
ATOM     20  H   UNL     1      43.974   2.522  12.335  0.00  0.00    +0.000 HD
ATOM     21  H   UNL     1      42.534   2.639  11.486  0.00  0.00    +0.000 HD
ENDBRANCH  18  19
ENDBRANCH  12  13
ENDBRANCH   1  12
TORSDOF 6
ENDMDL
