MODEL 1
REMARK VINA RESULT:    -8.191      0.000      0.000
REMARK INTER + INTRA:         -11.331
REMARK INTER:                 -10.586
REMARK INTRA:                  -0.745
REMARK UNBOUND:                -0.745
REMARK  Name = 
REMARK  5 active torsions:
REMARK  status: ('A' for Active; 'I' for Inactive)
REMARK    1  A    between atoms: C_2  and  C_4
REMARK    2  A    between atoms: C_8  and  C_9
REMARK    3  A    between atoms: C_9  and  C_10
REMARK    4  A    between atoms: C_10  and  C_11
REMARK    5  A    between atoms: C_15  and  C_16
REMARK                            x       y       z     vdW  Elec       q    Type
REMARK                         _______ _______ _______ _____ _____    ______ ____
ROOT
ATOM      1  C   UNL     1      45.222   5.772  11.216  0.00  0.00    +0.000 C 
ATOM      2  C   UNL     1      44.072   5.251  12.068  0.00  0.00    +0.000 C 
ATOM      3  C   UNL     1      44.103   6.701  11.711  0.00  0.00    +0.000 C 
ENDROOT
BRANCH   1   4
ATOM      4  C   UNL     1      46.556   6.036  11.907  0.00  0.00    +0.000 A 
ATOM      5  C   UNL     1      47.401   7.047  11.447  0.00  0.00    +0.000 A 
ATOM      6  C   UNL     1      48.378   7.554  12.293  0.00  0.00    +0.000 A 
ATOM      7  C   UNL     1      48.517   7.015  13.567  0.00  0.00    +0.000 A 
ATOM      8  C   UNL     1      47.719   5.935  13.933  0.00  0.00    +0.000 A 
ATOM      9  N   UNL     1      46.763   5.446  13.112  0.00  0.00    +0.000 NA
BRANCH   8  10
ATOM     10  C   UNL     1      47.813   5.271  15.238  0.00  0.00    +0.000 A 
ATOM     11  C   UNL     1      48.558   5.790  16.307  0.00  0.00    +0.000 A 
ATOM     12  C   UNL     1      48.617   5.102  17.517  0.00  0.00    +0.000 A 
ATOM     13  C   UNL     1      47.926   3.908  17.632  0.00  0.00    +0.000 A 
ATOM     14  F   UNL     1      48.002   3.237  18.788  0.00  0.00    +0.000 F 
ATOM     15  N   UNL     1      47.179   3.375  16.647  0.00  0.00    +0.000 NA
ATOM     16  C   UNL     1      47.133   4.075  15.486  0.00  0.00    +0.000 A 
ENDBRANCH   8  10
ENDBRANCH   1   4
BRANCH   1  17
ATOM     17  C   UNL     1      45.219   5.529   9.725  0.00  0.00    +0.000 C 
BRANCH  17  22
ATOM     18  C   UNL     1      46.440   2.788   7.416  0.00  0.00    +0.000 A 
ATOM     19  C   UNL     1      45.907   1.626   7.974  0.00  0.00    +0.000 A 
ATOM     20  C   UNL     1      45.095   1.719   9.109  0.00  0.00    +0.000 A 
ATOM     21  C   UNL     1      44.819   2.959   9.707  0.00  0.00    +0.000 A 
ATOM     22  C   UNL     1      45.379   4.128   9.182  0.00  0.00    +0.000 A 
ATOM     23  C   UNL     1      46.173   4.021   8.024  0.00  0.00    +0.000 A 
BRANCH  18  25
ATOM     24  N   UNL     1      48.647   2.550   6.398  0.00  0.00    +0.000 N 
ATOM     25  C   UNL     1      47.315   2.790   6.216  0.00  0.00    +0.000 C 
ATOM     26  O   UNL     1      46.863   2.956   5.086  0.00  0.00    +0.000 OA
ATOM     27  H   UNL     1      49.189   2.423   5.553  0.00  0.00    +0.000 HD
ATOM     28  H   UNL     1      49.009   2.153   7.252  0.00  0.00    +0.000 HD
ENDBRANCH  18  25
ENDBRANCH  17  22
ENDBRANCH   1  17
TORSDOF 5
ENDMDL
MODEL 2
REMARK VINA RESULT:    -7.587      3.015      4.289
REMARK INTER + INTRA:         -10.551
REMARK INTER:                 -10.126
REMARK INTRA:                  -0.424
REMARK UNBOUND:                -0.745
REMARK  Name = 
REMARK  5 active torsions:
REMARK  status: ('A' for Active; 'I' for Inactive)
REMARK    1  A    between atoms: C_2  and  C_4
REMARK    2  A    between atoms: C_8  and  C_9
REMARK    3  A    between atoms: C_9  and  C_10
REMARK    4  A    between atoms: C_10  and  C_11
REMARK    5  A    between atoms: C_15  and  C_16
REMARK                            x       y       z     vdW  Elec       q    Type
REMARK                         _______ _______ _______ _____ _____    ______ ____
ROOT
ATOM      1  C   UNL     1      43.859   4.388  11.507  0.00  0.00    +0.000 C 
ATOM      2  C   UNL     1      42.452   4.703  11.994  0.00  0.00    +0.000 C 
ATOM      3  C   UNL     1      43.092   5.622  11.007  0.00  0.00    +0.000 C 
ENDROOT
BRANCH   1   4
ATOM      4  C   UNL     1      45.026   4.749  12.419  0.00  0.00    +0.000 A 
ATOM      5  C   UNL     1      45.626   3.774  13.218  0.00  0.00    +0.000 A 
ATOM      6  C   UNL     1      46.906   3.992  13.710  0.00  0.00    +0.000 A 
ATOM      7  C   UNL     1      47.545   5.194  13.429  0.00  0.00    +0.000 A 
ATOM      8  C   UNL     1      46.856   6.173  12.720  0.00  0.00    +0.000 A 
ATOM      9  N   UNL     1      45.613   5.959  12.234  0.00  0.00    +0.000 NA
BRANCH   8  10
ATOM     10  C   UNL     1      47.426   7.488  12.403  0.00  0.00    +0.000 A 
ATOM     11  C   UNL     1      48.675   7.650  11.786  0.00  0.00    +0.000 A 
ATOM     12  C   UNL     1      49.165   8.928  11.525  0.00  0.00    +0.000 A 
ATOM     13  C   UNL     1      48.392  10.017  11.885  0.00  0.00    +0.000 A 
ATOM     14  F   UNL     1      48.875  11.245  11.654  0.00  0.00    +0.000 F 
ATOM     15  N   UNL     1      47.179   9.920  12.460  0.00  0.00    +0.000 NA
ATOM     16  C   UNL     1      46.725   8.663  12.690  0.00  0.00    +0.000 A 
ENDBRANCH   8  10
ENDBRANCH   1   4
BRANCH   1  17
ATOM     17  C   UNL     1      44.067   3.317  10.461  0.00  0.00    +0.000 C 
BRANCH  17  22
ATOM     18  C   UNL     1      46.556   2.372   7.769  0.00  0.00    +0.000 A 
ATOM     19  C   UNL     1      46.926   3.598   7.217  0.00  0.00    +0.000 A 
ATOM     20  C   UNL     1      46.393   4.779   7.746  0.00  0.00    +0.000 A 
ATOM     21  C   UNL     1      45.479   4.750   8.812  0.00  0.00    +0.000 A 
ATOM     22  C   UNL     1      45.068   3.525   9.348  0.00  0.00    +0.000 A 
ATOM     23  C   UNL     1      45.635   2.348   8.822  0.00  0.00    +0.000 A 
BRANCH  18  25
ATOM     24  N   UNL     1      46.558  -0.070   7.833  0.00  0.00    +0.000 N 
ATOM     25  C   UNL     1      47.065   1.068   7.273  0.00  0.00    +0.000 C 
ATOM     26  O   UNL     1      47.882   0.998   6.358  0.00  0.00    +0.000 OA
ATOM     27  H   UNL     1      46.821  -0.936   7.381  0.00  0.00    +0.000 HD
ATOM     28  H   UNL     1      45.711  -0.065   8.383  0.00  0.00    +0.000 HD
ENDBRANCH  18  25
ENDBRANCH  17  22
ENDBRANCH   1  17
TORSDOF 5
ENDMDL
MODEL 3
REMARK VINA RESULT:    -7.343      3.592      7.801
REMARK INTER + INTRA:         -10.235
REMARK INTER:                  -9.295
REMARK INTRA:                  -0.940
REMARK UNBOUND:                -0.745
REMARK  Name = 
REMARK  5 active torsions:
REMARK  status: ('A' for Active; 'I' for Inactive)
REMARK    1  A    between atoms: C_2  and  C_4
REMARK    2  A    between atoms: C_8  and  C_9
REMARK    3  A    between atoms: C_9  and  C_10
REMARK    4  A    between atoms: C_10  and  C_11
REMARK    5  A    between atoms: C_15  and  C_16
REMARK                            x       y       z     vdW  Elec       q    Type
REMARK                         _______ _______ _______ _____ _____    ______ ____
ROOT
ATOM      1  C   UNL     1      48.409   7.646  13.478  0.00  0.00    +0.000 C 
ATOM      2  C   UNL     1      49.507   7.000  12.643  0.00  0.00    +0.000 C 
ATOM      3  C   UNL     1      49.309   8.477  12.548  0.00  0.00    +0.000 C 
ENDROOT
BRANCH   1   4
ATOM      4  C   UNL     1      46.975   7.541  12.971  0.00  0.00    +0.000 A 
ATOM      5  C   UNL     1      46.134   8.654  12.994  0.00  0.00    +0.000 A 
ATOM      6  C   UNL     1      45.013   8.676  12.176  0.00  0.00    +0.000 A 
ATOM      7  C   UNL     1      44.731   7.571  11.382  0.00  0.00    +0.000 A 
ATOM      8  C   UNL     1      45.544   6.446  11.481  0.00  0.00    +0.000 A 
ATOM      9  N   UNL     1      46.640   6.427  12.271  0.00  0.00    +0.000 NA
BRANCH   8  10
ATOM     10  C   UNL     1      45.312   5.216  10.715  0.00  0.00    +0.000 A 
ATOM     11  C   UNL     1      45.531   5.124   9.332  0.00  0.00    +0.000 A 
ATOM     12  C   UNL     1      45.278   3.930   8.662  0.00  0.00    +0.000 A 
ATOM     13  C   UNL     1      44.813   2.850   9.391  0.00  0.00    +0.000 A 
ATOM     14  F   UNL     1      44.548   1.709   8.740  0.00  0.00    +0.000 F 
ATOM     15  N   UNL     1      44.605   2.875  10.720  0.00  0.00    +0.000 NA
ATOM     16  C   UNL     1      44.872   4.048  11.345  0.00  0.00    +0.000 A 
ENDBRANCH   8  10
ENDBRANCH   1   4
BRANCH   1  17
ATOM     17  C   UNL     1      48.636   7.894  14.950  0.00  0.00    +0.000 C 
BRANCH  17  22
ATOM     18  C   UNL     1      48.644   4.728  17.027  0.00  0.00    +0.000 A 
ATOM     19  C   UNL     1      49.975   4.599  17.425  0.00  0.00    +0.000 A 
ATOM     20  C   UNL     1      50.903   5.578  17.051  0.00  0.00    +0.000 A 
ATOM     21  C   UNL     1      50.521   6.679  16.268  0.00  0.00    +0.000 A 
ATOM     22  C   UNL     1      49.199   6.801  15.828  0.00  0.00    +0.000 A 
ATOM     23  C   UNL     1      48.273   5.821  16.235  0.00  0.00    +0.000 A 
BRANCH  18  25
ATOM     24  N   UNL     1      47.772   2.976  18.487  0.00  0.00    +0.000 N 
ATOM     25  C   UNL     1      47.590   3.741  17.371  0.00  0.00    +0.000 C 
ATOM     26  O   UNL     1      46.561   3.635  16.708  0.00  0.00    +0.000 OA
ATOM     27  H   UNL     1      46.979   2.414  18.769  0.00  0.00    +0.000 HD
ATOM     28  H   UNL     1      48.455   3.210  19.193  0.00  0.00    +0.000 HD
ENDBRANCH  18  25
ENDBRANCH  17  22
ENDBRANCH   1  17
TORSDOF 5
ENDMDL
MODEL 4
REMARK VINA RESULT:    -7.127      4.868      8.724
REMARK INTER + INTRA:          -9.956
REMARK INTER:                  -9.122
REMARK INTRA:                  -0.833
REMARK UNBOUND:                -0.745
REMARK  Name = 
REMARK  5 active torsions:
REMARK  status: ('A' for Active; 'I' for Inactive)
REMARK    1  A    between atoms: C_2  and  C_4
REMARK    2  A    between atoms: C_8  and  C_9
REMARK    3  A    between atoms: C_9  and  C_10
REMARK    4  A    between atoms: C_10  and  C_11
REMARK    5  A    between atoms: C_15  and  C_16
REMARK                            x       y       z     vdW  Elec       q    Type
REMARK                         _______ _______ _______ _____ _____    ______ ____
ROOT
ATOM      1  C   UNL     1      48.470   3.512  17.214  0.00  0.00    +0.000 C 
ATOM      2  C   UNL     1      48.066   3.571  18.681  0.00  0.00    +0.000 C 
ATOM      3  C   UNL     1      47.187   2.836  17.723  0.00  0.00    +0.000 C 
ENDROOT
BRANCH   1   4
ATOM      4  C   UNL     1      48.190   4.735  16.349  0.00  0.00    +0.000 A 
ATOM      5  C   UNL     1      48.927   5.907  16.522  0.00  0.00    +0.000 A 
ATOM      6  C   UNL     1      48.967   6.843  15.497  0.00  0.00    +0.000 A 
ATOM      7  C   UNL     1      48.237   6.609  14.337  0.00  0.00    +0.000 A 
ATOM      8  C   UNL     1      47.432   5.476  14.264  0.00  0.00    +0.000 A 
ATOM      9  N   UNL     1      47.400   4.561  15.259  0.00  0.00    +0.000 NA
BRANCH   8  10
ATOM     10  C   UNL     1      46.596   5.156  13.102  0.00  0.00    +0.000 A 
ATOM     11  C   UNL     1      46.417   6.036  12.024  0.00  0.00    +0.000 A 
ATOM     12  C   UNL     1      45.597   5.677  10.957  0.00  0.00    +0.000 A 
ATOM     13  C   UNL     1      44.974   4.442  10.990  0.00  0.00    +0.000 A 
ATOM     14  F   UNL     1      44.169   4.107   9.973  0.00  0.00    +0.000 F 
ATOM     15  N   UNL     1      45.127   3.550  11.986  0.00  0.00    +0.000 NA
ATOM     16  C   UNL     1      45.940   3.925  13.005  0.00  0.00    +0.000 A 
ENDBRANCH   8  10
ENDBRANCH   1   4
BRANCH   1  17
ATOM     17  C   UNL     1      49.548   2.549  16.773  0.00  0.00    +0.000 C 
BRANCH  17  22
ATOM     18  C   UNL     1      52.926   1.298  17.941  0.00  0.00    +0.000 A 
ATOM     19  C   UNL     1      53.551   2.446  18.430  0.00  0.00    +0.000 A 
ATOM     20  C   UNL     1      52.858   3.662  18.424  0.00  0.00    +0.000 A 
ATOM     21  C   UNL     1      51.550   3.751  17.919  0.00  0.00    +0.000 A 
ATOM     22  C   UNL     1      50.927   2.616  17.390  0.00  0.00    +0.000 A 
ATOM     23  C   UNL     1      51.628   1.396  17.427  0.00  0.00    +0.000 A 
BRANCH  18  25
ATOM     24  N   UNL     1      53.952  -0.527  16.685  0.00  0.00    +0.000 N 
ATOM     25  C   UNL     1      53.581  -0.033  17.903  0.00  0.00    +0.000 C 
ATOM     26  O   UNL     1      53.829  -0.663  18.929  0.00  0.00    +0.000 OA
ATOM     27  H   UNL     1      54.515  -1.368  16.705  0.00  0.00    +0.000 HD
ATOM     28  H   UNL     1      54.011   0.058  15.864  0.00  0.00    +0.000 HD
ENDBRANCH  18  25
ENDBRANCH  17  22
ENDBRANCH   1  17
TORSDOF 5
ENDMDL
MODEL 5
REMARK VINA RESULT:    -7.032      3.571      4.779
REMARK INTER + INTRA:          -9.833
REMARK INTER:                  -8.557
REMARK INTRA:                  -1.276
REMARK UNBOUND:                -0.745
REMARK  Name = 
REMARK  5 active torsions:
REMARK  status: ('A' for Active; 'I' for Inactive)
REMARK    1  A    between atoms: C_2  and  C_4
REMARK    2  A    between atoms: C_8  and  C_9
REMARK    3  A    between atoms: C_9  and  C_10
REMARK    4  A    between atoms: C_10  and  C_11
REMARK    5  A    between atoms: C_15  and  C_16
REMARK                            x       y       z     vdW  Elec       q    Type
REMARK                         _______ _______ _______ _____ _____    ______ ____
ROOT
ATOM      1  C   UNL     1      49.326   8.002  12.257  0.00  0.00    +0.000 C 
ATOM      2  C   UNL     1      49.439   9.371  11.601  0.00  0.00    +0.000 C 
ATOM      3  C   UNL     1      50.572   8.409  11.454  0.00  0.00    +0.000 C 
ENDROOT
BRANCH   1   4
ATOM      4  C   UNL     1      49.596   7.906  13.755  0.00  0.00    +0.000 A 
ATOM      5  C   UNL     1      50.059   9.017  14.462  0.00  0.00    +0.000 A 
ATOM      6  C   UNL     1      49.907   9.056  15.841  0.00  0.00    +0.000 A 
ATOM      7  C   UNL     1      49.334   7.969  16.491  0.00  0.00    +0.000 A 
ATOM      8  C   UNL     1      48.991   6.844  15.748  0.00  0.00    +0.000 A 
ATOM      9  N   UNL     1      49.132   6.808  14.404  0.00  0.00    +0.000 NA
BRANCH   8  10
ATOM     10  C   UNL     1      48.415   5.632  16.342  0.00  0.00    +0.000 A 
ATOM     11  C   UNL     1      48.681   5.225  17.658  0.00  0.00    +0.000 A 
ATOM     12  C   UNL     1      48.112   4.055  18.157  0.00  0.00    +0.000 A 
ATOM     13  C   UNL     1      47.286   3.317  17.327  0.00  0.00    +0.000 A 
ATOM     14  F   UNL     1      46.759   2.181  17.802  0.00  0.00    +0.000 F 
ATOM     15  N   UNL     1      46.981   3.670  16.065  0.00  0.00    +0.000 NA
ATOM     16  C   UNL     1      47.541   4.820  15.613  0.00  0.00    +0.000 A 
ENDBRANCH   8  10
ENDBRANCH   1   4
BRANCH   1  17
ATOM     17  C   UNL     1      48.489   6.926  11.606  0.00  0.00    +0.000 C 
BRANCH  17  22
ATOM     18  C   UNL     1      45.199   5.309  12.558  0.00  0.00    +0.000 A 
ATOM     19  C   UNL     1      44.296   6.372  12.549  0.00  0.00    +0.000 A 
ATOM     20  C   UNL     1      44.740   7.649  12.188  0.00  0.00    +0.000 A 
ATOM     21  C   UNL     1      46.083   7.884  11.852  0.00  0.00    +0.000 A 
ATOM     22  C   UNL     1      47.008   6.836  11.896  0.00  0.00    +0.000 A 
ATOM     23  C   UNL     1      46.540   5.552  12.235  0.00  0.00    +0.000 A 
BRANCH  18  25
ATOM     24  N   UNL     1      45.802   2.970  12.915  0.00  0.00    +0.000 N 
ATOM     25  C   UNL     1      44.823   3.922  12.930  0.00  0.00    +0.000 C 
ATOM     26  O   UNL     1      43.683   3.634  13.286  0.00  0.00    +0.000 OA
ATOM     27  H   UNL     1      45.546   2.071  13.303  0.00  0.00    +0.000 HD
ATOM     28  H   UNL     1      46.782   3.209  12.891  0.00  0.00    +0.000 HD
ENDBRANCH  18  25
ENDBRANCH  17  22
ENDBRANCH   1  17
TORSDOF 5
ENDMDL
MODEL 6
REMARK VINA RESULT:    -6.923      4.282      7.989
REMARK INTER + INTRA:          -9.691
REMARK INTER:                  -9.453
REMARK INTRA:                  -0.239
REMARK UNBOUND:                -0.745
REMARK  Name = 
REMARK  5 active torsions:
REMARK  status: ('A' for Active; 'I' for Inactive)
REMARK    1  A    between atoms: C_2  and  C_4
REMARK    2  A    between atoms: C_8  and  C_9
REMARK    3  A    between atoms: C_9  and  C_10
REMARK    4  A    between atoms: C_10  and  C_11
REMARK    5  A    between atoms: C_15  and  C_16
REMARK                            x       y       z     vdW  Elec       q    Type
REMARK                         _______ _______ _______ _____ _____    ______ ____
ROOT
ATOM      1  C   UNL     1      45.181   5.570  12.209  0.00  0.00    +0.000 C 
ATOM      2  C   UNL     1      44.733   6.784  11.407  0.00  0.00    +0.000 C 
ATOM      3  C   UNL     1      43.868   6.304  12.525  0.00  0.00    +0.000 C 
ENDROOT
BRANCH   1   4
ATOM      4  C   UNL     1      44.953   4.191  11.600  0.00  0.00    +0.000 A 
ATOM      5  C   UNL     1      43.918   3.377  12.062  0.00  0.00    +0.000 A 
ATOM      6  C   UNL     1      43.457   2.342  11.259  0.00  0.00    +0.000 A 
ATOM      7  C   UNL     1      44.065   2.116  10.030  0.00  0.00    +0.000 A 
ATOM      8  C   UNL     1      45.164   2.889   9.669  0.00  0.00    +0.000 A 
ATOM      9  N   UNL     1      45.608   3.902  10.447  0.00  0.00    +0.000 NA
BRANCH   8  10
ATOM     10  C   UNL     1      45.899   2.707   8.412  0.00  0.00    +0.000 A 
ATOM     11  C   UNL     1      46.135   3.752   7.507  0.00  0.00    +0.000 A 
ATOM     12  C   UNL     1      46.828   3.509   6.323  0.00  0.00    +0.000 A 
ATOM     13  C   UNL     1      47.272   2.223   6.071  0.00  0.00    +0.000 A 
ATOM     14  F   UNL     1      47.918   1.986   4.921  0.00  0.00    +0.000 F 
ATOM     15  N   UNL     1      47.092   1.188   6.912  0.00  0.00    +0.000 NA
ATOM     16  C   UNL     1      46.425   1.460   8.061  0.00  0.00    +0.000 A 
ENDBRANCH   8  10
ENDBRANCH   1   4
BRANCH   1  17
ATOM     17  C   UNL     1      46.251   5.723  13.265  0.00  0.00    +0.000 C 
BRANCH  17  22
ATOM     18  C   UNL     1      49.605   7.350  13.930  0.00  0.00    +0.000 A 
ATOM     19  C   UNL     1      49.964   7.883  12.693  0.00  0.00    +0.000 A 
ATOM     20  C   UNL     1      49.088   7.755  11.609  0.00  0.00    +0.000 A 
ATOM     21  C   UNL     1      47.861   7.085  11.741  0.00  0.00    +0.000 A 
ATOM     22  C   UNL     1      47.507   6.510  12.966  0.00  0.00    +0.000 A 
ATOM     23  C   UNL     1      48.388   6.670  14.053  0.00  0.00    +0.000 A 
BRANCH  18  25
ATOM     24  N   UNL     1      51.821   7.486  14.949  0.00  0.00    +0.000 N 
ATOM     25  C   UNL     1      50.469   7.432  15.135  0.00  0.00    +0.000 C 
ATOM     26  O   UNL     1      49.996   7.495  16.268  0.00  0.00    +0.000 OA
ATOM     27  H   UNL     1      52.371   7.678  15.776  0.00  0.00    +0.000 HD
ATOM     28  H   UNL     1      52.230   7.703  14.052  0.00  0.00    +0.000 HD
ENDBRANCH  18  25
ENDBRANCH  17  22
ENDBRANCH   1  17
TORSDOF 5
ENDMDL
MODEL 7
REMARK VINA RESULT:    -6.446      3.907      7.593
REMARK INTER + INTRA:          -9.075
REMARK INTER:                  -8.128
REMARK INTRA:                  -0.947
REMARK UNBOUND:                -0.745
REMARK  Name = 
REMARK  5 active torsions:
REMARK  status: ('A' for Active; 'I' for Inactive)
REMARK    1  A    between atoms: C_2  and  C_4
REMARK    2  A    between atoms: C_8  and  C_9
REMARK    3  A    between atoms: C_9  and  C_10
REMARK    4  A    between atoms: C_10  and  C_11
REMARK    5  A    between atoms: C_15  and  C_16
REMARK                            x       y       z     vdW  Elec       q    Type
REMARK                         _______ _______ _______ _____ _____    ______ ____
ROOT
ATOM      1  C   UNL     1      49.280   7.920  12.749  0.00  0.00    +0.000 C 
ATOM      2  C   UNL     1      49.863   7.376  11.452  0.00  0.00    +0.000 C 
ATOM      3  C   UNL     1      49.824   8.855  11.657  0.00  0.00    +0.000 C 
ENDROOT
BRANCH   1   4
ATOM      4  C   UNL     1      47.762   7.982  12.876  0.00  0.00    +0.000 A 
ATOM      5  C   UNL     1      47.108   9.213  12.931  0.00  0.00    +0.000 A 
ATOM      6  C   UNL     1      45.754   9.278  12.630  0.00  0.00    +0.000 A 
ATOM      7  C   UNL     1      45.072   8.107  12.320  0.00  0.00    +0.000 A 
ATOM      8  C   UNL     1      45.751   6.894  12.388  0.00  0.00    +0.000 A 
ATOM      9  N   UNL     1      47.071   6.832  12.673  0.00  0.00    +0.000 NA
BRANCH   8  10
ATOM     10  C   UNL     1      45.116   5.599  12.116  0.00  0.00    +0.000 A 
ATOM     11  C   UNL     1      45.018   5.052  10.828  0.00  0.00    +0.000 A 
ATOM     12  C   UNL     1      44.389   3.824  10.636  0.00  0.00    +0.000 A 
ATOM     13  C   UNL     1      43.872   3.167  11.740  0.00  0.00    +0.000 A 
ATOM     14  F   UNL     1      43.248   1.997  11.551  0.00  0.00    +0.000 F 
ATOM     15  N   UNL     1      43.956   3.635  12.999  0.00  0.00    +0.000 NA
ATOM     16  C   UNL     1      44.585   4.827  13.154  0.00  0.00    +0.000 A 
ENDBRANCH   8  10
ENDBRANCH   1   4
BRANCH   1  17
ATOM     17  C   UNL     1      50.108   7.890  14.012  0.00  0.00    +0.000 C 
BRANCH  17  22
ATOM     18  C   UNL     1      48.559   6.094  16.964  0.00  0.00    +0.000 A 
ATOM     19  C   UNL     1      48.241   7.126  17.847  0.00  0.00    +0.000 A 
ATOM     20  C   UNL     1      48.494   8.452  17.476  0.00  0.00    +0.000 A 
ATOM     21  C   UNL     1      49.077   8.760  16.236  0.00  0.00    +0.000 A 
ATOM     22  C   UNL     1      49.438   7.733  15.358  0.00  0.00    +0.000 A 
ATOM     23  C   UNL     1      49.153   6.407  15.736  0.00  0.00    +0.000 A 
BRANCH  18  25
ATOM     24  N   UNL     1      47.190   4.322  17.938  0.00  0.00    +0.000 N 
ATOM     25  C   UNL     1      48.332   4.659  17.271  0.00  0.00    +0.000 C 
ATOM     26  O   UNL     1      49.117   3.788  16.903  0.00  0.00    +0.000 OA
ATOM     27  H   UNL     1      47.000   3.330  18.010  0.00  0.00    +0.000 HD
ATOM     28  H   UNL     1      46.409   4.956  18.019  0.00  0.00    +0.000 HD
ENDBRANCH  18  25
ENDBRANCH  17  22
ENDBRANCH   1  17
TORSDOF 5
ENDMDL
MODEL 8
REMARK VINA RESULT:    -6.415      3.967      5.669
REMARK INTER + INTRA:          -9.036
REMARK INTER:                  -8.194
REMARK INTRA:                  -0.842
REMARK UNBOUND:                -0.745
REMARK  Name = 
REMARK  5 active torsions:
REMARK  status: ('A' for Active; 'I' for Inactive)
REMARK    1  A    between atoms: C_2  and  C_4
REMARK    2  A    between atoms: C_8  and  C_9
REMARK    3  A    between atoms: C_9  and  C_10
REMARK    4  A    between atoms: C_10  and  C_11
REMARK    5  A    between atoms: C_15  and  C_16
REMARK                            x       y       z     vdW  Elec       q    Type
REMARK                         _______ _______ _______ _____ _____    ______ ____
ROOT
ATOM      1  C   UNL     1      47.365   7.261  12.637  0.00  0.00    +0.000 C 
ATOM      2  C   UNL     1      47.921   5.919  13.095  0.00  0.00    +0.000 C 
ATOM      3  C   UNL     1      47.793   7.022  14.094  0.00  0.00    +0.000 C 
ENDROOT
BRANCH   1   4
ATOM      4  C   UNL     1      48.304   8.205  11.894  0.00  0.00    +0.000 A 
ATOM      5  C   UNL     1      48.000   9.562  11.786  0.00  0.00    +0.000 A 
ATOM      6  C   UNL     1      49.014  10.464  11.493  0.00  0.00    +0.000 A 
ATOM      7  C   UNL     1      50.302   9.989  11.275  0.00  0.00    +0.000 A 
ATOM      8  C   UNL     1      50.525   8.615  11.289  0.00  0.00    +0.000 A 
ATOM      9  N   UNL     1      49.539   7.737  11.581  0.00  0.00    +0.000 NA
BRANCH   8  10
ATOM     10  C   UNL     1      51.837   8.010  11.035  0.00  0.00    +0.000 A 
ATOM     11  C   UNL     1      52.971   8.291  11.812  0.00  0.00    +0.000 A 
ATOM     12  C   UNL     1      54.192   7.693  11.509  0.00  0.00    +0.000 A 
ATOM     13  C   UNL     1      54.252   6.823  10.434  0.00  0.00    +0.000 A 
ATOM     14  F   UNL     1      55.432   6.266  10.130  0.00  0.00    +0.000 F 
ATOM     15  N   UNL     1      53.193   6.501   9.669  0.00  0.00    +0.000 NA
ATOM     16  C   UNL     1      52.016   7.091   9.997  0.00  0.00    +0.000 A 
ENDBRANCH   8  10
ENDBRANCH   1   4
BRANCH   1  17
ATOM     17  C   UNL     1      45.875   7.427  12.444  0.00  0.00    +0.000 C 
BRANCH  17  22
ATOM     18  C   UNL     1      44.660   4.709  10.104  0.00  0.00    +0.000 A 
ATOM     19  C   UNL     1      43.670   4.059  10.841  0.00  0.00    +0.000 A 
ATOM     20  C   UNL     1      43.347   4.526  12.120  0.00  0.00    +0.000 A 
ATOM     21  C   UNL     1      44.013   5.627  12.682  0.00  0.00    +0.000 A 
ATOM     22  C   UNL     1      45.036   6.263  11.971  0.00  0.00    +0.000 A 
ATOM     23  C   UNL     1      45.330   5.798  10.675  0.00  0.00    +0.000 A 
BRANCH  18  25
ATOM     24  N   UNL     1      44.368   3.282   8.144  0.00  0.00    +0.000 N 
ATOM     25  C   UNL     1      45.074   4.286   8.743  0.00  0.00    +0.000 C 
ATOM     26  O   UNL     1      45.992   4.842   8.143  0.00  0.00    +0.000 OA
ATOM     27  H   UNL     1      44.587   3.111   7.171  0.00  0.00    +0.000 HD
ATOM     28  H   UNL     1      43.463   2.988   8.481  0.00  0.00    +0.000 HD
ENDBRANCH  18  25
ENDBRANCH  17  22
ENDBRANCH   1  17
TORSDOF 5
ENDMDL
MODEL 9
REMARK VINA RESULT:    -6.414      2.145      3.332
REMARK INTER + INTRA:          -9.034
REMARK INTER:                  -8.550
REMARK INTRA:                  -0.485
REMARK UNBOUND:                -0.745
REMARK  Name = 
REMARK  5 active torsions:
REMARK  status: ('A' for Active; 'I' for Inactive)
REMARK    1  A    between atoms: C_2  and  C_4
REMARK    2  A    between atoms: C_8  and  C_9
REMARK    3  A    between atoms: C_9  and  C_10
REMARK    4  A    between atoms: C_10  and  C_11
REMARK    5  A    between atoms: C_15  and  C_16
REMARK                            x       y       z     vdW  Elec       q    Type
REMARK                         _______ _______ _______ _____ _____    ______ ____
ROOT
ATOM      1  C   UNL     1      47.118   7.993  12.630  0.00  0.00    +0.000 C 
ATOM      2  C   UNL     1      45.972   8.887  13.084  0.00  0.00    +0.000 C 
ATOM      3  C   UNL     1      47.006   9.455  12.169  0.00  0.00    +0.000 C 
ENDROOT
BRANCH   1   4
ATOM      4  C   UNL     1      48.272   7.768  13.600  0.00  0.00    +0.000 A 
ATOM      5  C   UNL     1      49.254   8.745  13.769  0.00  0.00    +0.000 A 
ATOM      6  C   UNL     1      50.039   8.729  14.914  0.00  0.00    +0.000 A 
ATOM      7  C   UNL     1      49.855   7.715  15.848  0.00  0.00    +0.000 A 
ATOM      8  C   UNL     1      48.937   6.706  15.575  0.00  0.00    +0.000 A 
ATOM      9  N   UNL     1      48.167   6.725  14.464  0.00  0.00    +0.000 NA
BRANCH   8  10
ATOM     10  C   UNL     1      48.694   5.573  16.476  0.00  0.00    +0.000 A 
ATOM     11  C   UNL     1      47.669   4.639  16.269  0.00  0.00    +0.000 A 
ATOM     12  C   UNL     1      47.483   3.593  17.170  0.00  0.00    +0.000 A 
ATOM     13  C   UNL     1      48.331   3.504  18.260  0.00  0.00    +0.000 A 
ATOM     14  F   UNL     1      48.136   2.511  19.139  0.00  0.00    +0.000 F 
ATOM     15  N   UNL     1      49.343   4.359  18.497  0.00  0.00    +0.000 NA
ATOM     16  C   UNL     1      49.504   5.358  17.595  0.00  0.00    +0.000 A 
ENDBRANCH   8  10
ENDBRANCH   1   4
BRANCH   1  17
ATOM     17  C   UNL     1      46.886   6.975  11.538  0.00  0.00    +0.000 C 
BRANCH  17  22
ATOM     18  C   UNL     1      44.768   3.964  10.650  0.00  0.00    +0.000 A 
ATOM     19  C   UNL     1      44.188   3.600  11.865  0.00  0.00    +0.000 A 
ATOM     20  C   UNL     1      44.449   4.365  13.008  0.00  0.00    +0.000 A 
ATOM     21  C   UNL     1      45.298   5.482  12.957  0.00  0.00    +0.000 A 
ATOM     22  C   UNL     1      45.918   5.835  11.754  0.00  0.00    +0.000 A 
ATOM     23  C   UNL     1      45.624   5.071  10.608  0.00  0.00    +0.000 A 
BRANCH  18  25
ATOM     24  N   UNL     1      44.527   1.850   9.452  0.00  0.00    +0.000 N 
ATOM     25  C   UNL     1      44.555   3.214   9.387  0.00  0.00    +0.000 C 
ATOM     26  O   UNL     1      44.362   3.788   8.318  0.00  0.00    +0.000 OA
ATOM     27  H   UNL     1      44.245   1.376   8.604  0.00  0.00    +0.000 HD
ATOM     28  H   UNL     1      44.415   1.357  10.325  0.00  0.00    +0.000 HD
ENDBRANCH  18  25
ENDBRANCH  17  22
ENDBRANCH   1  17
TORSDOF 5
ENDMDL
