MODEL 1
REMARK VINA RESULT:    -6.957      0.000      0.000
REMARK INTER + INTRA:          -8.137
REMARK INTER:                  -7.770
REMARK INTRA:                  -0.366
REMARK UNBOUND:                -0.366
REMARK  Name = 
REMARK  2 active torsions:
REMARK  status: ('A' for Active; 'I' for Inactive)
REMARK    1  A    between atoms: C_7  and  C_8
REMARK    2  A    between atoms: C_8  and  N_9
REMARK                            x       y       z     vdW  Elec       q    Type
REMARK                         _______ _______ _______ _____ _____    ______ ____
ROOT
ATOM      1  N   UNL     1      49.985   7.025  12.215  0.00  0.00    +0.000 NA
ATOM      2  C   UNL     1      49.023   7.731  12.689  0.00  0.00    +0.000 C 
ATOM      3  N   UNL     1      49.241   8.885  13.359  0.00  0.00    +0.000 N 
ATOM      4  N   UNL     1      47.704   7.387  12.646  0.00  0.00    +0.000 N 
ATOM      5  C   UNL     1      46.731   8.332  12.085  0.00  0.00    +0.000 C 
ATOM      6  C   UNL     1      45.430   8.174  12.859  0.00  0.00    +0.000 C 
ATOM      7  C   UNL     1      44.875   6.743  12.740  0.00  0.00    +0.000 C 
ATOM      8  C   UNL     1      45.974   5.730  13.133  0.00  0.00    +0.000 C 
ATOM      9  C   UNL     1      47.324   5.985  12.446  0.00  0.00    +0.000 C 
ATOM     10  H   UNL     1      50.866   7.517  12.367  0.00  0.00    +0.000 HD
ATOM     11  H   UNL     1      50.178   8.997  13.720  0.00  0.00    +0.000 HD
ATOM     12  H   UNL     1      48.553   9.016  14.088  0.00  0.00    +0.000 HD
ENDROOT
BRANCH   7  13
ATOM     13  C   UNL     1      44.288   6.428  11.345  0.00  0.00    +0.000 C 
BRANCH  13  14
ATOM     14  N   UNL     1      44.271   5.006  11.017  0.00  0.00    +0.000 N 
ATOM     15  C   UNL     1      43.581   4.067  11.744  0.00  0.00    +0.000 A 
ATOM     16  C   UNL     1      43.697   2.858  11.103  0.00  0.00    +0.000 A 
ATOM     17  C   UNL     1      44.518   3.051   9.962  0.00  0.00    +0.000 A 
ATOM     18  C   UNL     1      44.970   2.191   8.942  0.00  0.00    +0.000 A 
ATOM     19  C   UNL     1      45.813   2.698   7.958  0.00  0.00    +0.000 A 
ATOM     20  F   UNL     1      46.236   1.888   6.978  0.00  0.00    +0.000 F 
ATOM     21  C   UNL     1      46.232   4.021   7.973  0.00  0.00    +0.000 A 
ATOM     22  C   UNL     1      45.788   4.897   8.971  0.00  0.00    +0.000 A 
ATOM     23  C   UNL     1      44.911   4.397   9.951  0.00  0.00    +0.000 A 
ENDBRANCH  13  14
ENDBRANCH   7  13
TORSDOF 2
ENDMDL
MODEL 2
REMARK VINA RESULT:    -6.637      3.351      6.177
REMARK INTER + INTRA:          -7.780
REMARK INTER:                  -7.234
REMARK INTRA:                  -0.546
REMARK UNBOUND:                -0.366
REMARK  Name = 
REMARK  2 active torsions:
REMARK  status: ('A' for Active; 'I' for Inactive)
REMARK    1  A    between atoms: C_7  and  C_8
REMARK    2  A    between atoms: C_8  and  N_9
REMARK                            x       y       z     vdW  Elec       q    Type
REMARK                         _______ _______ _______ _____ _____    ______ ____
ROOT
ATOM      1  N   UNL     1      48.451   2.855   6.461  0.00  0.00    +0.000 NA
ATOM      2  C   UNL     1      47.437   2.128   6.764  0.00  0.00    +0.000 C 
ATOM      3  N   UNL     1      47.214   0.927   6.186  0.00  0.00    +0.000 N 
ATOM      4  N   UNL     1      46.442   2.492   7.624  0.00  0.00    +0.000 N 
ATOM      5  C   UNL     1      46.093   1.602   8.738  0.00  0.00    +0.000 C 
ATOM      6  C   UNL     1      44.594   1.720   8.976  0.00  0.00    +0.000 C 
ATOM      7  C   UNL     1      44.193   3.163   9.334  0.00  0.00    +0.000 C 
ATOM      8  C   UNL     1      44.745   4.131   8.262  0.00  0.00    +0.000 C 
ATOM      9  C   UNL     1      46.229   3.909   7.933  0.00  0.00    +0.000 C 
ATOM     10  H   UNL     1      49.045   2.341   5.810  0.00  0.00    +0.000 HD
ATOM     11  H   UNL     1      47.703   0.778   5.314  0.00  0.00    +0.000 HD
ATOM     12  H   UNL     1      46.224   0.752   6.080  0.00  0.00    +0.000 HD
ENDROOT
BRANCH   7  13
ATOM     13  C   UNL     1      44.631   3.585  10.755  0.00  0.00    +0.000 C 
BRANCH  13  14
ATOM     14  N   UNL     1      44.312   4.970  11.086  0.00  0.00    +0.000 N 
ATOM     15  C   UNL     1      43.041   5.488  11.048  0.00  0.00    +0.000 A 
ATOM     16  C   UNL     1      43.088   6.779  11.514  0.00  0.00    +0.000 A 
ATOM     17  C   UNL     1      44.442   7.080  11.813  0.00  0.00    +0.000 A 
ATOM     18  C   UNL     1      45.086   8.226  12.321  0.00  0.00    +0.000 A 
ATOM     19  C   UNL     1      46.470   8.209  12.471  0.00  0.00    +0.000 A 
ATOM     20  F   UNL     1      47.086   9.291  12.965  0.00  0.00    +0.000 F 
ATOM     21  C   UNL     1      47.225   7.101  12.113  0.00  0.00    +0.000 A 
ATOM     22  C   UNL     1      46.606   5.949  11.616  0.00  0.00    +0.000 A 
ATOM     23  C   UNL     1      45.205   5.948  11.491  0.00  0.00    +0.000 A 
ENDBRANCH  13  14
ENDBRANCH   7  13
TORSDOF 2
ENDMDL
MODEL 3
REMARK VINA RESULT:    -6.104      3.361      6.722
REMARK INTER + INTRA:          -7.184
REMARK INTER:                  -7.001
REMARK INTRA:                  -0.184
REMARK UNBOUND:                -0.366
REMARK  Name = 
REMARK  2 active torsions:
REMARK  status: ('A' for Active; 'I' for Inactive)
REMARK    1  A    between atoms: C_7  and  C_8
REMARK    2  A    between atoms: C_8  and  N_9
REMARK                            x       y       z     vdW  Elec       q    Type
REMARK                         _______ _______ _______ _____ _____    ______ ____
ROOT
ATOM      1  N   UNL     1      43.400   2.138  12.365  0.00  0.00    +0.000 NA
ATOM      2  C   UNL     1      44.031   2.799  11.462  0.00  0.00    +0.000 C 
ATOM      3  N   UNL     1      44.158   2.345  10.195  0.00  0.00    +0.000 N 
ATOM      4  N   UNL     1      44.697   3.970  11.673  0.00  0.00    +0.000 N 
ATOM      5  C   UNL     1      44.394   5.133  10.829  0.00  0.00    +0.000 C 
ATOM      6  C   UNL     1      45.685   5.917  10.636  0.00  0.00    +0.000 C 
ATOM      7  C   UNL     1      46.256   6.400  11.981  0.00  0.00    +0.000 C 
ATOM      8  C   UNL     1      46.380   5.201  12.949  0.00  0.00    +0.000 C 
ATOM      9  C   UNL     1      45.112   4.338  13.030  0.00  0.00    +0.000 C 
ATOM     10  H   UNL     1      42.981   1.310  11.939  0.00  0.00    +0.000 HD
ATOM     11  H   UNL     1      44.001   1.354  10.081  0.00  0.00    +0.000 HD
ATOM     12  H   UNL     1      45.046   2.620   9.799  0.00  0.00    +0.000 HD
ENDROOT
BRANCH   7  13
ATOM     13  C   UNL     1      45.443   7.554  12.613  0.00  0.00    +0.000 C 
BRANCH  13  14
ATOM     14  N   UNL     1      45.852   8.881  12.164  0.00  0.00    +0.000 N 
ATOM     15  C   UNL     1      44.967   9.882  11.845  0.00  0.00    +0.000 A 
ATOM     16  C   UNL     1      45.687  11.018  11.565  0.00  0.00    +0.000 A 
ATOM     17  C   UNL     1      47.064  10.696  11.678  0.00  0.00    +0.000 A 
ATOM     18  C   UNL     1      48.246  11.444  11.517  0.00  0.00    +0.000 A 
ATOM     19  C   UNL     1      49.473  10.806  11.670  0.00  0.00    +0.000 A 
ATOM     20  F   UNL     1      50.601  11.516  11.531  0.00  0.00    +0.000 F 
ATOM     21  C   UNL     1      49.555   9.450  11.956  0.00  0.00    +0.000 A 
ATOM     22  C   UNL     1      48.394   8.688  12.129  0.00  0.00    +0.000 A 
ATOM     23  C   UNL     1      47.151   9.335  12.006  0.00  0.00    +0.000 A 
ENDBRANCH  13  14
ENDBRANCH   7  13
TORSDOF 2
ENDMDL
MODEL 4
REMARK VINA RESULT:    -6.100      3.125      6.693
REMARK INTER + INTRA:          -7.179
REMARK INTER:                  -6.841
REMARK INTRA:                  -0.338
REMARK UNBOUND:                -0.366
REMARK  Name = 
REMARK  2 active torsions:
REMARK  status: ('A' for Active; 'I' for Inactive)
REMARK    1  A    between atoms: C_7  and  C_8
REMARK    2  A    between atoms: C_8  and  N_9
REMARK                            x       y       z     vdW  Elec       q    Type
REMARK                         _______ _______ _______ _____ _____    ______ ____
ROOT
ATOM      1  N   UNL     1      44.519   2.220   9.706  0.00  0.00    +0.000 NA
ATOM      2  C   UNL     1      44.257   2.734  10.853  0.00  0.00    +0.000 C 
ATOM      3  N   UNL     1      43.381   2.167  11.712  0.00  0.00    +0.000 N 
ATOM      4  N   UNL     1      44.753   3.919  11.311  0.00  0.00    +0.000 N 
ATOM      5  C   UNL     1      45.429   3.962  12.613  0.00  0.00    +0.000 C 
ATOM      6  C   UNL     1      45.123   5.309  13.252  0.00  0.00    +0.000 C 
ATOM      7  C   UNL     1      45.627   6.473  12.380  0.00  0.00    +0.000 C 
ATOM      8  C   UNL     1      45.081   6.313  10.943  0.00  0.00    +0.000 C 
ATOM      9  C   UNL     1      45.275   4.906  10.360  0.00  0.00    +0.000 C 
ATOM     10  H   UNL     1      44.032   1.327   9.623  0.00  0.00    +0.000 HD
ATOM     11  H   UNL     1      42.739   1.510  11.292  0.00  0.00    +0.000 HD
ATOM     12  H   UNL     1      42.884   2.871  12.241  0.00  0.00    +0.000 HD
ENDROOT
BRANCH   7  13
ATOM     13  C   UNL     1      47.166   6.621  12.387  0.00  0.00    +0.000 C 
BRANCH  13  14
ATOM     14  N   UNL     1      47.631   7.978  12.117  0.00  0.00    +0.000 N 
ATOM     15  C   UNL     1      46.838   9.092  12.238  0.00  0.00    +0.000 A 
ATOM     16  C   UNL     1      47.617  10.201  12.011  0.00  0.00    +0.000 A 
ATOM     17  C   UNL     1      48.927   9.752  11.700  0.00  0.00    +0.000 A 
ATOM     18  C   UNL     1      50.128  10.420  11.391  0.00  0.00    +0.000 A 
ATOM     19  C   UNL     1      51.260   9.667  11.095  0.00  0.00    +0.000 A 
ATOM     20  F   UNL     1      52.408  10.298  10.812  0.00  0.00    +0.000 F 
ATOM     21  C   UNL     1      51.225   8.280  11.079  0.00  0.00    +0.000 A 
ATOM     22  C   UNL     1      50.046   7.594  11.393  0.00  0.00    +0.000 A 
ATOM     23  C   UNL     1      48.906   8.350  11.722  0.00  0.00    +0.000 A 
ENDBRANCH  13  14
ENDBRANCH   7  13
TORSDOF 2
ENDMDL
MODEL 5
REMARK VINA RESULT:    -6.092      1.673      2.572
REMARK INTER + INTRA:          -7.170
REMARK INTER:                  -6.686
REMARK INTRA:                  -0.484
REMARK UNBOUND:                -0.366
REMARK  Name = 
REMARK  2 active torsions:
REMARK  status: ('A' for Active; 'I' for Inactive)
REMARK    1  A    between atoms: C_7  and  C_8
REMARK    2  A    between atoms: C_8  and  N_9
REMARK                            x       y       z     vdW  Elec       q    Type
REMARK                         _______ _______ _______ _____ _____    ______ ____
ROOT
ATOM      1  N   UNL     1      49.712   9.361  16.074  0.00  0.00    +0.000 NA
ATOM      2  C   UNL     1      49.800   8.324  15.322  0.00  0.00    +0.000 C 
ATOM      3  N   UNL     1      50.795   7.419  15.458  0.00  0.00    +0.000 N 
ATOM      4  N   UNL     1      48.972   8.044  14.274  0.00  0.00    +0.000 N 
ATOM      5  C   UNL     1      48.301   6.741  14.214  0.00  0.00    +0.000 C 
ATOM      6  C   UNL     1      48.191   6.341  12.749  0.00  0.00    +0.000 C 
ATOM      7  C   UNL     1      47.376   7.369  11.945  0.00  0.00    +0.000 C 
ATOM      8  C   UNL     1      47.959   8.783  12.176  0.00  0.00    +0.000 C 
ATOM      9  C   UNL     1      48.192   9.121  13.656  0.00  0.00    +0.000 C 
ATOM     10  H   UNL     1      50.441   9.317  16.787  0.00  0.00    +0.000 HD
ATOM     11  H   UNL     1      51.606   7.752  15.960  0.00  0.00    +0.000 HD
ATOM     12  H   UNL     1      51.057   7.031  14.562  0.00  0.00    +0.000 HD
ENDROOT
BRANCH   7  13
ATOM     13  C   UNL     1      45.861   7.326  12.253  0.00  0.00    +0.000 C 
BRANCH  13  14
ATOM     14  N   UNL     1      45.276   5.993  12.156  0.00  0.00    +0.000 N 
ATOM     15  C   UNL     1      44.708   5.332  13.218  0.00  0.00    +0.000 A 
ATOM     16  C   UNL     1      44.168   4.157  12.755  0.00  0.00    +0.000 A 
ATOM     17  C   UNL     1      44.447   4.072  11.366  0.00  0.00    +0.000 A 
ATOM     18  C   UNL     1      44.141   3.116  10.377  0.00  0.00    +0.000 A 
ATOM     19  C   UNL     1      44.601   3.320   9.079  0.00  0.00    +0.000 A 
ATOM     20  F   UNL     1      44.302   2.420   8.132  0.00  0.00    +0.000 F 
ATOM     21  C   UNL     1      45.367   4.428   8.747  0.00  0.00    +0.000 A 
ATOM     22  C   UNL     1      45.676   5.395   9.710  0.00  0.00    +0.000 A 
ATOM     23  C   UNL     1      45.187   5.211  11.016  0.00  0.00    +0.000 A 
ENDBRANCH  13  14
ENDBRANCH   7  13
TORSDOF 2
ENDMDL
MODEL 6
REMARK VINA RESULT:    -5.889      4.275      7.201
REMARK INTER + INTRA:          -6.944
REMARK INTER:                  -6.445
REMARK INTRA:                  -0.500
REMARK UNBOUND:                -0.366
REMARK  Name = 
REMARK  2 active torsions:
REMARK  status: ('A' for Active; 'I' for Inactive)
REMARK    1  A    between atoms: C_7  and  C_8
REMARK    2  A    between atoms: C_8  and  N_9
REMARK                            x       y       z     vdW  Elec       q    Type
REMARK                         _______ _______ _______ _____ _____    ______ ____
ROOT
ATOM      1  N   UNL     1      44.956   4.565   8.621  0.00  0.00    +0.000 NA
ATOM      2  C   UNL     1      44.572   4.337   9.825  0.00  0.00    +0.000 C 
ATOM      3  N   UNL     1      43.493   3.572  10.103  0.00  0.00    +0.000 N 
ATOM      4  N   UNL     1      45.137   4.878  10.942  0.00  0.00    +0.000 N 
ATOM      5  C   UNL     1      45.578   3.992  12.027  0.00  0.00    +0.000 C 
ATOM      6  C   UNL     1      45.351   4.721  13.344  0.00  0.00    +0.000 C 
ATOM      7  C   UNL     1      46.150   6.036  13.404  0.00  0.00    +0.000 C 
ATOM      8  C   UNL     1      45.843   6.883  12.148  0.00  0.00    +0.000 C 
ATOM      9  C   UNL     1      45.944   6.098  10.832  0.00  0.00    +0.000 C 
ATOM     10  H   UNL     1      44.374   4.026   7.979  0.00  0.00    +0.000 HD
ATOM     11  H   UNL     1      42.850   3.448   9.334  0.00  0.00    +0.000 HD
ATOM     12  H   UNL     1      43.012   3.908  10.926  0.00  0.00    +0.000 HD
ENDROOT
BRANCH   7  13
ATOM     13  C   UNL     1      47.671   5.820  13.583  0.00  0.00    +0.000 C 
BRANCH  13  14
ATOM     14  N   UNL     1      48.137   5.997  14.954  0.00  0.00    +0.000 N 
ATOM     15  C   UNL     1      48.679   7.166  15.429  0.00  0.00    +0.000 A 
ATOM     16  C   UNL     1      48.910   7.018  16.774  0.00  0.00    +0.000 A 
ATOM     17  C   UNL     1      48.534   5.698  17.134  0.00  0.00    +0.000 A 
ATOM     18  C   UNL     1      48.539   4.991  18.353  0.00  0.00    +0.000 A 
ATOM     19  C   UNL     1      48.126   3.662  18.363  0.00  0.00    +0.000 A 
ATOM     20  F   UNL     1      48.117   2.989  19.522  0.00  0.00    +0.000 F 
ATOM     21  C   UNL     1      47.732   3.017  17.199  0.00  0.00    +0.000 A 
ATOM     22  C   UNL     1      47.710   3.701  15.978  0.00  0.00    +0.000 A 
ATOM     23  C   UNL     1      48.097   5.053  15.968  0.00  0.00    +0.000 A 
ENDBRANCH  13  14
ENDBRANCH   7  13
TORSDOF 2
ENDMDL
MODEL 7
REMARK VINA RESULT:    -5.820      4.286      7.578
REMARK INTER + INTRA:          -6.866
REMARK INTER:                  -6.387
REMARK INTRA:                  -0.479
REMARK UNBOUND:                -0.366
REMARK  Name = 
REMARK  2 active torsions:
REMARK  status: ('A' for Active; 'I' for Inactive)
REMARK    1  A    between atoms: C_7  and  C_8
REMARK    2  A    between atoms: C_8  and  N_9
REMARK                            x       y       z     vdW  Elec       q    Type
REMARK                         _______ _______ _______ _____ _____    ______ ____
ROOT
ATOM      1  N   UNL     1      42.593   4.830  12.557  0.00  0.00    +0.000 NA
ATOM      2  C   UNL     1      43.532   5.245  11.785  0.00  0.00    +0.000 C 
ATOM      3  N   UNL     1      43.366   5.360  10.449  0.00  0.00    +0.000 N 
ATOM      4  N   UNL     1      44.801   5.543  12.187  0.00  0.00    +0.000 N 
ATOM      5  C   UNL     1      45.372   6.853  11.853  0.00  0.00    +0.000 C 
ATOM      6  C   UNL     1      46.863   6.662  11.611  0.00  0.00    +0.000 C 
ATOM      7  C   UNL     1      47.569   6.103  12.860  0.00  0.00    +0.000 C 
ATOM      8  C   UNL     1      46.834   4.830  13.340  0.00  0.00    +0.000 C 
ATOM      9  C   UNL     1      45.312   4.997  13.448  0.00  0.00    +0.000 C 
ATOM     10  H   UNL     1      41.744   4.696  12.006  0.00  0.00    +0.000 HD
ATOM     11  H   UNL     1      42.594   4.831  10.069  0.00  0.00    +0.000 HD
ATOM     12  H   UNL     1      44.224   5.153   9.957  0.00  0.00    +0.000 HD
ENDROOT
BRANCH   7  13
ATOM     13  C   UNL     1      47.707   7.139  14.000  0.00  0.00    +0.000 C 
BRANCH  13  14
ATOM     14  N   UNL     1      48.930   6.998  14.783  0.00  0.00    +0.000 N 
ATOM     15  C   UNL     1      50.109   7.629  14.471  0.00  0.00    +0.000 A 
ATOM     16  C   UNL     1      51.017   7.360  15.467  0.00  0.00    +0.000 A 
ATOM     17  C   UNL     1      50.387   6.502  16.405  0.00  0.00    +0.000 A 
ATOM     18  C   UNL     1      50.813   5.912  17.611  0.00  0.00    +0.000 A 
ATOM     19  C   UNL     1      49.940   5.071  18.295  0.00  0.00    +0.000 A 
ATOM     20  F   UNL     1      50.336   4.518  19.450  0.00  0.00    +0.000 F 
ATOM     21  C   UNL     1      48.674   4.787  17.804  0.00  0.00    +0.000 A 
ATOM     22  C   UNL     1      48.225   5.368  16.613  0.00  0.00    +0.000 A 
ATOM     23  C   UNL     1      49.092   6.244  15.934  0.00  0.00    +0.000 A 
ENDBRANCH  13  14
ENDBRANCH   7  13
TORSDOF 2
ENDMDL
MODEL 8
REMARK VINA RESULT:    -5.760      3.749      7.255
REMARK INTER + INTRA:          -6.799
REMARK INTER:                  -6.283
REMARK INTRA:                  -0.516
REMARK UNBOUND:                -0.366
REMARK  Name = 
REMARK  2 active torsions:
REMARK  status: ('A' for Active; 'I' for Inactive)
REMARK    1  A    between atoms: C_7  and  C_8
REMARK    2  A    between atoms: C_8  and  N_9
REMARK                            x       y       z     vdW  Elec       q    Type
REMARK                         _______ _______ _______ _____ _____    ______ ____
ROOT
ATOM      1  N   UNL     1      44.438   2.363   9.821  0.00  0.00    +0.000 NA
ATOM      2  C   UNL     1      44.250   2.892  10.976  0.00  0.00    +0.000 C 
ATOM      3  N   UNL     1      43.408   2.353  11.885  0.00  0.00    +0.000 N 
ATOM      4  N   UNL     1      44.799   4.068  11.397  0.00  0.00    +0.000 N 
ATOM      5  C   UNL     1      45.545   4.102  12.661  0.00  0.00    +0.000 C 
ATOM      6  C   UNL     1      45.306   5.461  13.304  0.00  0.00    +0.000 C 
ATOM      7  C   UNL     1      45.791   6.606  12.397  0.00  0.00    +0.000 C 
ATOM      8  C   UNL     1      45.165   6.450  10.992  0.00  0.00    +0.000 C 
ATOM      9  C   UNL     1      45.294   5.034  10.411  0.00  0.00    +0.000 C 
ATOM     10  H   UNL     1      43.925   1.483   9.771  0.00  0.00    +0.000 HD
ATOM     11  H   UNL     1      42.729   1.709  11.506  0.00  0.00    +0.000 HD
ATOM     12  H   UNL     1      42.958   3.072  12.435  0.00  0.00    +0.000 HD
ENDROOT
BRANCH   7  13
ATOM     13  C   UNL     1      47.332   6.716  12.321  0.00  0.00    +0.000 C 
BRANCH  13  14
ATOM     14  N   UNL     1      47.918   7.552  13.363  0.00  0.00    +0.000 N 
ATOM     15  C   UNL     1      48.160   8.896  13.214  0.00  0.00    +0.000 A 
ATOM     16  C   UNL     1      48.615   9.386  14.414  0.00  0.00    +0.000 A 
ATOM     17  C   UNL     1      48.693   8.300  15.323  0.00  0.00    +0.000 A 
ATOM     18  C   UNL     1      49.077   8.198  16.675  0.00  0.00    +0.000 A 
ATOM     19  C   UNL     1      49.073   6.946  17.283  0.00  0.00    +0.000 A 
ATOM     20  F   UNL     1      49.425   6.846  18.572  0.00  0.00    +0.000 F 
ATOM     21  C   UNL     1      48.720   5.801  16.584  0.00  0.00    +0.000 A 
ATOM     22  C   UNL     1      48.326   5.878  15.243  0.00  0.00    +0.000 A 
ATOM     23  C   UNL     1      48.299   7.145  14.631  0.00  0.00    +0.000 A 
ENDBRANCH  13  14
ENDBRANCH   7  13
TORSDOF 2
ENDMDL
MODEL 9
REMARK VINA RESULT:    -5.631      4.294      5.283
REMARK INTER + INTRA:          -6.656
REMARK INTER:                  -6.677
REMARK INTRA:                   0.021
REMARK UNBOUND:                -0.366
REMARK  Name = 
REMARK  2 active torsions:
REMARK  status: ('A' for Active; 'I' for Inactive)
REMARK    1  A    between atoms: C_7  and  C_8
REMARK    2  A    between atoms: C_8  and  N_9
REMARK                            x       y       z     vdW  Elec       q    Type
REMARK                         _______ _______ _______ _____ _____    ______ ____
ROOT
ATOM      1  N   UNL     1      51.629   3.499  18.866  0.00  0.00    +0.000 NA
ATOM      2  C   UNL     1      50.717   4.385  18.688  0.00  0.00    +0.000 C 
ATOM      3  N   UNL     1      50.694   5.544  19.383  0.00  0.00    +0.000 N 
ATOM      4  N   UNL     1      49.644   4.248  17.856  0.00  0.00    +0.000 N 
ATOM      5  C   UNL     1      49.378   5.281  16.849  0.00  0.00    +0.000 C 
ATOM      6  C   UNL     1      47.868   5.395  16.687  0.00  0.00    +0.000 C 
ATOM      7  C   UNL     1      47.249   4.064  16.225  0.00  0.00    +0.000 C 
ATOM      8  C   UNL     1      47.703   2.930  17.172  0.00  0.00    +0.000 C 
ATOM      9  C   UNL     1      49.216   2.910  17.435  0.00  0.00    +0.000 C 
ATOM     10  H   UNL     1      52.318   3.859  19.526  0.00  0.00    +0.000 HD
ATOM     11  H   UNL     1      51.238   5.539  20.235  0.00  0.00    +0.000 HD
ATOM     12  H   UNL     1      49.745   5.843  19.560  0.00  0.00    +0.000 HD
ENDROOT
BRANCH   7  13
ATOM     13  C   UNL     1      47.559   3.725  14.748  0.00  0.00    +0.000 C 
BRANCH  13  14
ATOM     14  N   UNL     1      47.044   4.704  13.796  0.00  0.00    +0.000 N 
ATOM     15  C   UNL     1      47.491   6.000  13.722  0.00  0.00    +0.000 A 
ATOM     16  C   UNL     1      46.871   6.608  12.657  0.00  0.00    +0.000 A 
ATOM     17  C   UNL     1      45.983   5.664  12.078  0.00  0.00    +0.000 A 
ATOM     18  C   UNL     1      45.104   5.714  10.978  0.00  0.00    +0.000 A 
ATOM     19  C   UNL     1      44.327   4.598  10.686  0.00  0.00    +0.000 A 
ATOM     20  F   UNL     1      43.499   4.636   9.633  0.00  0.00    +0.000 F 
ATOM     21  C   UNL     1      44.384   3.450  11.464  0.00  0.00    +0.000 A 
ATOM     22  C   UNL     1      45.256   3.373  12.556  0.00  0.00    +0.000 A 
ATOM     23  C   UNL     1      46.067   4.488  12.838  0.00  0.00    +0.000 A 
ENDBRANCH  13  14
ENDBRANCH   7  13
TORSDOF 2
ENDMDL
