MODEL 1
REMARK VINA RESULT:    -8.231      0.000      0.000
REMARK INTER + INTRA:         -10.645
REMARK INTER:                 -10.155
REMARK INTRA:                  -0.490
REMARK UNBOUND:                -0.490
REMARK  Name = 
REMARK  4 active torsions:
REMARK  status: ('A' for Active; 'I' for Inactive)
REMARK    1  A    between atoms: C_2  and  C_4
REMARK    2  A    between atoms: N_8  and  C_9
REMARK    3  A    between atoms: C_9  and  C_10
REMARK    4  A    between atoms: C_14  and  C_15
REMARK                            x       y       z     vdW  Elec       q    Type
REMARK                         _______ _______ _______ _____ _____    ______ ____
ROOT
ATOM      1  C   UNL     1      46.594   2.655   7.464  0.00  0.00    +0.000 A 
ATOM      2  C   UNL     1      46.231   3.963   7.669  0.00  0.00    +0.000 A 
ATOM      3  N   UNL     1      45.342   4.362   8.606  0.00  0.00    +0.000 NA
ATOM      4  C   UNL     1      44.781   3.412   9.369  0.00  0.00    +0.000 A 
ATOM      5  N   UNL     1      43.876   3.756  10.331  0.00  0.00    +0.000 N 
ATOM      6  N   UNL     1      45.067   2.109   9.253  0.00  0.00    +0.000 NA
ATOM      7  C   UNL     1      45.970   1.757   8.303  0.00  0.00    +0.000 A 
ATOM      8  H   UNL     1      43.483   2.987  10.849  0.00  0.00    +0.000 HD
ENDROOT
BRANCH   1  10
ATOM      9  N   UNL     1      47.879   3.030   5.417  0.00  0.00    +0.000 N 
ATOM     10  C   UNL     1      47.560   2.197   6.455  0.00  0.00    +0.000 C 
ATOM     11  O   UNL     1      48.078   1.090   6.541  0.00  0.00    +0.000 OA
ATOM     12  H   UNL     1      48.540   2.674   4.735  0.00  0.00    +0.000 HD
ATOM     13  H   UNL     1      47.510   3.954   5.255  0.00  0.00    +0.000 HD
ENDBRANCH   1  10
BRANCH   5  14
ATOM     14  C   UNL     1      43.508   5.118  10.601  0.00  0.00    +0.000 C 
BRANCH  14  15
ATOM     15  C   UNL     1      44.519   5.793  11.495  0.00  0.00    +0.000 A 
ATOM     16  C   UNL     1      44.853   7.137  11.344  0.00  0.00    +0.000 A 
ATOM     17  C   UNL     1      45.787   7.684  12.210  0.00  0.00    +0.000 A 
ATOM     18  N   UNL     1      46.418   6.990  13.184  0.00  0.00    +0.000 NA
ATOM     19  C   UNL     1      46.126   5.671  13.308  0.00  0.00    +0.000 A 
ATOM     20  C   UNL     1      45.167   5.061  12.496  0.00  0.00    +0.000 A 
BRANCH  19  21
ATOM     21  C   UNL     1      46.873   4.922  14.331  0.00  0.00    +0.000 A 
ATOM     22  C   UNL     1      47.435   5.541  15.456  0.00  0.00    +0.000 A 
ATOM     23  C   UNL     1      48.112   4.787  16.415  0.00  0.00    +0.000 A 
ATOM     24  C   UNL     1      48.219   3.420  16.225  0.00  0.00    +0.000 A 
ATOM     25  N   UNL     1      47.715   2.775  15.154  0.00  0.00    +0.000 NA
ATOM     26  C   UNL     1      47.070   3.542  14.240  0.00  0.00    +0.000 A 
ENDBRANCH  19  21
ENDBRANCH  14  15
ENDBRANCH   5  14
TORSDOF 4
ENDMDL
MODEL 2
REMARK VINA RESULT:    -8.122      1.864      4.020
REMARK INTER + INTRA:         -10.511
REMARK INTER:                 -10.036
REMARK INTRA:                  -0.476
REMARK UNBOUND:                -0.490
REMARK  Name = 
REMARK  4 active torsions:
REMARK  status: ('A' for Active; 'I' for Inactive)
REMARK    1  A    between atoms: C_2  and  C_4
REMARK    2  A    between atoms: N_8  and  C_9
REMARK    3  A    between atoms: C_9  and  C_10
REMARK    4  A    between atoms: C_14  and  C_15
REMARK                            x       y       z     vdW  Elec       q    Type
REMARK                         _______ _______ _______ _____ _____    ______ ____
ROOT
ATOM      1  C   UNL     1      46.478   2.677   7.237  0.00  0.00    +0.000 A 
ATOM      2  C   UNL     1      45.784   3.776   7.677  0.00  0.00    +0.000 A 
ATOM      3  N   UNL     1      44.987   3.779   8.769  0.00  0.00    +0.000 NA
ATOM      4  C   UNL     1      44.870   2.629   9.450  0.00  0.00    +0.000 A 
ATOM      5  N   UNL     1      44.078   2.571  10.561  0.00  0.00    +0.000 N 
ATOM      6  N   UNL     1      45.504   1.501   9.107  0.00  0.00    +0.000 NA
ATOM      7  C   UNL     1      46.298   1.549   8.007  0.00  0.00    +0.000 A 
ATOM      8  H   UNL     1      44.023   1.671  11.006  0.00  0.00    +0.000 HD
ENDROOT
BRANCH   1  10
ATOM      9  N   UNL     1      48.678   2.352   6.218  0.00  0.00    +0.000 N 
ATOM     10  C   UNL     1      47.352   2.650   6.055  0.00  0.00    +0.000 C 
ATOM     11  O   UNL     1      46.904   2.885   4.938  0.00  0.00    +0.000 OA
ATOM     12  H   UNL     1      49.250   2.355   5.381  0.00  0.00    +0.000 HD
ATOM     13  H   UNL     1      49.144   2.147   7.088  0.00  0.00    +0.000 HD
ENDBRANCH   1  10
BRANCH   5  14
ATOM     14  C   UNL     1      43.374   3.714  11.073  0.00  0.00    +0.000 C 
BRANCH  14  15
ATOM     15  C   UNL     1      44.301   4.640  11.822  0.00  0.00    +0.000 A 
ATOM     16  C   UNL     1      45.097   4.192  12.873  0.00  0.00    +0.000 A 
ATOM     17  C   UNL     1      45.926   5.105  13.506  0.00  0.00    +0.000 A 
ATOM     18  N   UNL     1      45.997   6.417  13.185  0.00  0.00    +0.000 NA
ATOM     19  C   UNL     1      45.193   6.865  12.190  0.00  0.00    +0.000 A 
ATOM     20  C   UNL     1      44.360   5.996  11.482  0.00  0.00    +0.000 A 
BRANCH  19  21
ATOM     21  C   UNL     1      45.239   8.309  11.903  0.00  0.00    +0.000 A 
ATOM     22  C   UNL     1      44.215   8.972  11.214  0.00  0.00    +0.000 A 
ATOM     23  C   UNL     1      44.288  10.348  10.988  0.00  0.00    +0.000 A 
ATOM     24  C   UNL     1      45.396  11.034  11.457  0.00  0.00    +0.000 A 
ATOM     25  N   UNL     1      46.418  10.445  12.110  0.00  0.00    +0.000 NA
ATOM     26  C   UNL     1      46.314   9.106  12.303  0.00  0.00    +0.000 A 
ENDBRANCH  19  21
ENDBRANCH  14  15
ENDBRANCH   5  14
TORSDOF 4
ENDMDL
MODEL 3
REMARK VINA RESULT:    -7.658      3.186      6.800
REMARK INTER + INTRA:          -9.939
REMARK INTER:                  -9.297
REMARK INTRA:                  -0.641
REMARK UNBOUND:                -0.490
REMARK  Name = 
REMARK  4 active torsions:
REMARK  status: ('A' for Active; 'I' for Inactive)
REMARK    1  A    between atoms: C_2  and  C_4
REMARK    2  A    between atoms: N_8  and  C_9
REMARK    3  A    between atoms: C_9  and  C_10
REMARK    4  A    between atoms: C_14  and  C_15
REMARK                            x       y       z     vdW  Elec       q    Type
REMARK                         _______ _______ _______ _____ _____    ______ ____
ROOT
ATOM      1  C   UNL     1      49.411   7.611  12.702  0.00  0.00    +0.000 A 
ATOM      2  C   UNL     1      48.450   7.674  11.724  0.00  0.00    +0.000 A 
ATOM      3  N   UNL     1      47.184   7.226  11.880  0.00  0.00    +0.000 NA
ATOM      4  C   UNL     1      46.863   6.682  13.064  0.00  0.00    +0.000 A 
ATOM      5  N   UNL     1      45.599   6.212  13.278  0.00  0.00    +0.000 N 
ATOM      6  N   UNL     1      47.723   6.575  14.083  0.00  0.00    +0.000 NA
ATOM      7  C   UNL     1      48.981   7.044  13.882  0.00  0.00    +0.000 A 
ATOM      8  H   UNL     1      45.440   5.799  14.182  0.00  0.00    +0.000 HD
ENDROOT
BRANCH   1  10
ATOM      9  N   UNL     1      51.513   7.721  11.457  0.00  0.00    +0.000 N 
ATOM     10  C   UNL     1      50.792   8.094  12.558  0.00  0.00    +0.000 C 
ATOM     11  O   UNL     1      51.293   8.824  13.406  0.00  0.00    +0.000 OA
ATOM     12  H   UNL     1      52.465   8.064  11.399  0.00  0.00    +0.000 HD
ATOM     13  H   UNL     1      51.197   7.126  10.706  0.00  0.00    +0.000 HD
ENDBRANCH   1  10
BRANCH   5  14
ATOM     14  C   UNL     1      44.559   6.303  12.292  0.00  0.00    +0.000 C 
BRANCH  14  15
ATOM     15  C   UNL     1      44.303   4.967  11.640  0.00  0.00    +0.000 A 
ATOM     16  C   UNL     1      43.404   4.047  12.175  0.00  0.00    +0.000 A 
ATOM     17  C   UNL     1      43.221   2.843  11.511  0.00  0.00    +0.000 A 
ATOM     18  N   UNL     1      43.879   2.490  10.383  0.00  0.00    +0.000 NA
ATOM     19  C   UNL     1      44.785   3.366   9.883  0.00  0.00    +0.000 A 
ATOM     20  C   UNL     1      44.994   4.612  10.476  0.00  0.00    +0.000 A 
BRANCH  19  21
ATOM     21  C   UNL     1      45.536   2.931   8.693  0.00  0.00    +0.000 A 
ATOM     22  C   UNL     1      45.880   3.811   7.657  0.00  0.00    +0.000 A 
ATOM     23  C   UNL     1      46.616   3.360   6.561  0.00  0.00    +0.000 A 
ATOM     24  C   UNL     1      46.991   2.028   6.521  0.00  0.00    +0.000 A 
ATOM     25  N   UNL     1      46.673   1.134   7.479  0.00  0.00    +0.000 NA
ATOM     26  C   UNL     1      45.950   1.607   8.524  0.00  0.00    +0.000 A 
ENDBRANCH  19  21
ENDBRANCH  14  15
ENDBRANCH   5  14
TORSDOF 4
ENDMDL
MODEL 4
REMARK VINA RESULT:    -7.605      2.051      3.471
REMARK INTER + INTRA:          -9.873
REMARK INTER:                  -9.549
REMARK INTRA:                  -0.323
REMARK UNBOUND:                -0.490
REMARK  Name = 
REMARK  4 active torsions:
REMARK  status: ('A' for Active; 'I' for Inactive)
REMARK    1  A    between atoms: C_2  and  C_4
REMARK    2  A    between atoms: N_8  and  C_9
REMARK    3  A    between atoms: C_9  and  C_10
REMARK    4  A    between atoms: C_14  and  C_15
REMARK                            x       y       z     vdW  Elec       q    Type
REMARK                         _______ _______ _______ _____ _____    ______ ____
ROOT
ATOM      1  C   UNL     1      46.205   1.998   7.845  0.00  0.00    +0.000 A 
ATOM      2  C   UNL     1      45.783   1.976   9.151  0.00  0.00    +0.000 A 
ATOM      3  N   UNL     1      45.066   2.966   9.729  0.00  0.00    +0.000 NA
ATOM      4  C   UNL     1      44.763   4.031   8.973  0.00  0.00    +0.000 A 
ATOM      5  N   UNL     1      44.042   5.062   9.503  0.00  0.00    +0.000 N 
ATOM      6  N   UNL     1      45.124   4.150   7.689  0.00  0.00    +0.000 NA
ATOM      7  C   UNL     1      45.837   3.129   7.150  0.00  0.00    +0.000 A 
ATOM      8  H   UNL     1      43.871   5.835   8.882  0.00  0.00    +0.000 HD
ENDROOT
BRANCH   1  10
ATOM      9  N   UNL     1      46.771  -0.366   7.568  0.00  0.00    +0.000 N 
ATOM     10  C   UNL     1      46.983   0.933   7.193  0.00  0.00    +0.000 C 
ATOM     11  O   UNL     1      47.804   1.200   6.323  0.00  0.00    +0.000 OA
ATOM     12  H   UNL     1      47.335  -1.070   7.104  0.00  0.00    +0.000 HD
ATOM     13  H   UNL     1      46.124  -0.690   8.271  0.00  0.00    +0.000 HD
ENDBRANCH   1  10
BRANCH   5  14
ATOM     14  C   UNL     1      43.548   5.051  10.852  0.00  0.00    +0.000 C 
BRANCH  14  15
ATOM     15  C   UNL     1      44.665   5.241  11.847  0.00  0.00    +0.000 A 
ATOM     16  C   UNL     1      44.727   4.513  13.033  0.00  0.00    +0.000 A 
ATOM     17  C   UNL     1      45.790   4.743  13.892  0.00  0.00    +0.000 A 
ATOM     18  N   UNL     1      46.767   5.650  13.666  0.00  0.00    +0.000 NA
ATOM     19  C   UNL     1      46.689   6.390  12.532  0.00  0.00    +0.000 A 
ATOM     20  C   UNL     1      45.668   6.187  11.602  0.00  0.00    +0.000 A 
BRANCH  19  21
ATOM     21  C   UNL     1      47.727   7.416  12.341  0.00  0.00    +0.000 A 
ATOM     22  C   UNL     1      49.096   7.122  12.399  0.00  0.00    +0.000 A 
ATOM     23  C   UNL     1      50.045   8.122  12.185  0.00  0.00    +0.000 A 
ATOM     24  C   UNL     1      49.602   9.406  11.919  0.00  0.00    +0.000 A 
ATOM     25  N   UNL     1      48.299   9.750  11.868  0.00  0.00    +0.000 NA
ATOM     26  C   UNL     1      47.406   8.753  12.090  0.00  0.00    +0.000 A 
ENDBRANCH  19  21
ENDBRANCH  14  15
ENDBRANCH   5  14
TORSDOF 4
ENDMDL
MODEL 5
REMARK VINA RESULT:    -7.531      2.740      6.867
REMARK INTER + INTRA:          -9.781
REMARK INTER:                  -9.755
REMARK INTRA:                  -0.027
REMARK UNBOUND:                -0.490
REMARK  Name = 
REMARK  4 active torsions:
REMARK  status: ('A' for Active; 'I' for Inactive)
REMARK    1  A    between atoms: C_2  and  C_4
REMARK    2  A    between atoms: N_8  and  C_9
REMARK    3  A    between atoms: C_9  and  C_10
REMARK    4  A    between atoms: C_14  and  C_15
REMARK                            x       y       z     vdW  Elec       q    Type
REMARK                         _______ _______ _______ _____ _____    ______ ____
ROOT
ATOM      1  C   UNL     1      47.318   6.700  13.639  0.00  0.00    +0.000 A 
ATOM      2  C   UNL     1      46.217   5.882  13.696  0.00  0.00    +0.000 A 
ATOM      3  N   UNL     1      45.161   5.980  12.858  0.00  0.00    +0.000 NA
ATOM      4  C   UNL     1      45.199   6.944  11.926  0.00  0.00    +0.000 A 
ATOM      5  N   UNL     1      44.160   7.091  11.053  0.00  0.00    +0.000 N 
ATOM      6  N   UNL     1      46.225   7.792  11.785  0.00  0.00    +0.000 NA
ATOM      7  C   UNL     1      47.266   7.652  12.644  0.00  0.00    +0.000 A 
ATOM      8  H   UNL     1      44.250   7.849  10.397  0.00  0.00    +0.000 HD
ENDROOT
BRANCH   1  10
ATOM      9  N   UNL     1      48.288   6.223  15.834  0.00  0.00    +0.000 N 
ATOM     10  C   UNL     1      48.481   6.611  14.536  0.00  0.00    +0.000 C 
ATOM     11  O   UNL     1      49.607   6.875  14.130  0.00  0.00    +0.000 OA
ATOM     12  H   UNL     1      49.112   6.185  16.424  0.00  0.00    +0.000 HD
ATOM     13  H   UNL     1      47.407   5.986  16.265  0.00  0.00    +0.000 HD
ENDBRANCH   1  10
BRANCH   5  14
ATOM     14  C   UNL     1      43.014   6.225  11.057  0.00  0.00    +0.000 C 
BRANCH  14  15
ATOM     15  C   UNL     1      43.413   4.787  10.834  0.00  0.00    +0.000 A 
ATOM     16  C   UNL     1      43.036   3.774  11.713  0.00  0.00    +0.000 A 
ATOM     17  C   UNL     1      43.438   2.477  11.435  0.00  0.00    +0.000 A 
ATOM     18  N   UNL     1      44.197   2.129  10.370  0.00  0.00    +0.000 NA
ATOM     19  C   UNL     1      44.600   3.118   9.534  0.00  0.00    +0.000 A 
ATOM     20  C   UNL     1      44.202   4.442   9.731  0.00  0.00    +0.000 A 
BRANCH  19  21
ATOM     21  C   UNL     1      45.479   2.724   8.422  0.00  0.00    +0.000 A 
ATOM     22  C   UNL     1      45.822   3.603   7.385  0.00  0.00    +0.000 A 
ATOM     23  C   UNL     1      46.681   3.195   6.364  0.00  0.00    +0.000 A 
ATOM     24  C   UNL     1      47.179   1.904   6.399  0.00  0.00    +0.000 A 
ATOM     25  N   UNL     1      46.870   1.010   7.360  0.00  0.00    +0.000 NA
ATOM     26  C   UNL     1      46.026   1.441   8.331  0.00  0.00    +0.000 A 
ENDBRANCH  19  21
ENDBRANCH  14  15
ENDBRANCH   5  14
TORSDOF 4
ENDMDL
MODEL 6
REMARK VINA RESULT:    -7.308      3.279      7.839
REMARK INTER + INTRA:          -9.506
REMARK INTER:                  -9.097
REMARK INTRA:                  -0.410
REMARK UNBOUND:                -0.490
REMARK  Name = 
REMARK  4 active torsions:
REMARK  status: ('A' for Active; 'I' for Inactive)
REMARK    1  A    between atoms: C_2  and  C_4
REMARK    2  A    between atoms: N_8  and  C_9
REMARK    3  A    between atoms: C_9  and  C_10
REMARK    4  A    between atoms: C_14  and  C_15
REMARK                            x       y       z     vdW  Elec       q    Type
REMARK                         _______ _______ _______ _____ _____    ______ ____
ROOT
ATOM      1  C   UNL     1      49.206   4.347  17.359  0.00  0.00    +0.000 A 
ATOM      2  C   UNL     1      48.902   5.476  16.639  0.00  0.00    +0.000 A 
ATOM      3  N   UNL     1      47.954   5.524  15.676  0.00  0.00    +0.000 NA
ATOM      4  C   UNL     1      47.284   4.392  15.412  0.00  0.00    +0.000 A 
ATOM      5  N   UNL     1      46.316   4.380  14.449  0.00  0.00    +0.000 N 
ATOM      6  N   UNL     1      47.501   3.239  16.058  0.00  0.00    +0.000 NA
ATOM      7  C   UNL     1      48.458   3.241  17.020  0.00  0.00    +0.000 A 
ATOM      8  H   UNL     1      45.872   3.491  14.294  0.00  0.00    +0.000 HD
ENDROOT
BRANCH   1  10
ATOM      9  N   UNL     1      51.152   3.263  18.368  0.00  0.00    +0.000 N 
ATOM     10  C   UNL     1      50.229   4.271  18.413  0.00  0.00    +0.000 C 
ATOM     11  O   UNL     1      50.261   5.099  19.316  0.00  0.00    +0.000 OA
ATOM     12  H   UNL     1      51.834   3.237  19.118  0.00  0.00    +0.000 HD
ATOM     13  H   UNL     1      51.212   2.534  17.673  0.00  0.00    +0.000 HD
ENDBRANCH   1  10
BRANCH   5  14
ATOM     14  C   UNL     1      45.943   5.553  13.709  0.00  0.00    +0.000 C 
BRANCH  14  15
ATOM     15  C   UNL     1      45.087   5.200  12.517  0.00  0.00    +0.000 A 
ATOM     16  C   UNL     1      43.718   5.452  12.495  0.00  0.00    +0.000 A 
ATOM     17  C   UNL     1      43.003   5.103  11.359  0.00  0.00    +0.000 A 
ATOM     18  N   UNL     1      43.546   4.509  10.272  0.00  0.00    +0.000 NA
ATOM     19  C   UNL     1      44.872   4.226  10.306  0.00  0.00    +0.000 A 
ATOM     20  C   UNL     1      45.662   4.582  11.401  0.00  0.00    +0.000 A 
BRANCH  19  21
ATOM     21  C   UNL     1      45.426   3.521   9.139  0.00  0.00    +0.000 A 
ATOM     22  C   UNL     1      45.888   4.196   8.001  0.00  0.00    +0.000 A 
ATOM     23  C   UNL     1      46.431   3.488   6.928  0.00  0.00    +0.000 A 
ATOM     24  C   UNL     1      46.496   2.108   7.016  0.00  0.00    +0.000 A 
ATOM     25  N   UNL     1      46.052   1.405   8.077  0.00  0.00    +0.000 NA
ATOM     26  C   UNL     1      45.523   2.127   9.096  0.00  0.00    +0.000 A 
ENDBRANCH  19  21
ENDBRANCH  14  15
ENDBRANCH   5  14
TORSDOF 4
ENDMDL
MODEL 7
REMARK VINA RESULT:    -6.959      2.500      7.204
REMARK INTER + INTRA:          -9.076
REMARK INTER:                  -9.151
REMARK INTRA:                   0.075
REMARK UNBOUND:                -0.490
REMARK  Name = 
REMARK  4 active torsions:
REMARK  status: ('A' for Active; 'I' for Inactive)
REMARK    1  A    between atoms: C_2  and  C_4
REMARK    2  A    between atoms: N_8  and  C_9
REMARK    3  A    between atoms: C_9  and  C_10
REMARK    4  A    between atoms: C_14  and  C_15
REMARK                            x       y       z     vdW  Elec       q    Type
REMARK                         _______ _______ _______ _____ _____    ______ ____
ROOT
ATOM      1  C   UNL     1      47.322   4.698  15.175  0.00  0.00    +0.000 A 
ATOM      2  C   UNL     1      46.054   4.525  14.679  0.00  0.00    +0.000 A 
ATOM      3  N   UNL     1      45.567   5.187  13.606  0.00  0.00    +0.000 NA
ATOM      4  C   UNL     1      46.379   6.069  13.004  0.00  0.00    +0.000 A 
ATOM      5  N   UNL     1      45.941   6.767  11.915  0.00  0.00    +0.000 N 
ATOM      6  N   UNL     1      47.633   6.310  13.405  0.00  0.00    +0.000 NA
ATOM      7  C   UNL     1      48.080   5.617  14.483  0.00  0.00    +0.000 A 
ATOM      8  H   UNL     1      46.598   7.425  11.531  0.00  0.00    +0.000 HD
ENDROOT
BRANCH   1  10
ATOM      9  N   UNL     1      47.041   3.220  17.105  0.00  0.00    +0.000 N 
ATOM     10  C   UNL     1      47.876   3.987  16.338  0.00  0.00    +0.000 C 
ATOM     11  O   UNL     1      49.066   4.074  16.617  0.00  0.00    +0.000 OA
ATOM     12  H   UNL     1      47.458   2.756  17.904  0.00  0.00    +0.000 HD
ATOM     13  H   UNL     1      46.052   3.085  16.963  0.00  0.00    +0.000 HD
ENDBRANCH   1  10
BRANCH   5  14
ATOM     14  C   UNL     1      44.637   6.579  11.345  0.00  0.00    +0.000 C 
BRANCH  14  15
ATOM     15  C   UNL     1      44.458   5.169  10.837  0.00  0.00    +0.000 A 
ATOM     16  C   UNL     1      43.571   4.278  11.436  0.00  0.00    +0.000 A 
ATOM     17  C   UNL     1      43.461   3.002  10.905  0.00  0.00    +0.000 A 
ATOM     18  N   UNL     1      44.179   2.553   9.850  0.00  0.00    +0.000 NA
ATOM     19  C   UNL     1      45.073   3.405   9.290  0.00  0.00    +0.000 A 
ATOM     20  C   UNL     1      45.211   4.717   9.748  0.00  0.00    +0.000 A 
BRANCH  19  21
ATOM     21  C   UNL     1      45.890   2.873   8.187  0.00  0.00    +0.000 A 
ATOM     22  C   UNL     1      46.379   1.559   8.179  0.00  0.00    +0.000 A 
ATOM     23  C   UNL     1      47.127   1.088   7.099  0.00  0.00    +0.000 A 
ATOM     24  C   UNL     1      47.376   1.950   6.044  0.00  0.00    +0.000 A 
ATOM     25  N   UNL     1      46.946   3.227   6.006  0.00  0.00    +0.000 NA
ATOM     26  C   UNL     1      46.230   3.651   7.077  0.00  0.00    +0.000 A 
ENDBRANCH  19  21
ENDBRANCH  14  15
ENDBRANCH   5  14
TORSDOF 4
ENDMDL
MODEL 8
REMARK VINA RESULT:    -6.526      3.596      6.303
REMARK INTER + INTRA:          -8.542
REMARK INTER:                  -8.101
REMARK INTRA:                  -0.441
REMARK UNBOUND:                -0.490
REMARK  Name = 
REMARK  4 active torsions:
REMARK  status: ('A' for Active; 'I' for Inactive)
REMARK    1  A    between atoms: C_2  and  C_4
REMARK    2  A    between atoms: N_8  and  C_9
REMARK    3  A    between atoms: C_9  and  C_10
REMARK    4  A    between atoms: C_14  and  C_15
REMARK                            x       y       z     vdW  Elec       q    Type
REMARK                         _______ _______ _______ _____ _____    ______ ____
ROOT
ATOM      1  C   UNL     1      45.262   4.845  11.485  0.00  0.00    +0.000 A 
ATOM      2  C   UNL     1      45.319   3.800  12.374  0.00  0.00    +0.000 A 
ATOM      3  N   UNL     1      45.929   3.866  13.578  0.00  0.00    +0.000 NA
ATOM      4  C   UNL     1      46.517   5.026  13.909  0.00  0.00    +0.000 A 
ATOM      5  N   UNL     1      47.149   5.151  15.113  0.00  0.00    +0.000 N 
ATOM      6  N   UNL     1      46.517   6.105  13.117  0.00  0.00    +0.000 NA
ATOM      7  C   UNL     1      45.887   5.993  11.920  0.00  0.00    +0.000 A 
ATOM      8  H   UNL     1      47.584   6.042  15.281  0.00  0.00    +0.000 HD
ENDROOT
BRANCH   1  10
ATOM      9  N   UNL     1      45.365   4.919   9.042  0.00  0.00    +0.000 N 
ATOM     10  C   UNL     1      44.602   4.798  10.171  0.00  0.00    +0.000 C 
ATOM     11  O   UNL     1      43.388   4.648  10.085  0.00  0.00    +0.000 OA
ATOM     12  H   UNL     1      44.872   4.893   8.156  0.00  0.00    +0.000 HD
ATOM     13  H   UNL     1      46.364   5.047   9.004  0.00  0.00    +0.000 HD
ENDBRANCH   1  10
BRANCH   5  14
ATOM     14  C   UNL     1      47.189   4.093  16.083  0.00  0.00    +0.000 C 
BRANCH  14  15
ATOM     15  C   UNL     1      48.303   4.303  17.079  0.00  0.00    +0.000 A 
ATOM     16  C   UNL     1      48.292   5.362  17.983  0.00  0.00    +0.000 A 
ATOM     17  C   UNL     1      49.351   5.482  18.869  0.00  0.00    +0.000 A 
ATOM     18  N   UNL     1      50.414   4.646  18.901  0.00  0.00    +0.000 NA
ATOM     19  C   UNL     1      50.448   3.637  17.995  0.00  0.00    +0.000 A 
ATOM     20  C   UNL     1      49.399   3.433  17.097  0.00  0.00    +0.000 A 
BRANCH  19  21
ATOM     21  C   UNL     1      51.646   2.781  18.005  0.00  0.00    +0.000 A 
ATOM     22  C   UNL     1      51.657   1.496  17.445  0.00  0.00    +0.000 A 
ATOM     23  C   UNL     1      52.824   0.730  17.454  0.00  0.00    +0.000 A 
ATOM     24  C   UNL     1      53.961   1.268  18.030  0.00  0.00    +0.000 A 
ATOM     25  N   UNL     1      54.004   2.490  18.599  0.00  0.00    +0.000 NA
ATOM     26  C   UNL     1      52.849   3.201  18.579  0.00  0.00    +0.000 A 
ENDBRANCH  19  21
ENDBRANCH  14  15
ENDBRANCH   5  14
TORSDOF 4
ENDMDL
MODEL 9
REMARK VINA RESULT:    -6.441      3.828      8.282
REMARK INTER + INTRA:          -8.437
REMARK INTER:                  -7.984
REMARK INTRA:                  -0.453
REMARK UNBOUND:                -0.490
REMARK  Name = 
REMARK  4 active torsions:
REMARK  status: ('A' for Active; 'I' for Inactive)
REMARK    1  A    between atoms: C_2  and  C_4
REMARK    2  A    between atoms: N_8  and  C_9
REMARK    3  A    between atoms: C_9  and  C_10
REMARK    4  A    between atoms: C_14  and  C_15
REMARK                            x       y       z     vdW  Elec       q    Type
REMARK                         _______ _______ _______ _____ _____    ______ ____
ROOT
ATOM      1  C   UNL     1      49.122   5.183  18.559  0.00  0.00    +0.000 A 
ATOM      2  C   UNL     1      48.951   6.489  18.171  0.00  0.00    +0.000 A 
ATOM      3  N   UNL     1      48.624   6.866  16.914  0.00  0.00    +0.000 NA
ATOM      4  C   UNL     1      48.469   5.897  16.000  0.00  0.00    +0.000 A 
ATOM      5  N   UNL     1      48.139   6.218  14.715  0.00  0.00    +0.000 N 
ATOM      6  N   UNL     1      48.610   4.594  16.275  0.00  0.00    +0.000 NA
ATOM      7  C   UNL     1      48.933   4.264  17.551  0.00  0.00    +0.000 A 
ATOM      8  H   UNL     1      48.060   5.440  14.082  0.00  0.00    +0.000 HD
ENDROOT
BRANCH   1  10
ATOM      9  N   UNL     1      48.584   3.983  20.621  0.00  0.00    +0.000 N 
ATOM     10  C   UNL     1      49.474   4.748  19.919  0.00  0.00    +0.000 C 
ATOM     11  O   UNL     1      50.550   5.060  20.417  0.00  0.00    +0.000 OA
ATOM     12  H   UNL     1      48.858   3.712  21.560  0.00  0.00    +0.000 HD
ATOM     13  H   UNL     1      47.677   3.675  20.305  0.00  0.00    +0.000 HD
ENDBRANCH   1  10
BRANCH   5  14
ATOM     14  C   UNL     1      47.909   7.569  14.286  0.00  0.00    +0.000 C 
BRANCH  14  15
ATOM     15  C   UNL     1      46.843   7.634  13.221  0.00  0.00    +0.000 A 
ATOM     16  C   UNL     1      46.075   8.778  13.017  0.00  0.00    +0.000 A 
ATOM     17  C   UNL     1      45.119   8.759  12.014  0.00  0.00    +0.000 A 
ATOM     18  N   UNL     1      44.863   7.688  11.228  0.00  0.00    +0.000 NA
ATOM     19  C   UNL     1      45.581   6.559  11.450  0.00  0.00    +0.000 A 
ATOM     20  C   UNL     1      46.586   6.517  12.418  0.00  0.00    +0.000 A 
BRANCH  19  21
ATOM     21  C   UNL     1      45.240   5.387  10.627  0.00  0.00    +0.000 A 
ATOM     22  C   UNL     1      45.663   5.252   9.298  0.00  0.00    +0.000 A 
ATOM     23  C   UNL     1      45.338   4.110   8.564  0.00  0.00    +0.000 A 
ATOM     24  C   UNL     1      44.587   3.123   9.178  0.00  0.00    +0.000 A 
ATOM     25  N   UNL     1      44.138   3.207  10.447  0.00  0.00    +0.000 NA
ATOM     26  C   UNL     1      44.467   4.335  11.126  0.00  0.00    +0.000 A 
ENDBRANCH  19  21
ENDBRANCH  14  15
ENDBRANCH   5  14
TORSDOF 4
ENDMDL
