MODEL 1
REMARK VINA RESULT:    -8.158      0.000      0.000
REMARK INTER + INTRA:         -10.450
REMARK INTER:                 -10.304
REMARK INTRA:                  -0.146
REMARK UNBOUND:                -0.146
REMARK  Name = 
REMARK  6 active torsions:
REMARK  status: ('A' for Active; 'I' for Inactive)
REMARK    1  A    between atoms: N_1  and  C_2
REMARK    2  A    between atoms: C_2  and  C_3
REMARK    3  A    between atoms: N_5  and  C_6
REMARK    4  A    between atoms: C_6  and  C_7
REMARK    5  A    between atoms: C_18  and  O_19
REMARK    6  A    between atoms: C_20  and  O_21
REMARK                            x       y       z     vdW  Elec       q    Type
REMARK                         _______ _______ _______ _____ _____    ______ ____
ROOT
ATOM      1  C   UNL     1      46.409   6.765  12.040  0.00  0.00    +0.000 C 
ATOM      2  C   UNL     1      45.638   6.132  10.869  0.00  0.00    +0.000 C 
ATOM      3  N   UNL     1      44.560   5.219  11.309  0.00  0.00    +0.000 NA
ATOM      4  C   UNL     1      45.120   4.125  12.130  0.00  0.00    +0.000 C 
ATOM      5  C   UNL     1      45.937   4.626  13.333  0.00  0.00    +0.000 C 
ATOM      6  C   UNL     1      47.011   5.630  12.878  0.00  0.00    +0.000 C 
ENDROOT
BRANCH   5   7
ATOM      7  O   UNL     1      46.553   3.522  14.007  0.00  0.00    +0.000 OA
ATOM      8  H   UNL     1      46.055   3.342  14.825  0.00  0.00    +0.000 HD
ENDBRANCH   5   7
BRANCH   6   9
ATOM      9  O   UNL     1      47.754   6.149  13.983  0.00  0.00    +0.000 OA
ATOM     10  H   UNL     1      47.978   7.078  13.795  0.00  0.00    +0.000 HD
ENDBRANCH   6   9
BRANCH   1  11
ATOM     11  C   UNL     1      45.556   7.736  12.882  0.00  0.00    +0.000 C 
BRANCH  11  12
ATOM     12  N   UNL     1      46.376   8.686  13.637  0.00  0.00    +0.000 NA
ATOM     13  H   UNL     1      47.259   8.240  13.887  0.00  0.00    +0.000 HD
ATOM     14  H   UNL     1      45.918   8.895  14.525  0.00  0.00    +0.000 HD
ENDBRANCH  11  12
ENDBRANCH   1  11
BRANCH   3  15
ATOM     15  C   UNL     1      43.812   4.642  10.170  0.00  0.00    +0.000 C 
BRANCH  15  16
ATOM     16  C   UNL     1      44.608   3.648   9.362  0.00  0.00    +0.000 A 
ATOM     17  C   UNL     1      44.488   2.285   9.597  0.00  0.00    +0.000 A 
ATOM     18  N   UNL     1      45.242   1.346   8.992  0.00  0.00    +0.000 NA
ATOM     19  C   UNL     1      46.146   1.777   8.082  0.00  0.00    +0.000 A 
ATOM     20  C   UNL     1      46.997   0.913   7.427  0.00  0.00    +0.000 A 
ATOM     21  N   UNL     1      47.897   1.266   6.481  0.00  0.00    +0.000 NA
ATOM     22  C   UNL     1      47.935   2.572   6.194  0.00  0.00    +0.000 A 
ATOM     23  N   UNL     1      47.194   3.527   6.778  0.00  0.00    +0.000 NA
ATOM     24  C   UNL     1      46.320   3.118   7.718  0.00  0.00    +0.000 A 
ATOM     25  C   UNL     1      45.536   4.047   8.391  0.00  0.00    +0.000 A 
ENDBRANCH  15  16
ENDBRANCH   3  15
TORSDOF 6
ENDMDL
MODEL 2
REMARK VINA RESULT:    -7.576      1.658      2.268
REMARK INTER + INTRA:          -9.715
REMARK INTER:                  -9.118
REMARK INTRA:                  -0.597
REMARK UNBOUND:                -0.146
REMARK  Name = 
REMARK  6 active torsions:
REMARK  status: ('A' for Active; 'I' for Inactive)
REMARK    1  A    between atoms: N_1  and  C_2
REMARK    2  A    between atoms: C_2  and  C_3
REMARK    3  A    between atoms: N_5  and  C_6
REMARK    4  A    between atoms: C_6  and  C_7
REMARK    5  A    between atoms: C_18  and  O_19
REMARK    6  A    between atoms: C_20  and  O_21
REMARK                            x       y       z     vdW  Elec       q    Type
REMARK                         _______ _______ _______ _____ _____    ______ ____
ROOT
ATOM      1  C   UNL     1      46.681   6.374  12.978  0.00  0.00    +0.000 C 
ATOM      2  C   UNL     1      45.666   5.420  12.326  0.00  0.00    +0.000 C 
ATOM      3  N   UNL     1      45.067   5.966  11.088  0.00  0.00    +0.000 NA
ATOM      4  C   UNL     1      44.377   7.241  11.373  0.00  0.00    +0.000 C 
ATOM      5  C   UNL     1      45.283   8.285  12.049  0.00  0.00    +0.000 C 
ATOM      6  C   UNL     1      45.959   7.689  13.297  0.00  0.00    +0.000 C 
ENDROOT
BRANCH   5   7
ATOM      7  O   UNL     1      44.520   9.443  12.411  0.00  0.00    +0.000 OA
ATOM      8  H   UNL     1      45.105  10.221  12.374  0.00  0.00    +0.000 HD
ENDBRANCH   5   7
BRANCH   6   9
ATOM      9  O   UNL     1      46.845   8.622  13.917  0.00  0.00    +0.000 OA
ATOM     10  H   UNL     1      46.487   9.519  13.787  0.00  0.00    +0.000 HD
ENDBRANCH   6   9
BRANCH   1  11
ATOM     11  C   UNL     1      47.953   6.586  12.131  0.00  0.00    +0.000 C 
BRANCH  11  12
ATOM     12  N   UNL     1      49.172   6.560  12.942  0.00  0.00    +0.000 NA
ATOM     13  H   UNL     1      49.516   7.513  13.061  0.00  0.00    +0.000 HD
ATOM     14  H   UNL     1      49.907   6.069  12.431  0.00  0.00    +0.000 HD
ENDBRANCH  11  12
ENDBRANCH   1  11
BRANCH   3  15
ATOM     15  C   UNL     1      44.114   5.024  10.461  0.00  0.00    +0.000 C 
BRANCH  15  16
ATOM     16  C   UNL     1      44.771   3.992   9.580  0.00  0.00    +0.000 A 
ATOM     17  C   UNL     1      44.777   2.652   9.942  0.00  0.00    +0.000 A 
ATOM     18  N   UNL     1      45.435   1.690   9.264  0.00  0.00    +0.000 NA
ATOM     19  C   UNL     1      46.099   2.071   8.148  0.00  0.00    +0.000 A 
ATOM     20  C   UNL     1      46.835   1.183   7.394  0.00  0.00    +0.000 A 
ATOM     21  N   UNL     1      47.492   1.482   6.250  0.00  0.00    +0.000 NA
ATOM     22  C   UNL     1      47.397   2.758   5.860  0.00  0.00    +0.000 A 
ATOM     23  N   UNL     1      46.748   3.734   6.513  0.00  0.00    +0.000 NA
ATOM     24  C   UNL     1      46.118   3.380   7.650  0.00  0.00    +0.000 A 
ATOM     25  C   UNL     1      45.447   4.335   8.403  0.00  0.00    +0.000 A 
ENDBRANCH  15  16
ENDBRANCH   3  15
TORSDOF 6
ENDMDL
MODEL 3
REMARK VINA RESULT:    -6.449      3.418      6.934
REMARK INTER + INTRA:          -8.292
REMARK INTER:                  -7.791
REMARK INTRA:                  -0.501
REMARK UNBOUND:                -0.146
REMARK  Name = 
REMARK  6 active torsions:
REMARK  status: ('A' for Active; 'I' for Inactive)
REMARK    1  A    between atoms: N_1  and  C_2
REMARK    2  A    between atoms: C_2  and  C_3
REMARK    3  A    between atoms: N_5  and  C_6
REMARK    4  A    between atoms: C_6  and  C_7
REMARK    5  A    between atoms: C_18  and  O_19
REMARK    6  A    between atoms: C_20  and  O_21
REMARK                            x       y       z     vdW  Elec       q    Type
REMARK                         _______ _______ _______ _____ _____    ______ ____
ROOT
ATOM      1  C   UNL     1      44.301   3.735  12.544  0.00  0.00    +0.000 C 
ATOM      2  C   UNL     1      45.518   4.648  12.317  0.00  0.00    +0.000 C 
ATOM      3  N   UNL     1      45.383   5.509  11.121  0.00  0.00    +0.000 NA
ATOM      4  C   UNL     1      45.204   4.680   9.911  0.00  0.00    +0.000 C 
ATOM      5  C   UNL     1      44.022   3.700  10.016  0.00  0.00    +0.000 C 
ATOM      6  C   UNL     1      44.130   2.856  11.299  0.00  0.00    +0.000 C 
ENDROOT
BRANCH   5   7
ATOM      7  O   UNL     1      43.986   2.843   8.868  0.00  0.00    +0.000 OA
ATOM      8  H   UNL     1      43.233   2.233   8.963  0.00  0.00    +0.000 HD
ENDBRANCH   5   7
BRANCH   6   9
ATOM      9  O   UNL     1      43.018   1.971  11.446  0.00  0.00    +0.000 OA
ATOM     10  H   UNL     1      43.357   1.084  11.662  0.00  0.00    +0.000 HD
ENDBRANCH   6   9
BRANCH   1  11
ATOM     11  C   UNL     1      43.016   4.506  12.907  0.00  0.00    +0.000 C 
BRANCH  11  12
ATOM     12  N   UNL     1      43.276   5.919  13.193  0.00  0.00    +0.000 NA
ATOM     13  H   UNL     1      43.921   5.987  13.980  0.00  0.00    +0.000 HD
ATOM     14  H   UNL     1      42.414   6.363  13.510  0.00  0.00    +0.000 HD
ENDBRANCH  11  12
ENDBRANCH   1  11
BRANCH   3  15
ATOM     15  C   UNL     1      46.550   6.399  10.935  0.00  0.00    +0.000 C 
BRANCH  15  16
ATOM     16  C   UNL     1      47.021   7.058  12.206  0.00  0.00    +0.000 A 
ATOM     17  C   UNL     1      46.424   8.224  12.665  0.00  0.00    +0.000 A 
ATOM     18  N   UNL     1      46.859   8.927  13.729  0.00  0.00    +0.000 NA
ATOM     19  C   UNL     1      47.928   8.433  14.395  0.00  0.00    +0.000 A 
ATOM     20  C   UNL     1      48.483   9.084  15.476  0.00  0.00    +0.000 A 
ATOM     21  N   UNL     1      49.524   8.633  16.212  0.00  0.00    +0.000 NA
ATOM     22  C   UNL     1      50.030   7.460  15.818  0.00  0.00    +0.000 A 
ATOM     23  N   UNL     1      49.615   6.738  14.766  0.00  0.00    +0.000 NA
ATOM     24  C   UNL     1      48.579   7.239  14.065  0.00  0.00    +0.000 A 
ATOM     25  C   UNL     1      48.107   6.568  12.944  0.00  0.00    +0.000 A 
ENDBRANCH  15  16
ENDBRANCH   3  15
TORSDOF 6
ENDMDL
MODEL 4
REMARK VINA RESULT:    -6.346      2.833      6.244
REMARK INTER + INTRA:          -8.162
REMARK INTER:                  -7.692
REMARK INTRA:                  -0.470
REMARK UNBOUND:                -0.146
REMARK  Name = 
REMARK  6 active torsions:
REMARK  status: ('A' for Active; 'I' for Inactive)
REMARK    1  A    between atoms: N_1  and  C_2
REMARK    2  A    between atoms: C_2  and  C_3
REMARK    3  A    between atoms: N_5  and  C_6
REMARK    4  A    between atoms: C_6  and  C_7
REMARK    5  A    between atoms: C_18  and  O_19
REMARK    6  A    between atoms: C_20  and  O_21
REMARK                            x       y       z     vdW  Elec       q    Type
REMARK                         _______ _______ _______ _____ _____    ______ ____
ROOT
ATOM      1  C   UNL     1      43.785   4.400  10.056  0.00  0.00    +0.000 C 
ATOM      2  C   UNL     1      43.820   5.711  10.859  0.00  0.00    +0.000 C 
ATOM      3  N   UNL     1      45.084   5.902  11.604  0.00  0.00    +0.000 NA
ATOM      4  C   UNL     1      45.297   4.784  12.547  0.00  0.00    +0.000 C 
ATOM      5  C   UNL     1      45.264   3.403  11.870  0.00  0.00    +0.000 C 
ATOM      6  C   UNL     1      43.980   3.238  11.038  0.00  0.00    +0.000 C 
ENDROOT
BRANCH   5   7
ATOM      7  O   UNL     1      45.347   2.366  12.855  0.00  0.00    +0.000 OA
ATOM      8  H   UNL     1      44.456   1.997  12.990  0.00  0.00    +0.000 HD
ENDBRANCH   5   7
BRANCH   6   9
ATOM      9  O   UNL     1      43.947   1.982  10.358  0.00  0.00    +0.000 OA
ATOM     10  H   UNL     1      44.681   1.959   9.717  0.00  0.00    +0.000 HD
ENDBRANCH   6   9
BRANCH   1  11
ATOM     11  C   UNL     1      44.795   4.367   8.891  0.00  0.00    +0.000 C 
BRANCH  11  12
ATOM     12  N   UNL     1      45.711   5.510   8.917  0.00  0.00    +0.000 NA
ATOM     13  H   UNL     1      46.400   5.402   8.173  0.00  0.00    +0.000 HD
ATOM     14  H   UNL     1      46.247   5.493   9.786  0.00  0.00    +0.000 HD
ENDBRANCH  11  12
ENDBRANCH   1  11
BRANCH   3  15
ATOM     15  C   UNL     1      45.111   7.181  12.348  0.00  0.00    +0.000 C 
BRANCH  15  16
ATOM     16  C   UNL     1      46.396   7.952  12.184  0.00  0.00    +0.000 A 
ATOM     17  C   UNL     1      46.399   9.340  12.222  0.00  0.00    +0.000 A 
ATOM     18  N   UNL     1      47.486  10.099  11.977  0.00  0.00    +0.000 NA
ATOM     19  C   UNL     1      48.641   9.448  11.708  0.00  0.00    +0.000 A 
ATOM     20  C   UNL     1      49.808  10.117  11.407  0.00  0.00    +0.000 A 
ATOM     21  N   UNL     1      51.005   9.537  11.166  0.00  0.00    +0.000 NA
ATOM     22  C   UNL     1      51.009   8.201  11.228  0.00  0.00    +0.000 A 
ATOM     23  N   UNL     1      49.945   7.422  11.472  0.00  0.00    +0.000 NA
ATOM     24  C   UNL     1      48.777   8.054  11.699  0.00  0.00    +0.000 A 
ATOM     25  C   UNL     1      47.620   7.320  11.931  0.00  0.00    +0.000 A 
ENDBRANCH  15  16
ENDBRANCH   3  15
TORSDOF 6
ENDMDL
MODEL 5
REMARK VINA RESULT:    -6.332      3.183      7.517
REMARK INTER + INTRA:          -8.144
REMARK INTER:                  -7.624
REMARK INTRA:                  -0.520
REMARK UNBOUND:                -0.146
REMARK  Name = 
REMARK  6 active torsions:
REMARK  status: ('A' for Active; 'I' for Inactive)
REMARK    1  A    between atoms: N_1  and  C_2
REMARK    2  A    between atoms: C_2  and  C_3
REMARK    3  A    between atoms: N_5  and  C_6
REMARK    4  A    between atoms: C_6  and  C_7
REMARK    5  A    between atoms: C_18  and  O_19
REMARK    6  A    between atoms: C_20  and  O_21
REMARK                            x       y       z     vdW  Elec       q    Type
REMARK                         _______ _______ _______ _____ _____    ______ ____
ROOT
ATOM      1  C   UNL     1      44.610   4.602  10.386  0.00  0.00    +0.000 C 
ATOM      2  C   UNL     1      45.588   5.787  10.466  0.00  0.00    +0.000 C 
ATOM      3  N   UNL     1      46.085   6.038  11.837  0.00  0.00    +0.000 NA
ATOM      4  C   UNL     1      44.955   6.318  12.748  0.00  0.00    +0.000 C 
ATOM      5  C   UNL     1      43.886   5.211  12.747  0.00  0.00    +0.000 C 
ATOM      6  C   UNL     1      43.425   4.903  11.311  0.00  0.00    +0.000 C 
ENDROOT
BRANCH   5   7
ATOM      7  O   UNL     1      42.765   5.604  13.549  0.00  0.00    +0.000 OA
ATOM      8  H   UNL     1      42.061   5.924  12.957  0.00  0.00    +0.000 HD
ENDBRANCH   5   7
BRANCH   6   9
ATOM      9  O   UNL     1      42.467   3.844  11.278  0.00  0.00    +0.000 OA
ATOM     10  H   UNL     1      41.940   3.878  12.097  0.00  0.00    +0.000 HD
ENDBRANCH   6   9
BRANCH   1  11
ATOM     11  C   UNL     1      45.270   3.242  10.690  0.00  0.00    +0.000 C 
BRANCH  11  12
ATOM     12  N   UNL     1      44.605   2.134  10.000  0.00  0.00    +0.000 NA
ATOM     13  H   UNL     1      44.259   2.462   9.098  0.00  0.00    +0.000 HD
ATOM     14  H   UNL     1      43.774   1.860  10.525  0.00  0.00    +0.000 HD
ENDBRANCH  11  12
ENDBRANCH   1  11
BRANCH   3  15
ATOM     15  C   UNL     1      47.044   7.163  11.891  0.00  0.00    +0.000 C 
BRANCH  15  16
ATOM     16  C   UNL     1      47.587   7.434  13.271  0.00  0.00    +0.000 A 
ATOM     17  C   UNL     1      47.569   8.716  13.801  0.00  0.00    +0.000 A 
ATOM     18  N   UNL     1      48.132   9.055  14.978  0.00  0.00    +0.000 NA
ATOM     19  C   UNL     1      48.720   8.062  15.685  0.00  0.00    +0.000 A 
ATOM     20  C   UNL     1      49.359   8.294  16.884  0.00  0.00    +0.000 A 
ATOM     21  N   UNL     1      49.934   7.349  17.662  0.00  0.00    +0.000 NA
ATOM     22  C   UNL     1      49.860   6.102  17.185  0.00  0.00    +0.000 A 
ATOM     23  N   UNL     1      49.304   5.737  16.020  0.00  0.00    +0.000 NA
ATOM     24  C   UNL     1      48.752   6.721  15.283  0.00  0.00    +0.000 A 
ATOM     25  C   UNL     1      48.182   6.432  14.050  0.00  0.00    +0.000 A 
ENDBRANCH  15  16
ENDBRANCH   3  15
TORSDOF 6
ENDMDL
MODEL 6
REMARK VINA RESULT:    -6.317      3.918      5.871
REMARK INTER + INTRA:          -8.125
REMARK INTER:                  -8.092
REMARK INTRA:                  -0.033
REMARK UNBOUND:                -0.146
REMARK  Name = 
REMARK  6 active torsions:
REMARK  status: ('A' for Active; 'I' for Inactive)
REMARK    1  A    between atoms: N_1  and  C_2
REMARK    2  A    between atoms: C_2  and  C_3
REMARK    3  A    between atoms: N_5  and  C_6
REMARK    4  A    between atoms: C_6  and  C_7
REMARK    5  A    between atoms: C_18  and  O_19
REMARK    6  A    between atoms: C_20  and  O_21
REMARK                            x       y       z     vdW  Elec       q    Type
REMARK                         _______ _______ _______ _____ _____    ______ ____
ROOT
ATOM      1  C   UNL     1      48.944   5.812  18.098  0.00  0.00    +0.000 C 
ATOM      2  C   UNL     1      49.160   5.968  16.583  0.00  0.00    +0.000 C 
ATOM      3  N   UNL     1      47.924   5.762  15.796  0.00  0.00    +0.000 NA
ATOM      4  C   UNL     1      47.380   4.410  16.041  0.00  0.00    +0.000 C 
ATOM      5  C   UNL     1      47.135   4.115  17.531  0.00  0.00    +0.000 C 
ATOM      6  C   UNL     1      48.404   4.399  18.356  0.00  0.00    +0.000 C 
ENDROOT
BRANCH   5   7
ATOM      7  O   UNL     1      46.733   2.751  17.707  0.00  0.00    +0.000 OA
ATOM      8  H   UNL     1      46.133   2.510  16.979  0.00  0.00    +0.000 HD
ENDBRANCH   5   7
BRANCH   6   9
ATOM      9  O   UNL     1      48.189   4.181  19.751  0.00  0.00    +0.000 OA
ATOM     10  H   UNL     1      47.259   4.385  19.956  0.00  0.00    +0.000 HD
ENDBRANCH   6   9
BRANCH   1  11
ATOM     11  C   UNL     1      48.047   6.910  18.706  0.00  0.00    +0.000 C 
BRANCH  11  12
ATOM     12  N   UNL     1      47.878   8.052  17.805  0.00  0.00    +0.000 NA
ATOM     13  H   UNL     1      48.702   8.132  17.208  0.00  0.00    +0.000 HD
ATOM     14  H   UNL     1      47.856   8.913  18.352  0.00  0.00    +0.000 HD
ENDBRANCH  11  12
ENDBRANCH   1  11
BRANCH   3  15
ATOM     15  C   UNL     1      48.144   5.943  14.344  0.00  0.00    +0.000 C 
BRANCH  15  16
ATOM     16  C   UNL     1      46.907   5.729  13.510  0.00  0.00    +0.000 A 
ATOM     17  C   UNL     1      46.224   6.807  12.963  0.00  0.00    +0.000 A 
ATOM     18  N   UNL     1      45.056   6.703  12.300  0.00  0.00    +0.000 NA
ATOM     19  C   UNL     1      44.548   5.458  12.143  0.00  0.00    +0.000 A 
ATOM     20  C   UNL     1      43.343   5.231  11.514  0.00  0.00    +0.000 A 
ATOM     21  N   UNL     1      42.793   4.017  11.288  0.00  0.00    +0.000 NA
ATOM     22  C   UNL     1      43.509   2.979  11.735  0.00  0.00    +0.000 A 
ATOM     23  N   UNL     1      44.675   3.054  12.395  0.00  0.00    +0.000 NA
ATOM     24  C   UNL     1      45.172   4.290  12.598  0.00  0.00    +0.000 A 
ATOM     25  C   UNL     1      46.360   4.457  13.298  0.00  0.00    +0.000 A 
ENDBRANCH  15  16
ENDBRANCH   3  15
TORSDOF 6
ENDMDL
MODEL 7
REMARK VINA RESULT:    -6.091      3.444      6.473
REMARK INTER + INTRA:          -7.840
REMARK INTER:                  -7.760
REMARK INTRA:                  -0.079
REMARK UNBOUND:                -0.146
REMARK  Name = 
REMARK  6 active torsions:
REMARK  status: ('A' for Active; 'I' for Inactive)
REMARK    1  A    between atoms: N_1  and  C_2
REMARK    2  A    between atoms: C_2  and  C_3
REMARK    3  A    between atoms: N_5  and  C_6
REMARK    4  A    between atoms: C_6  and  C_7
REMARK    5  A    between atoms: C_18  and  O_19
REMARK    6  A    between atoms: C_20  and  O_21
REMARK                            x       y       z     vdW  Elec       q    Type
REMARK                         _______ _______ _______ _____ _____    ______ ____
ROOT
ATOM      1  C   UNL     1      44.935   3.234  11.962  0.00  0.00    +0.000 C 
ATOM      2  C   UNL     1      45.414   4.484  12.719  0.00  0.00    +0.000 C 
ATOM      3  N   UNL     1      44.855   5.742  12.175  0.00  0.00    +0.000 NA
ATOM      4  C   UNL     1      45.232   5.897  10.754  0.00  0.00    +0.000 C 
ATOM      5  C   UNL     1      44.824   4.696   9.884  0.00  0.00    +0.000 C 
ATOM      6  C   UNL     1      45.347   3.382  10.493  0.00  0.00    +0.000 C 
ENDROOT
BRANCH   5   7
ATOM      7  O   UNL     1      45.330   4.854   8.552  0.00  0.00    +0.000 OA
ATOM      8  H   UNL     1      44.646   5.289   8.012  0.00  0.00    +0.000 HD
ENDBRANCH   5   7
BRANCH   6   9
ATOM      9  O   UNL     1      44.940   2.245   9.729  0.00  0.00    +0.000 OA
ATOM     10  H   UNL     1      45.738   1.789   9.407  0.00  0.00    +0.000 HD
ENDBRANCH   6   9
BRANCH   1  11
ATOM     11  C   UNL     1      43.427   2.957  12.130  0.00  0.00    +0.000 C 
BRANCH  11  12
ATOM     12  N   UNL     1      43.058   1.604  11.706  0.00  0.00    +0.000 NA
ATOM     13  H   UNL     1      43.161   1.532  10.693  0.00  0.00    +0.000 HD
ATOM     14  H   UNL     1      42.066   1.452  11.889  0.00  0.00    +0.000 HD
ENDBRANCH  11  12
ENDBRANCH   1  11
BRANCH   3  15
ATOM     15  C   UNL     1      45.306   6.931  12.932  0.00  0.00    +0.000 C 
BRANCH  15  16
ATOM     16  C   UNL     1      46.768   7.248  12.751  0.00  0.00    +0.000 A 
ATOM     17  C   UNL     1      47.746   6.420  13.286  0.00  0.00    +0.000 A 
ATOM     18  N   UNL     1      49.065   6.694  13.260  0.00  0.00    +0.000 NA
ATOM     19  C   UNL     1      49.441   7.838  12.643  0.00  0.00    +0.000 A 
ATOM     20  C   UNL     1      50.758   8.240  12.585  0.00  0.00    +0.000 A 
ATOM     21  N   UNL     1      51.212   9.348  11.955  0.00  0.00    +0.000 NA
ATOM     22  C   UNL     1      50.270  10.088  11.360  0.00  0.00    +0.000 A 
ATOM     23  N   UNL     1      48.952   9.837  11.369  0.00  0.00    +0.000 NA
ATOM     24  C   UNL     1      48.556   8.724  12.017  0.00  0.00    +0.000 A 
ATOM     25  C   UNL     1      47.206   8.407  12.097  0.00  0.00    +0.000 A 
ENDBRANCH  15  16
ENDBRANCH   3  15
TORSDOF 6
ENDMDL
MODEL 8
REMARK VINA RESULT:    -6.088      4.747      7.475
REMARK INTER + INTRA:          -7.836
REMARK INTER:                  -7.253
REMARK INTRA:                  -0.583
REMARK UNBOUND:                -0.146
REMARK  Name = 
REMARK  6 active torsions:
REMARK  status: ('A' for Active; 'I' for Inactive)
REMARK    1  A    between atoms: N_1  and  C_2
REMARK    2  A    between atoms: C_2  and  C_3
REMARK    3  A    between atoms: N_5  and  C_6
REMARK    4  A    between atoms: C_6  and  C_7
REMARK    5  A    between atoms: C_18  and  O_19
REMARK    6  A    between atoms: C_20  and  O_21
REMARK                            x       y       z     vdW  Elec       q    Type
REMARK                         _______ _______ _______ _____ _____    ______ ____
ROOT
ATOM      1  C   UNL     1      44.604   6.702  11.256  0.00  0.00    +0.000 C 
ATOM      2  C   UNL     1      46.081   6.396  11.558  0.00  0.00    +0.000 C 
ATOM      3  N   UNL     1      46.546   6.979  12.836  0.00  0.00    +0.000 NA
ATOM      4  C   UNL     1      46.379   8.448  12.819  0.00  0.00    +0.000 C 
ATOM      5  C   UNL     1      44.939   8.892  12.506  0.00  0.00    +0.000 C 
ATOM      6  C   UNL     1      44.435   8.226  11.213  0.00  0.00    +0.000 C 
ENDROOT
BRANCH   5   7
ATOM      7  O   UNL     1      44.877  10.318  12.379  0.00  0.00    +0.000 OA
ATOM      8  H   UNL     1      45.267  10.568  11.522  0.00  0.00    +0.000 HD
ENDBRANCH   5   7
BRANCH   6   9
ATOM      9  O   UNL     1      43.083   8.583  10.925  0.00  0.00    +0.000 OA
ATOM     10  H   UNL     1      43.076   9.160  10.140  0.00  0.00    +0.000 HD
ENDBRANCH   6   9
BRANCH   1  11
ATOM     11  C   UNL     1      43.626   6.024  12.236  0.00  0.00    +0.000 C 
BRANCH  11  12
ATOM     12  N   UNL     1      42.247   6.034  11.742  0.00  0.00    +0.000 NA
ATOM     13  H   UNL     1      42.185   6.655  10.935  0.00  0.00    +0.000 HD
ATOM     14  H   UNL     1      41.638   6.449  12.449  0.00  0.00    +0.000 HD
ENDBRANCH  11  12
ENDBRANCH   1  11
BRANCH   3  15
ATOM     15  C   UNL     1      47.959   6.652  13.123  0.00  0.00    +0.000 C 
BRANCH  15  16
ATOM     16  C   UNL     1      48.183   6.073  14.496  0.00  0.00    +0.000 A 
ATOM     17  C   UNL     1      49.184   6.568  15.321  0.00  0.00    +0.000 A 
ATOM     18  N   UNL     1      49.513   6.032  16.513  0.00  0.00    +0.000 NA
ATOM     19  C   UNL     1      48.792   4.965  16.927  0.00  0.00    +0.000 A 
ATOM     20  C   UNL     1      49.060   4.312  18.110  0.00  0.00    +0.000 A 
ATOM     21  N   UNL     1      48.361   3.266  18.605  0.00  0.00    +0.000 NA
ATOM     22  C   UNL     1      47.337   2.859  17.846  0.00  0.00    +0.000 A 
ATOM     23  N   UNL     1      46.986   3.375  16.659  0.00  0.00    +0.000 NA
ATOM     24  C   UNL     1      47.722   4.412  16.212  0.00  0.00    +0.000 A 
ATOM     25  C   UNL     1      47.443   4.985  14.978  0.00  0.00    +0.000 A 
ENDBRANCH  15  16
ENDBRANCH   3  15
TORSDOF 6
ENDMDL
MODEL 9
REMARK VINA RESULT:    -6.023      3.906      7.442
REMARK INTER + INTRA:          -7.754
REMARK INTER:                  -7.181
REMARK INTRA:                  -0.573
REMARK UNBOUND:                -0.146
REMARK  Name = 
REMARK  6 active torsions:
REMARK  status: ('A' for Active; 'I' for Inactive)
REMARK    1  A    between atoms: N_1  and  C_2
REMARK    2  A    between atoms: C_2  and  C_3
REMARK    3  A    between atoms: N_5  and  C_6
REMARK    4  A    between atoms: C_6  and  C_7
REMARK    5  A    between atoms: C_18  and  O_19
REMARK    6  A    between atoms: C_20  and  O_21
REMARK                            x       y       z     vdW  Elec       q    Type
REMARK                         _______ _______ _______ _____ _____    ______ ____
ROOT
ATOM      1  C   UNL     1      44.818   4.059  11.343  0.00  0.00    +0.000 C 
ATOM      2  C   UNL     1      46.092   4.791  11.798  0.00  0.00    +0.000 C 
ATOM      3  N   UNL     1      45.824   5.875  12.768  0.00  0.00    +0.000 NA
ATOM      4  C   UNL     1      44.910   6.875  12.178  0.00  0.00    +0.000 C 
ATOM      5  C   UNL     1      43.595   6.266  11.662  0.00  0.00    +0.000 C 
ATOM      6  C   UNL     1      43.879   5.092  10.708  0.00  0.00    +0.000 C 
ENDROOT
BRANCH   5   7
ATOM      7  O   UNL     1      42.816   7.264  10.991  0.00  0.00    +0.000 OA
ATOM      8  H   UNL     1      42.429   6.867  10.190  0.00  0.00    +0.000 HD
ENDBRANCH   5   7
BRANCH   6   9
ATOM      9  O   UNL     1      42.674   4.476  10.252  0.00  0.00    +0.000 OA
ATOM     10  H   UNL     1      42.049   4.429  10.998  0.00  0.00    +0.000 HD
ENDBRANCH   6   9
BRANCH   1  11
ATOM     11  C   UNL     1      44.139   3.254  12.471  0.00  0.00    +0.000 C 
BRANCH  11  12
ATOM     12  N   UNL     1      43.347   2.134  11.956  0.00  0.00    +0.000 NA
ATOM     13  H   UNL     1      42.507   2.498  11.506  0.00  0.00    +0.000 HD
ATOM     14  H   UNL     1      43.013   1.570  12.738  0.00  0.00    +0.000 HD
ENDBRANCH  11  12
ENDBRANCH   1  11
BRANCH   3  15
ATOM     15  C   UNL     1      47.063   6.550  13.214  0.00  0.00    +0.000 C 
BRANCH  15  16
ATOM     16  C   UNL     1      47.618   6.008  14.507  0.00  0.00    +0.000 A 
ATOM     17  C   UNL     1      48.733   6.587  15.098  0.00  0.00    +0.000 A 
ATOM     18  N   UNL     1      49.349   6.094  16.190  0.00  0.00    +0.000 NA
ATOM     19  C   UNL     1      48.816   4.982  16.747  0.00  0.00    +0.000 A 
ATOM     20  C   UNL     1      49.380   4.368  17.844  0.00  0.00    +0.000 A 
ATOM     21  N   UNL     1      48.883   3.280  18.476  0.00  0.00    +0.000 NA
ATOM     22  C   UNL     1      47.755   2.788  17.953  0.00  0.00    +0.000 A 
ATOM     23  N   UNL     1      47.119   3.260  16.870  0.00  0.00    +0.000 NA
ATOM     24  C   UNL     1      47.663   4.341  16.278  0.00  0.00    +0.000 A 
ATOM     25  C   UNL     1      47.083   4.875  15.133  0.00  0.00    +0.000 A 
ENDBRANCH  15  16
ENDBRANCH   3  15
TORSDOF 6
ENDMDL
