MODEL 1
REMARK VINA RESULT:    -7.432      0.000      0.000
REMARK INTER + INTRA:         -10.904
REMARK INTER:                 -10.038
REMARK INTRA:                  -0.866
REMARK UNBOUND:                -0.866
REMARK  Name = 
REMARK  7 active torsions:
REMARK  status: ('A' for Active; 'I' for Inactive)
REMARK    1  A    between atoms: C_1  and  C_2
REMARK    2  A    between atoms: C_2  and  N_3
REMARK    3  A    between atoms: C_2  and  C_16
REMARK    4  A    between atoms: C_4  and  C_6
REMARK    5  A    between atoms: C_19  and  C_20
REMARK    6  A    between atoms: C_20  and  N_21
REMARK    7  A    between atoms: C_22  and  C_24
REMARK                            x       y       z     vdW  Elec       q    Type
REMARK                         _______ _______ _______ _____ _____    ______ ____
ROOT
ATOM      1  C   UNL     1      47.592   8.585  12.087  0.00  0.00    +0.000 C 
ATOM      2  C   UNL     1      46.551   7.815  12.909  0.00  0.00    +0.000 C 
ENDROOT
BRANCH   2   3
ATOM      3  C   UNL     1      45.903   6.688  12.115  0.00  0.00    +0.000 A 
ATOM      4  C   UNL     1      45.012   5.807  12.749  0.00  0.00    +0.000 A 
ATOM      5  C   UNL     1      44.410   4.760  12.039  0.00  0.00    +0.000 A 
ATOM      6  C   UNL     1      44.698   4.558  10.683  0.00  0.00    +0.000 A 
ATOM      7  C   UNL     1      45.598   5.424  10.051  0.00  0.00    +0.000 A 
ATOM      8  C   UNL     1      46.206   6.462  10.763  0.00  0.00    +0.000 A 
BRANCH   6   9
ATOM      9  C   UNL     1      44.059   3.436   9.912  0.00  0.00    +0.000 C 
BRANCH   9  10
ATOM     10  N   UNL     1      44.537   3.369   8.551  0.00  0.00    +0.000 N 
ATOM     11  C   UNL     1      45.331   2.309   8.153  0.00  0.00    +0.000 C 
ATOM     12  O   UNL     1      45.625   1.385   8.908  0.00  0.00    +0.000 OA
ATOM     13  H   UNL     1      44.482   4.194   7.966  0.00  0.00    +0.000 HD
BRANCH  11  14
ATOM     14  C   UNL     1      45.799   2.403   6.685  0.00  0.00    +0.000 C 
ATOM     15  C   UNL     1      46.533   3.693   6.365  0.00  0.00    +0.000 C 
ATOM     16  C   UNL     1      47.941   3.431   6.869  0.00  0.00    +0.000 C 
ATOM     17  C   UNL     1      48.120   1.925   6.735  0.00  0.00    +0.000 C 
ATOM     18  N   UNL     1      46.808   1.360   6.395  0.00  0.00    +0.000 NA
ATOM     19  H   UNL     1      46.633   0.530   6.960  0.00  0.00    +0.000 HD
ENDBRANCH  11  14
ENDBRANCH   9  10
ENDBRANCH   6   9
ENDBRANCH   2   3
BRANCH   2  20
ATOM     20  N   UNL     1      47.104   7.273  14.137  0.00  0.00    +0.000 N 
ATOM     21  C   UNL     1      48.267   6.551  14.205  0.00  0.00    +0.000 C 
ATOM     22  O   UNL     1      48.926   6.266  13.213  0.00  0.00    +0.000 OA
ATOM     23  H   UNL     1      46.560   7.423  14.980  0.00  0.00    +0.000 HD
BRANCH  21  24
ATOM     24  C   UNL     1      48.724   6.191  15.556  0.00  0.00    +0.000 A 
ATOM     25  C   UNL     1      49.688   6.968  16.186  0.00  0.00    +0.000 A 
ATOM     26  S   UNL     1      50.067   6.442  17.764  0.00  0.00    +0.000 S 
ATOM     27  C   UNL     1      49.002   5.122  17.639  0.00  0.00    +0.000 A 
ATOM     28  N   UNL     1      48.872   4.233  18.664  0.00  0.00    +0.000 NA
ATOM     29  C   UNL     1      48.062   3.257  18.421  0.00  0.00    +0.000 A 
ATOM     30  N   UNL     1      47.366   3.094  17.249  0.00  0.00    +0.000 N 
ATOM     31  C   UNL     1      47.427   3.994  16.214  0.00  0.00    +0.000 A 
ATOM     32  O   UNL     1      46.724   3.860  15.218  0.00  0.00    +0.000 OA
ATOM     33  C   UNL     1      48.345   5.096  16.421  0.00  0.00    +0.000 A 
ATOM     34  H   UNL     1      46.733   2.317  17.127  0.00  0.00    +0.000 HD
ENDBRANCH  21  24
ENDBRANCH   2  20
TORSDOF 6
ENDMDL
MODEL 2
REMARK VINA RESULT:    -7.392      2.841      3.756
REMARK INTER + INTRA:         -10.850
REMARK INTER:                  -9.190
REMARK INTRA:                  -1.660
REMARK UNBOUND:                -0.866
REMARK  Name = 
REMARK  7 active torsions:
REMARK  status: ('A' for Active; 'I' for Inactive)
REMARK    1  A    between atoms: C_1  and  C_2
REMARK    2  A    between atoms: C_2  and  N_3
REMARK    3  A    between atoms: C_2  and  C_16
REMARK    4  A    between atoms: C_4  and  C_6
REMARK    5  A    between atoms: C_19  and  C_20
REMARK    6  A    between atoms: C_20  and  N_21
REMARK    7  A    between atoms: C_22  and  C_24
REMARK                            x       y       z     vdW  Elec       q    Type
REMARK                         _______ _______ _______ _____ _____    ______ ____
ROOT
ATOM      1  C   UNL     1      50.889   8.267  13.366  0.00  0.00    +0.000 C 
ATOM      2  C   UNL     1      49.628   8.349  14.236  0.00  0.00    +0.000 C 
ENDROOT
BRANCH   2   3
ATOM      3  C   UNL     1      48.352   8.152  13.426  0.00  0.00    +0.000 A 
ATOM      4  C   UNL     1      47.251   8.996  13.639  0.00  0.00    +0.000 A 
ATOM      5  C   UNL     1      46.066   8.829  12.910  0.00  0.00    +0.000 A 
ATOM      6  C   UNL     1      45.948   7.803  11.963  0.00  0.00    +0.000 A 
ATOM      7  C   UNL     1      47.038   6.950  11.759  0.00  0.00    +0.000 A 
ATOM      8  C   UNL     1      48.216   7.111  12.494  0.00  0.00    +0.000 A 
BRANCH   6   9
ATOM      9  C   UNL     1      44.681   7.614  11.177  0.00  0.00    +0.000 C 
BRANCH   9  10
ATOM     10  N   UNL     1      44.535   6.260  10.696  0.00  0.00    +0.000 N 
ATOM     11  C   UNL     1      43.417   5.524  11.042  0.00  0.00    +0.000 C 
ATOM     12  O   UNL     1      42.506   5.989  11.722  0.00  0.00    +0.000 OA
ATOM     13  H   UNL     1      45.340   5.785  10.305  0.00  0.00    +0.000 HD
BRANCH  11  14
ATOM     14  C   UNL     1      43.429   4.082  10.489  0.00  0.00    +0.000 C 
ATOM     15  C   UNL     1      44.822   3.486  10.385  0.00  0.00    +0.000 C 
ATOM     16  C   UNL     1      45.111   3.019  11.800  0.00  0.00    +0.000 C 
ATOM     17  C   UNL     1      43.744   2.688  12.380  0.00  0.00    +0.000 C 
ATOM     18  N   UNL     1      42.738   3.164  11.421  0.00  0.00    +0.000 NA
ATOM     19  H   UNL     1      41.995   3.655  11.916  0.00  0.00    +0.000 HD
ENDBRANCH  11  14
ENDBRANCH   9  10
ENDBRANCH   6   9
ENDBRANCH   2   3
BRANCH   2  20
ATOM     20  N   UNL     1      49.645   7.396  15.331  0.00  0.00    +0.000 N 
ATOM     21  C   UNL     1      49.152   7.654  16.584  0.00  0.00    +0.000 C 
ATOM     22  O   UNL     1      48.684   8.742  16.898  0.00  0.00    +0.000 OA
ATOM     23  H   UNL     1      50.084   6.501  15.142  0.00  0.00    +0.000 HD
BRANCH  21  24
ATOM     24  C   UNL     1      49.151   6.521  17.522  0.00  0.00    +0.000 A 
ATOM     25  C   UNL     1      49.778   6.650  18.755  0.00  0.00    +0.000 A 
ATOM     26  S   UNL     1      49.641   5.263  19.740  0.00  0.00    +0.000 S 
ATOM     27  C   UNL     1      48.792   4.421  18.530  0.00  0.00    +0.000 A 
ATOM     28  N   UNL     1      48.395   3.132  18.727  0.00  0.00    +0.000 NA
ATOM     29  C   UNL     1      47.798   2.600  17.714  0.00  0.00    +0.000 A 
ATOM     30  N   UNL     1      47.556   3.241  16.524  0.00  0.00    +0.000 N 
ATOM     31  C   UNL     1      47.891   4.554  16.304  0.00  0.00    +0.000 A 
ATOM     32  O   UNL     1      47.580   5.120  15.261  0.00  0.00    +0.000 OA
ATOM     33  C   UNL     1      48.592   5.194  17.400  0.00  0.00    +0.000 A 
ATOM     34  H   UNL     1      47.067   2.774  15.775  0.00  0.00    +0.000 HD
ENDBRANCH  21  24
ENDBRANCH   2  20
TORSDOF 6
ENDMDL
MODEL 3
REMARK VINA RESULT:    -7.325      2.862      4.182
REMARK INTER + INTRA:         -10.760
REMARK INTER:                  -9.570
REMARK INTRA:                  -1.189
REMARK UNBOUND:                -0.866
REMARK  Name = 
REMARK  7 active torsions:
REMARK  status: ('A' for Active; 'I' for Inactive)
REMARK    1  A    between atoms: C_1  and  C_2
REMARK    2  A    between atoms: C_2  and  N_3
REMARK    3  A    between atoms: C_2  and  C_16
REMARK    4  A    between atoms: C_4  and  C_6
REMARK    5  A    between atoms: C_19  and  C_20
REMARK    6  A    between atoms: C_20  and  N_21
REMARK    7  A    between atoms: C_22  and  C_24
REMARK                            x       y       z     vdW  Elec       q    Type
REMARK                         _______ _______ _______ _____ _____    ______ ____
ROOT
ATOM      1  C   UNL     1      47.537   3.264  16.054  0.00  0.00    +0.000 C 
ATOM      2  C   UNL     1      47.958   4.687  15.664  0.00  0.00    +0.000 C 
ENDROOT
BRANCH   2   3
ATOM      3  C   UNL     1      47.277   5.163  14.386  0.00  0.00    +0.000 A 
ATOM      4  C   UNL     1      46.185   4.449  13.867  0.00  0.00    +0.000 A 
ATOM      5  C   UNL     1      45.549   4.866  12.691  0.00  0.00    +0.000 A 
ATOM      6  C   UNL     1      46.000   5.995  11.995  0.00  0.00    +0.000 A 
ATOM      7  C   UNL     1      47.099   6.699  12.500  0.00  0.00    +0.000 A 
ATOM      8  C   UNL     1      47.740   6.277  13.668  0.00  0.00    +0.000 A 
BRANCH   6   9
ATOM      9  C   UNL     1      45.326   6.449  10.731  0.00  0.00    +0.000 C 
BRANCH   9  10
ATOM     10  N   UNL     1      44.802   5.342   9.965  0.00  0.00    +0.000 N 
ATOM     11  C   UNL     1      45.481   4.898   8.844  0.00  0.00    +0.000 C 
ATOM     12  O   UNL     1      46.548   5.388   8.483  0.00  0.00    +0.000 OA
ATOM     13  H   UNL     1      43.844   5.048  10.113  0.00  0.00    +0.000 HD
BRANCH  11  14
ATOM     14  C   UNL     1      44.772   3.741   8.108  0.00  0.00    +0.000 C 
ATOM     15  C   UNL     1      45.581   3.170   6.957  0.00  0.00    +0.000 C 
ATOM     16  C   UNL     1      46.554   2.229   7.643  0.00  0.00    +0.000 C 
ATOM     17  C   UNL     1      45.820   1.765   8.893  0.00  0.00    +0.000 C 
ATOM     18  N   UNL     1      44.604   2.580   9.011  0.00  0.00    +0.000 NA
ATOM     19  H   UNL     1      44.491   2.893   9.974  0.00  0.00    +0.000 HD
ENDBRANCH  11  14
ENDBRANCH   9  10
ENDBRANCH   6   9
ENDBRANCH   2   3
BRANCH   2  20
ATOM     20  N   UNL     1      47.707   5.649  16.721  0.00  0.00    +0.000 N 
ATOM     21  C   UNL     1      48.594   5.938  17.726  0.00  0.00    +0.000 C 
ATOM     22  O   UNL     1      49.672   5.368  17.839  0.00  0.00    +0.000 OA
ATOM     23  H   UNL     1      46.799   6.101  16.713  0.00  0.00    +0.000 HD
BRANCH  21  24
ATOM     24  C   UNL     1      48.207   7.029  18.634  0.00  0.00    +0.000 A 
ATOM     25  C   UNL     1      47.966   6.755  19.974  0.00  0.00    +0.000 A 
ATOM     26  S   UNL     1      47.577   8.137  20.895  0.00  0.00    +0.000 S 
ATOM     27  C   UNL     1      47.658   9.141  19.525  0.00  0.00    +0.000 A 
ATOM     28  N   UNL     1      47.393  10.475  19.622  0.00  0.00    +0.000 NA
ATOM     29  C   UNL     1      47.450  11.110  18.499  0.00  0.00    +0.000 A 
ATOM     30  N   UNL     1      47.754  10.535  17.290  0.00  0.00    +0.000 N 
ATOM     31  C   UNL     1      48.078   9.208  17.158  0.00  0.00    +0.000 A 
ATOM     32  O   UNL     1      48.430   8.747  16.076  0.00  0.00    +0.000 OA
ATOM     33  C   UNL     1      48.002   8.438  18.384  0.00  0.00    +0.000 A 
ATOM     34  H   UNL     1      47.799  11.091  16.449  0.00  0.00    +0.000 HD
ENDBRANCH  21  24
ENDBRANCH   2  20
TORSDOF 6
ENDMDL
MODEL 4
REMARK VINA RESULT:    -7.083      3.386      5.917
REMARK INTER + INTRA:         -10.433
REMARK INTER:                  -9.309
REMARK INTRA:                  -1.124
REMARK UNBOUND:                -0.866
REMARK  Name = 
REMARK  7 active torsions:
REMARK  status: ('A' for Active; 'I' for Inactive)
REMARK    1  A    between atoms: C_1  and  C_2
REMARK    2  A    between atoms: C_2  and  N_3
REMARK    3  A    between atoms: C_2  and  C_16
REMARK    4  A    between atoms: C_4  and  C_6
REMARK    5  A    between atoms: C_19  and  C_20
REMARK    6  A    between atoms: C_20  and  N_21
REMARK    7  A    between atoms: C_22  and  C_24
REMARK                            x       y       z     vdW  Elec       q    Type
REMARK                         _______ _______ _______ _____ _____    ______ ____
ROOT
ATOM      1  C   UNL     1      47.650   4.975  19.004  0.00  0.00    +0.000 C 
ATOM      2  C   UNL     1      48.097   4.066  17.852  0.00  0.00    +0.000 C 
ENDROOT
BRANCH   2   3
ATOM      3  C   UNL     1      47.959   4.742  16.493  0.00  0.00    +0.000 A 
ATOM      4  C   UNL     1      48.628   5.951  16.241  0.00  0.00    +0.000 A 
ATOM      5  C   UNL     1      48.510   6.592  15.001  0.00  0.00    +0.000 A 
ATOM      6  C   UNL     1      47.705   6.051  13.990  0.00  0.00    +0.000 A 
ATOM      7  C   UNL     1      47.024   4.855  14.243  0.00  0.00    +0.000 A 
ATOM      8  C   UNL     1      47.135   4.220  15.483  0.00  0.00    +0.000 A 
BRANCH   6   9
ATOM      9  C   UNL     1      47.570   6.732  12.657  0.00  0.00    +0.000 C 
BRANCH   9  10
ATOM     10  N   UNL     1      46.703   6.005  11.759  0.00  0.00    +0.000 N 
ATOM     11  C   UNL     1      45.407   6.441  11.551  0.00  0.00    +0.000 C 
ATOM     12  O   UNL     1      44.961   7.458  12.076  0.00  0.00    +0.000 OA
ATOM     13  H   UNL     1      46.965   5.071  11.468  0.00  0.00    +0.000 HD
BRANCH  11  14
ATOM     14  C   UNL     1      44.594   5.534  10.602  0.00  0.00    +0.000 C 
ATOM     15  C   UNL     1      44.602   4.071  11.009  0.00  0.00    +0.000 C 
ATOM     16  C   UNL     1      43.543   4.002  12.094  0.00  0.00    +0.000 C 
ATOM     17  C   UNL     1      42.558   5.105  11.737  0.00  0.00    +0.000 C 
ATOM     18  N   UNL     1      43.158   5.890  10.651  0.00  0.00    +0.000 NA
ATOM     19  H   UNL     1      43.045   6.885  10.840  0.00  0.00    +0.000 HD
ENDBRANCH  11  14
ENDBRANCH   9  10
ENDBRANCH   6   9
ENDBRANCH   2   3
BRANCH   2  20
ATOM     20  N   UNL     1      49.462   3.598  18.011  0.00  0.00    +0.000 N 
ATOM     21  C   UNL     1      50.012   2.566  17.295  0.00  0.00    +0.000 C 
ATOM     22  O   UNL     1      49.372   1.918  16.475  0.00  0.00    +0.000 OA
ATOM     23  H   UNL     1      50.015   4.058  18.727  0.00  0.00    +0.000 HD
BRANCH  21  24
ATOM     24  C   UNL     1      51.445   2.320  17.515  0.00  0.00    +0.000 A 
ATOM     25  C   UNL     1      51.910   1.016  17.619  0.00  0.00    +0.000 A 
ATOM     26  S   UNL     1      53.600   0.906  17.822  0.00  0.00    +0.000 S 
ATOM     27  C   UNL     1      53.763   2.599  17.839  0.00  0.00    +0.000 A 
ATOM     28  N   UNL     1      54.984   3.180  18.015  0.00  0.00    +0.000 NA
ATOM     29  C   UNL     1      54.958   4.470  18.049  0.00  0.00    +0.000 A 
ATOM     30  N   UNL     1      53.824   5.232  17.916  0.00  0.00    +0.000 N 
ATOM     31  C   UNL     1      52.585   4.690  17.684  0.00  0.00    +0.000 A 
ATOM     32  O   UNL     1      51.608   5.406  17.483  0.00  0.00    +0.000 OA
ATOM     33  C   UNL     1      52.549   3.241  17.666  0.00  0.00    +0.000 A 
ATOM     34  H   UNL     1      53.873   6.241  17.933  0.00  0.00    +0.000 HD
ENDBRANCH  21  24
ENDBRANCH   2  20
TORSDOF 6
ENDMDL
MODEL 5
REMARK VINA RESULT:    -6.862      5.024      7.526
REMARK INTER + INTRA:         -10.134
REMARK INTER:                  -8.798
REMARK INTRA:                  -1.336
REMARK UNBOUND:                -0.866
REMARK  Name = 
REMARK  7 active torsions:
REMARK  status: ('A' for Active; 'I' for Inactive)
REMARK    1  A    between atoms: C_1  and  C_2
REMARK    2  A    between atoms: C_2  and  N_3
REMARK    3  A    between atoms: C_2  and  C_16
REMARK    4  A    between atoms: C_4  and  C_6
REMARK    5  A    between atoms: C_19  and  C_20
REMARK    6  A    between atoms: C_20  and  N_21
REMARK    7  A    between atoms: C_22  and  C_24
REMARK                            x       y       z     vdW  Elec       q    Type
REMARK                         _______ _______ _______ _____ _____    ______ ____
ROOT
ATOM      1  C   UNL     1      49.914  10.352  11.352  0.00  0.00    +0.000 C 
ATOM      2  C   UNL     1      50.490   8.983  11.734  0.00  0.00    +0.000 C 
ENDROOT
BRANCH   2   3
ATOM      3  C   UNL     1      49.420   8.025  12.244  0.00  0.00    +0.000 A 
ATOM      4  C   UNL     1      49.503   7.514  13.549  0.00  0.00    +0.000 A 
ATOM      5  C   UNL     1      48.533   6.628  14.037  0.00  0.00    +0.000 A 
ATOM      6  C   UNL     1      47.468   6.217  13.225  0.00  0.00    +0.000 A 
ATOM      7  C   UNL     1      47.390   6.712  11.918  0.00  0.00    +0.000 A 
ATOM      8  C   UNL     1      48.363   7.588  11.430  0.00  0.00    +0.000 A 
BRANCH   6   9
ATOM      9  C   UNL     1      46.424   5.265  13.737  0.00  0.00    +0.000 C 
BRANCH   9  10
ATOM     10  N   UNL     1      45.353   5.068  12.788  0.00  0.00    +0.000 N 
ATOM     11  C   UNL     1      45.021   3.789  12.380  0.00  0.00    +0.000 C 
ATOM     12  O   UNL     1      45.581   2.790  12.824  0.00  0.00    +0.000 OA
ATOM     13  H   UNL     1      45.007   5.861  12.261  0.00  0.00    +0.000 HD
BRANCH  11  14
ATOM     14  C   UNL     1      43.889   3.747  11.331  0.00  0.00    +0.000 C 
ATOM     15  C   UNL     1      44.081   4.737  10.195  0.00  0.00    +0.000 C 
ATOM     16  C   UNL     1      45.056   4.029   9.272  0.00  0.00    +0.000 C 
ATOM     17  C   UNL     1      44.785   2.548   9.492  0.00  0.00    +0.000 C 
ATOM     18  N   UNL     1      43.874   2.439  10.639  0.00  0.00    +0.000 NA
ATOM     19  H   UNL     1      44.194   1.702  11.266  0.00  0.00    +0.000 HD
ENDBRANCH  11  14
ENDBRANCH   9  10
ENDBRANCH   6   9
ENDBRANCH   2   3
BRANCH   2  20
ATOM     20  N   UNL     1      51.203   8.354  10.637  0.00  0.00    +0.000 N 
ATOM     21  C   UNL     1      52.491   7.892  10.719  0.00  0.00    +0.000 C 
ATOM     22  O   UNL     1      53.171   8.009  11.732  0.00  0.00    +0.000 OA
ATOM     23  H   UNL     1      50.707   8.294   9.754  0.00  0.00    +0.000 HD
BRANCH  21  24
ATOM     24  C   UNL     1      52.997   7.178   9.537  0.00  0.00    +0.000 A 
ATOM     25  C   UNL     1      53.424   5.863   9.659  0.00  0.00    +0.000 A 
ATOM     26  S   UNL     1      53.932   5.168   8.186  0.00  0.00    +0.000 S 
ATOM     27  C   UNL     1      53.656   6.620   7.343  0.00  0.00    +0.000 A 
ATOM     28  N   UNL     1      53.926   6.714   6.011  0.00  0.00    +0.000 NA
ATOM     29  C   UNL     1      53.710   7.883   5.507  0.00  0.00    +0.000 A 
ATOM     30  N   UNL     1      53.243   8.964   6.212  0.00  0.00    +0.000 N 
ATOM     31  C   UNL     1      52.908   8.897   7.542  0.00  0.00    +0.000 A 
ATOM     32  O   UNL     1      52.411   9.860   8.118  0.00  0.00    +0.000 OA
ATOM     33  C   UNL     1      53.159   7.614   8.168  0.00  0.00    +0.000 A 
ATOM     34  H   UNL     1      53.077   9.848   5.755  0.00  0.00    +0.000 HD
ENDBRANCH  21  24
ENDBRANCH   2  20
TORSDOF 6
ENDMDL
MODEL 6
REMARK VINA RESULT:    -6.843      3.073      4.249
REMARK INTER + INTRA:         -10.109
REMARK INTER:                  -8.755
REMARK INTRA:                  -1.354
REMARK UNBOUND:                -0.866
REMARK  Name = 
REMARK  7 active torsions:
REMARK  status: ('A' for Active; 'I' for Inactive)
REMARK    1  A    between atoms: C_1  and  C_2
REMARK    2  A    between atoms: C_2  and  N_3
REMARK    3  A    between atoms: C_2  and  C_16
REMARK    4  A    between atoms: C_4  and  C_6
REMARK    5  A    between atoms: C_19  and  C_20
REMARK    6  A    between atoms: C_20  and  N_21
REMARK    7  A    between atoms: C_22  and  C_24
REMARK                            x       y       z     vdW  Elec       q    Type
REMARK                         _______ _______ _______ _____ _____    ______ ____
ROOT
ATOM      1  C   UNL     1      51.313   8.326  11.171  0.00  0.00    +0.000 C 
ATOM      2  C   UNL     1      50.537   8.585  12.469  0.00  0.00    +0.000 C 
ENDROOT
BRANCH   2   3
ATOM      3  C   UNL     1      49.030   8.466  12.276  0.00  0.00    +0.000 A 
ATOM      4  C   UNL     1      48.235   9.623  12.247  0.00  0.00    +0.000 A 
ATOM      5  C   UNL     1      46.847   9.536  12.077  0.00  0.00    +0.000 A 
ATOM      6  C   UNL     1      46.219   8.290  11.950  0.00  0.00    +0.000 A 
ATOM      7  C   UNL     1      47.006   7.134  11.995  0.00  0.00    +0.000 A 
ATOM      8  C   UNL     1      48.389   7.221  12.174  0.00  0.00    +0.000 A 
BRANCH   6   9
ATOM      9  C   UNL     1      44.730   8.186  11.770  0.00  0.00    +0.000 C 
BRANCH   9  10
ATOM     10  N   UNL     1      44.354   7.019  11.007  0.00  0.00    +0.000 N 
ATOM     11  C   UNL     1      43.725   5.959  11.635  0.00  0.00    +0.000 C 
ATOM     12  O   UNL     1      43.432   5.980  12.828  0.00  0.00    +0.000 OA
ATOM     13  H   UNL     1      44.747   6.885  10.083  0.00  0.00    +0.000 HD
BRANCH  11  14
ATOM     14  C   UNL     1      43.429   4.770  10.696  0.00  0.00    +0.000 C 
ATOM     15  C   UNL     1      44.680   4.074  10.189  0.00  0.00    +0.000 C 
ATOM     16  C   UNL     1      45.064   3.160  11.339  0.00  0.00    +0.000 C 
ATOM     17  C   UNL     1      43.744   2.831  12.023  0.00  0.00    +0.000 C 
ATOM     18  N   UNL     1      42.719   3.698  11.428  0.00  0.00    +0.000 NA
ATOM     19  H   UNL     1      42.135   4.095  12.162  0.00  0.00    +0.000 HD
ENDBRANCH  11  14
ENDBRANCH   9  10
ENDBRANCH   6   9
ENDBRANCH   2   3
BRANCH   2  20
ATOM     20  N   UNL     1      50.948   7.705  13.547  0.00  0.00    +0.000 N 
ATOM     21  C   UNL     1      51.414   8.139  14.761  0.00  0.00    +0.000 C 
ATOM     22  O   UNL     1      51.562   9.326  15.025  0.00  0.00    +0.000 OA
ATOM     23  H   UNL     1      50.908   6.709  13.355  0.00  0.00    +0.000 HD
BRANCH  21  24
ATOM     24  C   UNL     1      51.665   7.095  15.766  0.00  0.00    +0.000 A 
ATOM     25  C   UNL     1      52.969   6.812  16.152  0.00  0.00    +0.000 A 
ATOM     26  S   UNL     1      53.080   5.612  17.360  0.00  0.00    +0.000 S 
ATOM     27  C   UNL     1      51.395   5.386  17.368  0.00  0.00    +0.000 A 
ATOM     28  N   UNL     1      50.821   4.453  18.179  0.00  0.00    +0.000 NA
ATOM     29  C   UNL     1      49.539   4.357  18.054  0.00  0.00    +0.000 A 
ATOM     30  N   UNL     1      48.779   5.113  17.196  0.00  0.00    +0.000 N 
ATOM     31  C   UNL     1      49.310   6.099  16.402  0.00  0.00    +0.000 A 
ATOM     32  O   UNL     1      48.589   6.813  15.713  0.00  0.00    +0.000 OA
ATOM     33  C   UNL     1      50.752   6.231  16.480  0.00  0.00    +0.000 A 
ATOM     34  H   UNL     1      47.776   5.002  17.159  0.00  0.00    +0.000 HD
ENDBRANCH  21  24
ENDBRANCH   2  20
TORSDOF 6
ENDMDL
MODEL 7
REMARK VINA RESULT:    -6.769      3.293      8.034
REMARK INTER + INTRA:         -10.009
REMARK INTER:                  -9.384
REMARK INTRA:                  -0.625
REMARK UNBOUND:                -0.866
REMARK  Name = 
REMARK  7 active torsions:
REMARK  status: ('A' for Active; 'I' for Inactive)
REMARK    1  A    between atoms: C_1  and  C_2
REMARK    2  A    between atoms: C_2  and  N_3
REMARK    3  A    between atoms: C_2  and  C_16
REMARK    4  A    between atoms: C_4  and  C_6
REMARK    5  A    between atoms: C_19  and  C_20
REMARK    6  A    between atoms: C_20  and  N_21
REMARK    7  A    between atoms: C_22  and  C_24
REMARK                            x       y       z     vdW  Elec       q    Type
REMARK                         _______ _______ _______ _____ _____    ______ ____
ROOT
ATOM      1  C   UNL     1      47.771   9.674  11.831  0.00  0.00    +0.000 C 
ATOM      2  C   UNL     1      48.387   8.321  12.209  0.00  0.00    +0.000 C 
ENDROOT
BRANCH   2   3
ATOM      3  C   UNL     1      48.505   8.140  13.718  0.00  0.00    +0.000 A 
ATOM      4  C   UNL     1      48.878   6.894  14.246  0.00  0.00    +0.000 A 
ATOM      5  C   UNL     1      48.986   6.703  15.629  0.00  0.00    +0.000 A 
ATOM      6  C   UNL     1      48.705   7.748  16.519  0.00  0.00    +0.000 A 
ATOM      7  C   UNL     1      48.317   8.987  15.997  0.00  0.00    +0.000 A 
ATOM      8  C   UNL     1      48.200   9.174  14.617  0.00  0.00    +0.000 A 
BRANCH   6   9
ATOM      9  C   UNL     1      48.815   7.554  18.005  0.00  0.00    +0.000 C 
BRANCH   9  10
ATOM     10  N   UNL     1      49.135   6.189  18.354  0.00  0.00    +0.000 N 
ATOM     11  C   UNL     1      48.122   5.310  18.693  0.00  0.00    +0.000 C 
ATOM     12  O   UNL     1      46.937   5.632  18.676  0.00  0.00    +0.000 OA
ATOM     13  H   UNL     1      50.095   5.945  18.568  0.00  0.00    +0.000 HD
BRANCH  11  14
ATOM     14  C   UNL     1      48.627   3.905  19.084  0.00  0.00    +0.000 C 
ATOM     15  C   UNL     1      48.012   2.789  18.257  0.00  0.00    +0.000 C 
ATOM     16  C   UNL     1      48.834   2.804  16.981  0.00  0.00    +0.000 C 
ATOM     17  C   UNL     1      50.201   3.316  17.412  0.00  0.00    +0.000 C 
ATOM     18  N   UNL     1      50.074   3.777  18.801  0.00  0.00    +0.000 NA
ATOM     19  H   UNL     1      50.537   4.678  18.909  0.00  0.00    +0.000 HD
ENDBRANCH  11  14
ENDBRANCH   9  10
ENDBRANCH   6   9
ENDBRANCH   2   3
BRANCH   2  20
ATOM     20  N   UNL     1      47.652   7.200  11.653  0.00  0.00    +0.000 N 
ATOM     21  C   UNL     1      46.314   6.979  11.855  0.00  0.00    +0.000 C 
ATOM     22  O   UNL     1      45.627   7.702  12.567  0.00  0.00    +0.000 OA
ATOM     23  H   UNL     1      48.191   6.533  11.110  0.00  0.00    +0.000 HD
BRANCH  21  24
ATOM     24  C   UNL     1      45.726   5.856  11.109  0.00  0.00    +0.000 A 
ATOM     25  C   UNL     1      45.911   5.773   9.735  0.00  0.00    +0.000 A 
ATOM     26  S   UNL     1      45.208   4.386   9.033  0.00  0.00    +0.000 S 
ATOM     27  C   UNL     1      44.580   3.879  10.530  0.00  0.00    +0.000 A 
ATOM     28  N   UNL     1      43.829   2.746  10.623  0.00  0.00    +0.000 NA
ATOM     29  C   UNL     1      43.381   2.501  11.809  0.00  0.00    +0.000 A 
ATOM     30  N   UNL     1      43.623   3.283  12.912  0.00  0.00    +0.000 N 
ATOM     31  C   UNL     1      44.417   4.401  12.872  0.00  0.00    +0.000 A 
ATOM     32  O   UNL     1      44.682   5.025  13.895  0.00  0.00    +0.000 OA
ATOM     33  C   UNL     1      44.924   4.741  11.557  0.00  0.00    +0.000 A 
ATOM     34  H   UNL     1      43.258   3.026  13.818  0.00  0.00    +0.000 HD
ENDBRANCH  21  24
ENDBRANCH   2  20
TORSDOF 6
ENDMDL
MODEL 8
REMARK VINA RESULT:    -6.624      3.767      8.618
REMARK INTER + INTRA:          -9.813
REMARK INTER:                  -8.745
REMARK INTRA:                  -1.068
REMARK UNBOUND:                -0.866
REMARK  Name = 
REMARK  7 active torsions:
REMARK  status: ('A' for Active; 'I' for Inactive)
REMARK    1  A    between atoms: C_1  and  C_2
REMARK    2  A    between atoms: C_2  and  N_3
REMARK    3  A    between atoms: C_2  and  C_16
REMARK    4  A    between atoms: C_4  and  C_6
REMARK    5  A    between atoms: C_19  and  C_20
REMARK    6  A    between atoms: C_20  and  N_21
REMARK    7  A    between atoms: C_22  and  C_24
REMARK                            x       y       z     vdW  Elec       q    Type
REMARK                         _______ _______ _______ _____ _____    ______ ____
ROOT
ATOM      1  C   UNL     1      48.499   9.061  16.043  0.00  0.00    +0.000 C 
ATOM      2  C   UNL     1      48.777   7.843  15.153  0.00  0.00    +0.000 C 
ENDROOT
BRANCH   2   3
ATOM      3  C   UNL     1      49.251   6.636  15.954  0.00  0.00    +0.000 A 
ATOM      4  C   UNL     1      48.338   5.631  16.310  0.00  0.00    +0.000 A 
ATOM      5  C   UNL     1      48.750   4.516  17.051  0.00  0.00    +0.000 A 
ATOM      6  C   UNL     1      50.081   4.388  17.470  0.00  0.00    +0.000 A 
ATOM      7  C   UNL     1      50.991   5.396  17.130  0.00  0.00    +0.000 A 
ATOM      8  C   UNL     1      50.576   6.513  16.399  0.00  0.00    +0.000 A 
BRANCH   6   9
ATOM      9  C   UNL     1      50.533   3.197  18.268  0.00  0.00    +0.000 C 
BRANCH   9  10
ATOM     10  N   UNL     1      51.922   3.295  18.653  0.00  0.00    +0.000 N 
ATOM     11  C   UNL     1      52.814   2.311  18.265  0.00  0.00    +0.000 C 
ATOM     12  O   UNL     1      52.481   1.359  17.565  0.00  0.00    +0.000 OA
ATOM     13  H   UNL     1      52.188   3.946  19.381  0.00  0.00    +0.000 HD
BRANCH  11  14
ATOM     14  C   UNL     1      54.248   2.533  18.793  0.00  0.00    +0.000 C 
ATOM     15  C   UNL     1      55.322   1.965  17.882  0.00  0.00    +0.000 C 
ATOM     16  C   UNL     1      55.476   3.031  16.812  0.00  0.00    +0.000 C 
ATOM     17  C   UNL     1      55.114   4.332  17.514  0.00  0.00    +0.000 C 
ATOM     18  N   UNL     1      54.567   3.977  18.831  0.00  0.00    +0.000 NA
ATOM     19  H   UNL     1      53.725   4.522  19.013  0.00  0.00    +0.000 HD
ENDBRANCH  11  14
ENDBRANCH   9  10
ENDBRANCH   6   9
ENDBRANCH   2   3
BRANCH   2  20
ATOM     20  N   UNL     1      47.625   7.461  14.357  0.00  0.00    +0.000 N 
ATOM     21  C   UNL     1      47.698   6.742  13.192  0.00  0.00    +0.000 C 
ATOM     22  O   UNL     1      48.763   6.391  12.699  0.00  0.00    +0.000 OA
ATOM     23  H   UNL     1      46.722   7.786  14.687  0.00  0.00    +0.000 HD
BRANCH  21  24
ATOM     24  C   UNL     1      46.412   6.351  12.595  0.00  0.00    +0.000 A 
ATOM     25  C   UNL     1      45.606   7.316  12.004  0.00  0.00    +0.000 A 
ATOM     26  S   UNL     1      44.177   6.687  11.318  0.00  0.00    +0.000 S 
ATOM     27  C   UNL     1      44.554   5.113  11.837  0.00  0.00    +0.000 A 
ATOM     28  N   UNL     1      43.704   4.076  11.593  0.00  0.00    +0.000 NA
ATOM     29  C   UNL     1      44.093   2.944  12.078  0.00  0.00    +0.000 A 
ATOM     30  N   UNL     1      45.258   2.754  12.780  0.00  0.00    +0.000 N 
ATOM     31  C   UNL     1      46.166   3.759  13.001  0.00  0.00    +0.000 A 
ATOM     32  O   UNL     1      47.237   3.533  13.556  0.00  0.00    +0.000 OA
ATOM     33  C   UNL     1      45.766   5.061  12.503  0.00  0.00    +0.000 A 
ATOM     34  H   UNL     1      45.515   1.839  13.118  0.00  0.00    +0.000 HD
ENDBRANCH  21  24
ENDBRANCH   2  20
TORSDOF 6
ENDMDL
MODEL 9
REMARK VINA RESULT:    -6.499      5.156      6.996
REMARK INTER + INTRA:          -9.645
REMARK INTER:                  -8.588
REMARK INTRA:                  -1.057
REMARK UNBOUND:                -0.866
REMARK  Name = 
REMARK  7 active torsions:
REMARK  status: ('A' for Active; 'I' for Inactive)
REMARK    1  A    between atoms: C_1  and  C_2
REMARK    2  A    between atoms: C_2  and  N_3
REMARK    3  A    between atoms: C_2  and  C_16
REMARK    4  A    between atoms: C_4  and  C_6
REMARK    5  A    between atoms: C_19  and  C_20
REMARK    6  A    between atoms: C_20  and  N_21
REMARK    7  A    between atoms: C_22  and  C_24
REMARK                            x       y       z     vdW  Elec       q    Type
REMARK                         _______ _______ _______ _____ _____    ______ ____
ROOT
ATOM      1  C   UNL     1      50.165  10.091  11.369  0.00  0.00    +0.000 C 
ATOM      2  C   UNL     1      50.604   8.679  11.777  0.00  0.00    +0.000 C 
ENDROOT
BRANCH   2   3
ATOM      3  C   UNL     1      49.439   7.832  12.275  0.00  0.00    +0.000 A 
ATOM      4  C   UNL     1      49.409   7.398  13.610  0.00  0.00    +0.000 A 
ATOM      5  C   UNL     1      48.352   6.613  14.088  0.00  0.00    +0.000 A 
ATOM      6  C   UNL     1      47.307   6.229  13.237  0.00  0.00    +0.000 A 
ATOM      7  C   UNL     1      47.341   6.646  11.902  0.00  0.00    +0.000 A 
ATOM      8  C   UNL     1      48.401   7.420  11.424  0.00  0.00    +0.000 A 
BRANCH   6   9
ATOM      9  C   UNL     1      46.168   5.385  13.738  0.00  0.00    +0.000 C 
BRANCH   9  10
ATOM     10  N   UNL     1      45.158   5.177  12.728  0.00  0.00    +0.000 N 
ATOM     11  C   UNL     1      44.825   3.891  12.342  0.00  0.00    +0.000 C 
ATOM     12  O   UNL     1      45.333   2.897  12.854  0.00  0.00    +0.000 OA
ATOM     13  H   UNL     1      44.865   5.958  12.153  0.00  0.00    +0.000 HD
BRANCH  11  14
ATOM     14  C   UNL     1      43.764   3.836  11.222  0.00  0.00    +0.000 C 
ATOM     15  C   UNL     1      44.062   4.767  10.059  0.00  0.00    +0.000 C 
ATOM     16  C   UNL     1      45.072   3.989   9.235  0.00  0.00    +0.000 C 
ATOM     17  C   UNL     1      44.738   2.528   9.500  0.00  0.00    +0.000 C 
ATOM     18  N   UNL     1      43.750   2.499  10.587  0.00  0.00    +0.000 NA
ATOM     19  H   UNL     1      44.005   1.782  11.265  0.00  0.00    +0.000 HD
ENDBRANCH  11  14
ENDBRANCH   9  10
ENDBRANCH   6   9
ENDBRANCH   2   3
BRANCH   2  20
ATOM     20  N   UNL     1      51.276   7.974  10.701  0.00  0.00    +0.000 N 
ATOM     21  C   UNL     1      52.574   8.203  10.323  0.00  0.00    +0.000 C 
ATOM     22  O   UNL     1      53.271   9.065  10.845  0.00  0.00    +0.000 OA
ATOM     23  H   UNL     1      50.720   7.296  10.191  0.00  0.00    +0.000 HD
BRANCH  21  24
ATOM     24  C   UNL     1      53.113   7.303   9.291  0.00  0.00    +0.000 A 
ATOM     25  C   UNL     1      52.684   7.431   7.977  0.00  0.00    +0.000 A 
ATOM     26  S   UNL     1      53.443   6.345   6.901  0.00  0.00    +0.000 S 
ATOM     27  C   UNL     1      54.328   5.627   8.164  0.00  0.00    +0.000 A 
ATOM     28  N   UNL     1      55.169   4.583   7.919  0.00  0.00    +0.000 NA
ATOM     29  C   UNL     1      55.745   4.107   8.973  0.00  0.00    +0.000 A 
ATOM     30  N   UNL     1      55.560   4.583  10.247  0.00  0.00    +0.000 N 
ATOM     31  C   UNL     1      54.764   5.665  10.529  0.00  0.00    +0.000 A 
ATOM     32  O   UNL     1      54.691   6.117  11.668  0.00  0.00    +0.000 OA
ATOM     33  C   UNL     1      54.068   6.222   9.386  0.00  0.00    +0.000 A 
ATOM     34  H   UNL     1      56.055   4.178  11.028  0.00  0.00    +0.000 HD
ENDBRANCH  21  24
ENDBRANCH   2  20
TORSDOF 6
ENDMDL
