MODEL 1
REMARK VINA RESULT:    -8.384      0.000      0.000
REMARK INTER + INTRA:         -11.281
REMARK INTER:                 -10.835
REMARK INTRA:                  -0.446
REMARK UNBOUND:                -0.446
REMARK  Name = 
REMARK  5 active torsions:
REMARK  status: ('A' for Active; 'I' for Inactive)
REMARK    1  A    between atoms: C_7  and  C_8
REMARK    2  A    between atoms: N_10  and  C_11
REMARK    3  A    between atoms: C_11  and  C_12
REMARK    4  A    between atoms: C_15  and  C_16
REMARK    5  A    between atoms: C_16  and  N_17
REMARK                            x       y       z     vdW  Elec       q    Type
REMARK                         _______ _______ _______ _____ _____    ______ ____
ROOT
ATOM      1  C   UNL     1      47.805   6.768  13.637  0.00  0.00    +0.000 C 
ATOM      2  O   UNL     1      48.446   7.079  12.636  0.00  0.00    +0.000 OA
ATOM      3  N   UNL     1      46.431   6.765  13.647  0.00  0.00    +0.000 N 
ATOM      4  H   UNL     1      45.937   6.446  14.477  0.00  0.00    +0.000 HD
ENDROOT
BRANCH   1  11
ATOM      5  N   UNL     1      48.304   2.988  19.170  0.00  0.00    +0.000 N 
ATOM      6  C   UNL     1      48.331   3.802  18.085  0.00  0.00    +0.000 A 
ATOM      7  N   UNL     1      49.223   4.749  17.999  0.00  0.00    +0.000 NA
ATOM      8  C   UNL     1      49.124   5.491  16.873  0.00  0.00    +0.000 A 
ATOM      9  N   UNL     1      49.959   6.526  16.580  0.00  0.00    +0.000 N 
ATOM     10  C   UNL     1      49.581   7.077  15.384  0.00  0.00    +0.000 A 
ATOM     11  C   UNL     1      48.472   6.394  14.888  0.00  0.00    +0.000 A 
ATOM     12  C   UNL     1      48.214   5.367  15.845  0.00  0.00    +0.000 A 
ATOM     13  C   UNL     1      47.255   4.297  15.953  0.00  0.00    +0.000 A 
ATOM     14  O   UNL     1      46.416   4.041  15.094  0.00  0.00    +0.000 OA
ATOM     15  N   UNL     1      47.373   3.570  17.122  0.00  0.00    +0.000 N 
ATOM     16  H   UNL     1      48.870   3.351  19.931  0.00  0.00    +0.000 HD
ATOM     17  H   UNL     1      47.399   2.660  19.477  0.00  0.00    +0.000 HD
ATOM     18  H   UNL     1      50.727   6.826  17.165  0.00  0.00    +0.000 HD
ATOM     19  H   UNL     1      46.747   2.790  17.219  0.00  0.00    +0.000 HD
ENDBRANCH   1  11
BRANCH   3  20
ATOM     20  C   UNL     1      45.650   7.063  12.471  0.00  0.00    +0.000 C 
BRANCH  20  21
ATOM     21  C   UNL     1      45.407   5.851  11.635  0.00  0.00    +0.000 A 
ATOM     22  C   UNL     1      45.014   4.642  12.174  0.00  0.00    +0.000 A 
ATOM     23  N   UNL     1      44.764   3.536  11.441  0.00  0.00    +0.000 NA
ATOM     24  C   UNL     1      44.921   3.643  10.103  0.00  0.00    +0.000 A 
ATOM     25  N   UNL     1      45.331   4.770   9.484  0.00  0.00    +0.000 NA
ATOM     26  C   UNL     1      45.564   5.844  10.266  0.00  0.00    +0.000 A 
BRANCH  24  27
ATOM     27  C   UNL     1      44.687   2.419   9.263  0.00  0.00    +0.000 C 
BRANCH  27  28
ATOM     28  N   UNL     1      45.757   2.203   8.301  0.00  0.00    +0.000 N 
ATOM     29  C   UNL     1      46.101   3.015   7.251  0.00  0.00    +0.000 A 
ATOM     30  C   UNL     1      47.064   2.341   6.539  0.00  0.00    +0.000 A 
ATOM     31  C   UNL     1      47.216   1.119   7.214  0.00  0.00    +0.000 A 
ATOM     32  N   UNL     1      46.407   1.016   8.272  0.00  0.00    +0.000 NA
ENDBRANCH  27  28
ENDBRANCH  24  27
ENDBRANCH  20  21
ENDBRANCH   3  20
TORSDOF 5
ENDMDL
MODEL 2
REMARK VINA RESULT:    -8.140      3.167      4.092
REMARK INTER + INTRA:         -10.965
REMARK INTER:                 -10.012
REMARK INTRA:                  -0.954
REMARK UNBOUND:                -0.446
REMARK  Name = 
REMARK  5 active torsions:
REMARK  status: ('A' for Active; 'I' for Inactive)
REMARK    1  A    between atoms: C_7  and  C_8
REMARK    2  A    between atoms: N_10  and  C_11
REMARK    3  A    between atoms: C_11  and  C_12
REMARK    4  A    between atoms: C_15  and  C_16
REMARK    5  A    between atoms: C_16  and  N_17
REMARK                            x       y       z     vdW  Elec       q    Type
REMARK                         _______ _______ _______ _____ _____    ______ ____
ROOT
ATOM      1  C   UNL     1      45.529   8.084  12.200  0.00  0.00    +0.000 C 
ATOM      2  O   UNL     1      44.616   8.439  11.458  0.00  0.00    +0.000 OA
ATOM      3  N   UNL     1      45.408   6.997  13.032  0.00  0.00    +0.000 N 
ATOM      4  H   UNL     1      46.206   6.701  13.588  0.00  0.00    +0.000 HD
ENDROOT
BRANCH   1  11
ATOM      5  N   UNL     1      52.168   8.322  13.207  0.00  0.00    +0.000 N 
ATOM      6  C   UNL     1      50.837   8.406  12.954  0.00  0.00    +0.000 A 
ATOM      7  N   UNL     1      50.291   9.561  12.700  0.00  0.00    +0.000 NA
ATOM      8  C   UNL     1      48.958   9.499  12.481  0.00  0.00    +0.000 A 
ATOM      9  N   UNL     1      48.192  10.587  12.192  0.00  0.00    +0.000 N 
ATOM     10  C   UNL     1      46.890  10.187  12.047  0.00  0.00    +0.000 A 
ATOM     11  C   UNL     1      46.800   8.812  12.251  0.00  0.00    +0.000 A 
ATOM     12  C   UNL     1      48.140   8.389  12.502  0.00  0.00    +0.000 A 
ATOM     13  C   UNL     1      48.774   7.121  12.761  0.00  0.00    +0.000 A 
ATOM     14  O   UNL     1      48.178   6.048  12.766  0.00  0.00    +0.000 OA
ATOM     15  N   UNL     1      50.132   7.224  12.996  0.00  0.00    +0.000 N 
ATOM     16  H   UNL     1      52.578   9.233  13.389  0.00  0.00    +0.000 HD
ATOM     17  H   UNL     1      52.468   7.620  13.869  0.00  0.00    +0.000 HD
ATOM     18  H   UNL     1      48.546  11.531  12.107  0.00  0.00    +0.000 HD
ATOM     19  H   UNL     1      50.619   6.357  13.143  0.00  0.00    +0.000 HD
ENDBRANCH   1  11
BRANCH   3  20
ATOM     20  C   UNL     1      44.230   6.163  13.045  0.00  0.00    +0.000 C 
BRANCH  20  21
ATOM     21  C   UNL     1      44.308   5.065  12.038  0.00  0.00    +0.000 A 
ATOM     22  C   UNL     1      43.670   5.129  10.815  0.00  0.00    +0.000 A 
ATOM     23  N   UNL     1      43.743   4.162   9.875  0.00  0.00    +0.000 NA
ATOM     24  C   UNL     1      44.488   3.076  10.175  0.00  0.00    +0.000 A 
ATOM     25  N   UNL     1      45.124   2.905  11.352  0.00  0.00    +0.000 NA
ATOM     26  C   UNL     1      45.018   3.903  12.252  0.00  0.00    +0.000 A 
BRANCH  24  27
ATOM     27  C   UNL     1      44.558   1.966   9.163  0.00  0.00    +0.000 C 
BRANCH  27  28
ATOM     28  N   UNL     1      45.760   2.045   8.348  0.00  0.00    +0.000 N 
ATOM     29  C   UNL     1      46.213   3.132   7.645  0.00  0.00    +0.000 A 
ATOM     30  C   UNL     1      47.294   2.700   6.916  0.00  0.00    +0.000 A 
ATOM     31  C   UNL     1      47.403   1.331   7.217  0.00  0.00    +0.000 A 
ATOM     32  N   UNL     1      46.459   0.920   8.067  0.00  0.00    +0.000 NA
ENDBRANCH  27  28
ENDBRANCH  24  27
ENDBRANCH  20  21
ENDBRANCH   3  20
TORSDOF 5
ENDMDL
MODEL 3
REMARK VINA RESULT:    -8.104      1.344      2.213
REMARK INTER + INTRA:         -10.919
REMARK INTER:                 -10.233
REMARK INTRA:                  -0.686
REMARK UNBOUND:                -0.446
REMARK  Name = 
REMARK  5 active torsions:
REMARK  status: ('A' for Active; 'I' for Inactive)
REMARK    1  A    between atoms: C_7  and  C_8
REMARK    2  A    between atoms: N_10  and  C_11
REMARK    3  A    between atoms: C_11  and  C_12
REMARK    4  A    between atoms: C_15  and  C_16
REMARK    5  A    between atoms: C_16  and  N_17
REMARK                            x       y       z     vdW  Elec       q    Type
REMARK                         _______ _______ _______ _____ _____    ______ ____
ROOT
ATOM      1  C   UNL     1      47.513   5.623  14.437  0.00  0.00    +0.000 C 
ATOM      2  O   UNL     1      48.473   6.202  13.935  0.00  0.00    +0.000 OA
ATOM      3  N   UNL     1      46.235   5.782  13.957  0.00  0.00    +0.000 N 
ATOM      4  H   UNL     1      45.476   5.241  14.363  0.00  0.00    +0.000 HD
ENDROOT
BRANCH   1  11
ATOM      5  N   UNL     1      49.497   4.431  20.745  0.00  0.00    +0.000 N 
ATOM      6  C   UNL     1      49.034   4.545  19.475  0.00  0.00    +0.000 A 
ATOM      7  N   UNL     1      48.564   3.501  18.854  0.00  0.00    +0.000 NA
ATOM      8  C   UNL     1      48.151   3.756  17.591  0.00  0.00    +0.000 A 
ATOM      9  N   UNL     1      47.621   2.810  16.768  0.00  0.00    +0.000 N 
ATOM     10  C   UNL     1      47.325   3.387  15.561  0.00  0.00    +0.000 A 
ATOM     11  C   UNL     1      47.673   4.735  15.593  0.00  0.00    +0.000 A 
ATOM     12  C   UNL     1      48.176   4.954  16.911  0.00  0.00    +0.000 A 
ATOM     13  C   UNL     1      48.677   6.098  17.630  0.00  0.00    +0.000 A 
ATOM     14  O   UNL     1      48.717   7.234  17.165  0.00  0.00    +0.000 OA
ATOM     15  N   UNL     1      49.105   5.798  18.909  0.00  0.00    +0.000 N 
ATOM     16  H   UNL     1      49.631   3.461  21.015  0.00  0.00    +0.000 HD
ATOM     17  H   UNL     1      50.275   5.020  21.007  0.00  0.00    +0.000 HD
ATOM     18  H   UNL     1      47.481   1.841  17.024  0.00  0.00    +0.000 HD
ATOM     19  H   UNL     1      49.427   6.577  19.458  0.00  0.00    +0.000 HD
ENDBRANCH   1  11
BRANCH   3  20
ATOM     20  C   UNL     1      45.942   6.586  12.794  0.00  0.00    +0.000 C 
BRANCH  20  21
ATOM     21  C   UNL     1      45.630   5.751  11.598  0.00  0.00    +0.000 A 
ATOM     22  C   UNL     1      45.986   6.122  10.317  0.00  0.00    +0.000 A 
ATOM     23  N   UNL     1      45.738   5.376   9.219  0.00  0.00    +0.000 NA
ATOM     24  C   UNL     1      45.097   4.202   9.413  0.00  0.00    +0.000 A 
ATOM     25  N   UNL     1      44.681   3.765  10.619  0.00  0.00    +0.000 NA
ATOM     26  C   UNL     1      44.958   4.551  11.680  0.00  0.00    +0.000 A 
BRANCH  24  27
ATOM     27  C   UNL     1      44.774   3.366   8.206  0.00  0.00    +0.000 C 
BRANCH  27  28
ATOM     28  N   UNL     1      45.960   2.740   7.641  0.00  0.00    +0.000 N 
ATOM     29  C   UNL     1      46.709   3.191   6.585  0.00  0.00    +0.000 A 
ATOM     30  C   UNL     1      47.633   2.209   6.318  0.00  0.00    +0.000 A 
ATOM     31  C   UNL     1      47.347   1.190   7.243  0.00  0.00    +0.000 A 
ATOM     32  N   UNL     1      46.315   1.494   8.034  0.00  0.00    +0.000 NA
ENDBRANCH  27  28
ENDBRANCH  24  27
ENDBRANCH  20  21
ENDBRANCH   3  20
TORSDOF 5
ENDMDL
MODEL 4
REMARK VINA RESULT:    -7.710      3.510      8.262
REMARK INTER + INTRA:         -10.411
REMARK INTER:                  -9.667
REMARK INTRA:                  -0.743
REMARK UNBOUND:                -0.446
REMARK  Name = 
REMARK  5 active torsions:
REMARK  status: ('A' for Active; 'I' for Inactive)
REMARK    1  A    between atoms: C_7  and  C_8
REMARK    2  A    between atoms: N_10  and  C_11
REMARK    3  A    between atoms: C_11  and  C_12
REMARK    4  A    between atoms: C_15  and  C_16
REMARK    5  A    between atoms: C_16  and  N_17
REMARK                            x       y       z     vdW  Elec       q    Type
REMARK                         _______ _______ _______ _____ _____    ______ ____
ROOT
ATOM      1  C   UNL     1      43.970   4.124  10.426  0.00  0.00    +0.000 C 
ATOM      2  O   UNL     1      42.903   3.872  10.981  0.00  0.00    +0.000 OA
ATOM      3  N   UNL     1      44.575   5.353  10.538  0.00  0.00    +0.000 N 
ATOM      4  H   UNL     1      45.485   5.504  10.112  0.00  0.00    +0.000 HD
ENDROOT
BRANCH   1  11
ATOM      5  N   UNL     1      48.320   2.446   5.587  0.00  0.00    +0.000 N 
ATOM      6  C   UNL     1      47.433   2.647   6.594  0.00  0.00    +0.000 A 
ATOM      7  N   UNL     1      46.780   1.640   7.101  0.00  0.00    +0.000 NA
ATOM      8  C   UNL     1      45.920   1.988   8.086  0.00  0.00    +0.000 A 
ATOM      9  N   UNL     1      45.144   1.092   8.756  0.00  0.00    +0.000 N 
ATOM     10  C   UNL     1      44.379   1.765   9.672  0.00  0.00    +0.000 A 
ATOM     11  C   UNL     1      44.655   3.129   9.596  0.00  0.00    +0.000 A 
ATOM     12  C   UNL     1      45.664   3.244   8.592  0.00  0.00    +0.000 A 
ATOM     13  C   UNL     1      46.418   4.336   8.031  0.00  0.00    +0.000 A 
ATOM     14  O   UNL     1      46.326   5.499   8.413  0.00  0.00    +0.000 OA
ATOM     15  N   UNL     1      47.273   3.948   7.017  0.00  0.00    +0.000 N 
ATOM     16  H   UNL     1      48.221   1.524   5.172  0.00  0.00    +0.000 HD
ATOM     17  H   UNL     1      48.406   3.178   4.895  0.00  0.00    +0.000 HD
ATOM     18  H   UNL     1      45.143   0.094   8.588  0.00  0.00    +0.000 HD
ATOM     19  H   UNL     1      47.846   4.675   6.624  0.00  0.00    +0.000 HD
ENDBRANCH   1  11
BRANCH   3  20
ATOM     20  C   UNL     1      44.034   6.406  11.364  0.00  0.00    +0.000 C 
BRANCH  20  21
ATOM     21  C   UNL     1      45.106   7.206  12.026  0.00  0.00    +0.000 A 
ATOM     22  C   UNL     1      46.141   6.625  12.731  0.00  0.00    +0.000 A 
ATOM     23  N   UNL     1      47.138   7.321  13.320  0.00  0.00    +0.000 NA
ATOM     24  C   UNL     1      47.093   8.666  13.201  0.00  0.00    +0.000 A 
ATOM     25  N   UNL     1      46.108   9.330  12.560  0.00  0.00    +0.000 NA
ATOM     26  C   UNL     1      45.141   8.583  11.990  0.00  0.00    +0.000 A 
BRANCH  24  27
ATOM     27  C   UNL     1      48.167   9.472  13.877  0.00  0.00    +0.000 C 
BRANCH  27  28
ATOM     28  N   UNL     1      49.467   9.281  13.252  0.00  0.00    +0.000 N 
ATOM     29  C   UNL     1      49.797   9.514  11.941  0.00  0.00    +0.000 A 
ATOM     30  C   UNL     1      51.083   9.057  11.778  0.00  0.00    +0.000 A 
ATOM     31  C   UNL     1      51.439   8.539  13.034  0.00  0.00    +0.000 A 
ATOM     32  N   UNL     1      50.454   8.648  13.929  0.00  0.00    +0.000 NA
ENDBRANCH  27  28
ENDBRANCH  24  27
ENDBRANCH  20  21
ENDBRANCH   3  20
TORSDOF 5
ENDMDL
MODEL 5
REMARK VINA RESULT:    -7.701      1.392      1.945
REMARK INTER + INTRA:         -10.399
REMARK INTER:                  -9.656
REMARK INTRA:                  -0.743
REMARK UNBOUND:                -0.446
REMARK  Name = 
REMARK  5 active torsions:
REMARK  status: ('A' for Active; 'I' for Inactive)
REMARK    1  A    between atoms: C_7  and  C_8
REMARK    2  A    between atoms: N_10  and  C_11
REMARK    3  A    between atoms: C_11  and  C_12
REMARK    4  A    between atoms: C_15  and  C_16
REMARK    5  A    between atoms: C_16  and  N_17
REMARK                            x       y       z     vdW  Elec       q    Type
REMARK                         _______ _______ _______ _____ _____    ______ ____
ROOT
ATOM      1  C   UNL     1      48.794   7.255  14.570  0.00  0.00    +0.000 C 
ATOM      2  O   UNL     1      49.570   7.218  13.618  0.00  0.00    +0.000 OA
ATOM      3  N   UNL     1      47.531   7.782  14.458  0.00  0.00    +0.000 N 
ATOM      4  H   UNL     1      46.899   7.743  15.253  0.00  0.00    +0.000 HD
ENDROOT
BRANCH   1  11
ATOM      5  N   UNL     1      48.211   2.861  19.620  0.00  0.00    +0.000 N 
ATOM      6  C   UNL     1      48.444   3.798  18.667  0.00  0.00    +0.000 A 
ATOM      7  N   UNL     1      49.287   4.765  18.891  0.00  0.00    +0.000 NA
ATOM      8  C   UNL     1      49.409   5.633  17.861  0.00  0.00    +0.000 A 
ATOM      9  N   UNL     1      50.240   6.711  17.883  0.00  0.00    +0.000 N 
ATOM     10  C   UNL     1      50.115   7.392  16.700  0.00  0.00    +0.000 A 
ATOM     11  C   UNL     1      49.180   6.750  15.892  0.00  0.00    +0.000 A 
ATOM     12  C   UNL     1      48.761   5.613  16.646  0.00  0.00    +0.000 A 
ATOM     13  C   UNL     1      47.853   4.518  16.413  0.00  0.00    +0.000 A 
ATOM     14  O   UNL     1      47.241   4.348  15.362  0.00  0.00    +0.000 OA
ATOM     15  N   UNL     1      47.739   3.661  17.491  0.00  0.00    +0.000 N 
ATOM     16  H   UNL     1      48.574   3.142  20.526  0.00  0.00    +0.000 HD
ATOM     17  H   UNL     1      47.276   2.481  19.675  0.00  0.00    +0.000 HD
ATOM     18  H   UNL     1      50.842   6.956  18.658  0.00  0.00    +0.000 HD
ATOM     19  H   UNL     1      47.144   2.862  17.356  0.00  0.00    +0.000 HD
ENDBRANCH   1  11
BRANCH   3  20
ATOM     20  C   UNL     1      47.006   8.268  13.204  0.00  0.00    +0.000 C 
BRANCH  20  21
ATOM     21  C   UNL     1      46.174   7.242  12.508  0.00  0.00    +0.000 A 
ATOM     22  C   UNL     1      44.965   7.542  11.914  0.00  0.00    +0.000 A 
ATOM     23  N   UNL     1      44.203   6.641  11.258  0.00  0.00    +0.000 NA
ATOM     24  C   UNL     1      44.673   5.376  11.197  0.00  0.00    +0.000 A 
ATOM     25  N   UNL     1      45.827   4.976  11.770  0.00  0.00    +0.000 NA
ATOM     26  C   UNL     1      46.547   5.919  12.411  0.00  0.00    +0.000 A 
BRANCH  24  27
ATOM     27  C   UNL     1      43.830   4.342  10.505  0.00  0.00    +0.000 C 
BRANCH  27  28
ATOM     28  N   UNL     1      44.558   3.664   9.443  0.00  0.00    +0.000 N 
ATOM     29  C   UNL     1      44.964   2.355   9.423  0.00  0.00    +0.000 A 
ATOM     30  C   UNL     1      45.736   2.205   8.296  0.00  0.00    +0.000 A 
ATOM     31  C   UNL     1      45.766   3.483   7.712  0.00  0.00    +0.000 A 
ATOM     32  N   UNL     1      45.074   4.382   8.416  0.00  0.00    +0.000 NA
ENDBRANCH  27  28
ENDBRANCH  24  27
ENDBRANCH  20  21
ENDBRANCH   3  20
TORSDOF 5
ENDMDL
MODEL 6
REMARK VINA RESULT:    -7.694      2.641      8.804
REMARK INTER + INTRA:         -10.389
REMARK INTER:                  -9.617
REMARK INTRA:                  -0.773
REMARK UNBOUND:                -0.446
REMARK  Name = 
REMARK  5 active torsions:
REMARK  status: ('A' for Active; 'I' for Inactive)
REMARK    1  A    between atoms: C_7  and  C_8
REMARK    2  A    between atoms: N_10  and  C_11
REMARK    3  A    between atoms: C_11  and  C_12
REMARK    4  A    between atoms: C_15  and  C_16
REMARK    5  A    between atoms: C_16  and  N_17
REMARK                            x       y       z     vdW  Elec       q    Type
REMARK                         _______ _______ _______ _____ _____    ______ ____
ROOT
ATOM      1  C   UNL     1      44.180   4.196  10.382  0.00  0.00    +0.000 C 
ATOM      2  O   UNL     1      43.010   4.107  10.747  0.00  0.00    +0.000 OA
ATOM      3  N   UNL     1      44.967   5.270  10.719  0.00  0.00    +0.000 N 
ATOM      4  H   UNL     1      45.946   5.279  10.447  0.00  0.00    +0.000 HD
ENDROOT
BRANCH   1  11
ATOM      5  N   UNL     1      48.328   2.277   5.456  0.00  0.00    +0.000 N 
ATOM      6  C   UNL     1      47.477   2.528   6.483  0.00  0.00    +0.000 A 
ATOM      7  N   UNL     1      46.798   1.555   7.022  0.00  0.00    +0.000 NA
ATOM      8  C   UNL     1      45.980   1.950   8.025  0.00  0.00    +0.000 A 
ATOM      9  N   UNL     1      45.187   1.096   8.728  0.00  0.00    +0.000 N 
ATOM     10  C   UNL     1      44.474   1.812   9.653  0.00  0.00    +0.000 A 
ATOM     11  C   UNL     1      44.803   3.162   9.549  0.00  0.00    +0.000 A 
ATOM     12  C   UNL     1      45.787   3.223   8.518  0.00  0.00    +0.000 A 
ATOM     13  C   UNL     1      46.569   4.276   7.920  0.00  0.00    +0.000 A 
ATOM     14  O   UNL     1      46.533   5.447   8.288  0.00  0.00    +0.000 OA
ATOM     15  N   UNL     1      47.380   3.840   6.890  0.00  0.00    +0.000 N 
ATOM     16  H   UNL     1      48.182   1.354   5.058  0.00  0.00    +0.000 HD
ATOM     17  H   UNL     1      48.424   2.995   4.752  0.00  0.00    +0.000 HD
ATOM     18  H   UNL     1      45.142   0.097   8.575  0.00  0.00    +0.000 HD
ATOM     19  H   UNL     1      47.971   4.538   6.471  0.00  0.00    +0.000 HD
ENDBRANCH   1  11
BRANCH   3  20
ATOM     20  C   UNL     1      44.496   6.333  11.575  0.00  0.00    +0.000 C 
BRANCH  20  21
ATOM     21  C   UNL     1      45.597   6.932  12.385  0.00  0.00    +0.000 A 
ATOM     22  C   UNL     1      46.706   6.211  12.782  0.00  0.00    +0.000 A 
ATOM     23  N   UNL     1      47.728   6.732  13.494  0.00  0.00    +0.000 NA
ATOM     24  C   UNL     1      47.634   8.037  13.829  0.00  0.00    +0.000 A 
ATOM     25  N   UNL     1      46.579   8.818  13.516  0.00  0.00    +0.000 NA
ATOM     26  C   UNL     1      45.588   8.245  12.803  0.00  0.00    +0.000 A 
BRANCH  24  27
ATOM     27  C   UNL     1      48.739   8.636  14.654  0.00  0.00    +0.000 C 
BRANCH  27  28
ATOM     28  N   UNL     1      48.506   8.473  16.081  0.00  0.00    +0.000 N 
ATOM     29  C   UNL     1      47.954   9.388  16.939  0.00  0.00    +0.000 A 
ATOM     30  C   UNL     1      48.069   8.856  18.201  0.00  0.00    +0.000 A 
ATOM     31  C   UNL     1      48.730   7.630  18.011  0.00  0.00    +0.000 A 
ATOM     32  N   UNL     1      49.022   7.401  16.729  0.00  0.00    +0.000 NA
ENDBRANCH  27  28
ENDBRANCH  24  27
ENDBRANCH  20  21
ENDBRANCH   3  20
TORSDOF 5
ENDMDL
MODEL 7
REMARK VINA RESULT:    -7.678      2.999      7.783
REMARK INTER + INTRA:         -10.368
REMARK INTER:                  -9.629
REMARK INTRA:                  -0.739
REMARK UNBOUND:                -0.446
REMARK  Name = 
REMARK  5 active torsions:
REMARK  status: ('A' for Active; 'I' for Inactive)
REMARK    1  A    between atoms: C_7  and  C_8
REMARK    2  A    between atoms: N_10  and  C_11
REMARK    3  A    between atoms: C_11  and  C_12
REMARK    4  A    between atoms: C_15  and  C_16
REMARK    5  A    between atoms: C_16  and  N_17
REMARK                            x       y       z     vdW  Elec       q    Type
REMARK                         _______ _______ _______ _____ _____    ______ ____
ROOT
ATOM      1  C   UNL     1      47.761   6.868  13.567  0.00  0.00    +0.000 C 
ATOM      2  O   UNL     1      48.796   6.397  13.101  0.00  0.00    +0.000 OA
ATOM      3  N   UNL     1      47.777   7.813  14.564  0.00  0.00    +0.000 N 
ATOM      4  H   UNL     1      46.901   8.220  14.882  0.00  0.00    +0.000 HD
ENDROOT
BRANCH   1  11
ATOM      5  N   UNL     1      43.376   2.077  11.845  0.00  0.00    +0.000 N 
ATOM      6  C   UNL     1      44.154   3.135  12.183  0.00  0.00    +0.000 A 
ATOM      7  N   UNL     1      43.717   4.350  12.010  0.00  0.00    +0.000 NA
ATOM      8  C   UNL     1      44.601   5.306  12.377  0.00  0.00    +0.000 A 
ATOM      9  N   UNL     1      44.345   6.640  12.286  0.00  0.00    +0.000 N 
ATOM     10  C   UNL     1      45.446   7.334  12.718  0.00  0.00    +0.000 A 
ATOM     11  C   UNL     1      46.443   6.436  13.092  0.00  0.00    +0.000 A 
ATOM     12  C   UNL     1      45.870   5.144  12.890  0.00  0.00    +0.000 A 
ATOM     13  C   UNL     1      46.319   3.790  13.095  0.00  0.00    +0.000 A 
ATOM     14  O   UNL     1      47.406   3.497  13.584  0.00  0.00    +0.000 OA
ATOM     15  N   UNL     1      45.399   2.840  12.695  0.00  0.00    +0.000 N 
ATOM     16  H   UNL     1      42.585   2.354  11.271  0.00  0.00    +0.000 HD
ATOM     17  H   UNL     1      43.845   1.254  11.492  0.00  0.00    +0.000 HD
ATOM     18  H   UNL     1      43.478   7.037  11.948  0.00  0.00    +0.000 HD
ATOM     19  H   UNL     1      45.658   1.882  12.856  0.00  0.00    +0.000 HD
ENDBRANCH   1  11
BRANCH   3  20
ATOM     20  C   UNL     1      49.005   8.363  15.087  0.00  0.00    +0.000 C 
BRANCH  20  21
ATOM     21  C   UNL     1      49.679   7.428  16.036  0.00  0.00    +0.000 A 
ATOM     22  C   UNL     1      50.959   6.954  15.829  0.00  0.00    +0.000 A 
ATOM     23  N   UNL     1      51.604   6.128  16.682  0.00  0.00    +0.000 NA
ATOM     24  C   UNL     1      50.931   5.754  17.792  0.00  0.00    +0.000 A 
ATOM     25  N   UNL     1      49.668   6.138  18.069  0.00  0.00    +0.000 NA
ATOM     26  C   UNL     1      49.075   6.965  17.184  0.00  0.00    +0.000 A 
BRANCH  24  27
ATOM     27  C   UNL     1      51.608   4.805  18.742  0.00  0.00    +0.000 C 
BRANCH  27  28
ATOM     28  N   UNL     1      51.592   3.436  18.249  0.00  0.00    +0.000 N 
ATOM     29  C   UNL     1      52.653   2.571  18.177  0.00  0.00    +0.000 A 
ATOM     30  C   UNL     1      52.199   1.454  17.516  0.00  0.00    +0.000 A 
ATOM     31  C   UNL     1      50.862   1.747  17.200  0.00  0.00    +0.000 A 
ATOM     32  N   UNL     1      50.492   2.960  17.619  0.00  0.00    +0.000 NA
ENDBRANCH  27  28
ENDBRANCH  24  27
ENDBRANCH  20  21
ENDBRANCH   3  20
TORSDOF 5
ENDMDL
MODEL 8
REMARK VINA RESULT:    -7.566      2.268      4.086
REMARK INTER + INTRA:         -10.224
REMARK INTER:                  -9.362
REMARK INTRA:                  -0.862
REMARK UNBOUND:                -0.446
REMARK  Name = 
REMARK  5 active torsions:
REMARK  status: ('A' for Active; 'I' for Inactive)
REMARK    1  A    between atoms: C_7  and  C_8
REMARK    2  A    between atoms: N_10  and  C_11
REMARK    3  A    between atoms: C_11  and  C_12
REMARK    4  A    between atoms: C_15  and  C_16
REMARK    5  A    between atoms: C_16  and  N_17
REMARK                            x       y       z     vdW  Elec       q    Type
REMARK                         _______ _______ _______ _____ _____    ______ ____
ROOT
ATOM      1  C   UNL     1      47.825   5.894  14.413  0.00  0.00    +0.000 C 
ATOM      2  O   UNL     1      47.808   4.847  15.056  0.00  0.00    +0.000 OA
ATOM      3  N   UNL     1      46.771   6.279  13.621  0.00  0.00    +0.000 N 
ATOM      4  H   UNL     1      46.800   7.180  13.152  0.00  0.00    +0.000 HD
ENDROOT
BRANCH   1  11
ATOM      5  N   UNL     1      52.168  10.048  11.407  0.00  0.00    +0.000 N 
ATOM      6  C   UNL     1      51.347   9.251  12.136  0.00  0.00    +0.000 A 
ATOM      7  N   UNL     1      51.596   9.034  13.397  0.00  0.00    +0.000 NA
ATOM      8  C   UNL     1      50.706   8.211  13.996  0.00  0.00    +0.000 A 
ATOM      9  N   UNL     1      50.775   7.858  15.309  0.00  0.00    +0.000 N 
ATOM     10  C   UNL     1      49.742   7.005  15.594  0.00  0.00    +0.000 A 
ATOM     11  C   UNL     1      48.985   6.791  14.444  0.00  0.00    +0.000 A 
ATOM     12  C   UNL     1      49.606   7.594  13.441  0.00  0.00    +0.000 A 
ATOM     13  C   UNL     1      49.339   7.871  12.052  0.00  0.00    +0.000 A 
ATOM     14  O   UNL     1      48.372   7.426  11.440  0.00  0.00    +0.000 OA
ATOM     15  N   UNL     1      50.276   8.701  11.467  0.00  0.00    +0.000 N 
ATOM     16  H   UNL     1      53.045  10.229  11.885  0.00  0.00    +0.000 HD
ATOM     17  H   UNL     1      52.295   9.810  10.433  0.00  0.00    +0.000 HD
ATOM     18  H   UNL     1      51.485   8.180  15.953  0.00  0.00    +0.000 HD
ATOM     19  H   UNL     1      50.105   8.949  10.508  0.00  0.00    +0.000 HD
ENDBRANCH   1  11
BRANCH   3  20
ATOM     20  C   UNL     1      45.548   5.515  13.539  0.00  0.00    +0.000 C 
BRANCH  20  21
ATOM     21  C   UNL     1      45.341   4.931  12.182  0.00  0.00    +0.000 A 
ATOM     22  C   UNL     1      45.487   5.669  11.024  0.00  0.00    +0.000 A 
ATOM     23  N   UNL     1      45.330   5.162   9.782  0.00  0.00    +0.000 NA
ATOM     24  C   UNL     1      45.006   3.853   9.695  0.00  0.00    +0.000 A 
ATOM     25  N   UNL     1      44.811   3.056  10.766  0.00  0.00    +0.000 NA
ATOM     26  C   UNL     1      44.984   3.616  11.981  0.00  0.00    +0.000 A 
BRANCH  24  27
ATOM     27  C   UNL     1      44.788   3.269   8.328  0.00  0.00    +0.000 C 
BRANCH  27  28
ATOM     28  N   UNL     1      45.926   2.479   7.883  0.00  0.00    +0.000 N 
ATOM     29  C   UNL     1      46.886   2.849   6.976  0.00  0.00    +0.000 A 
ATOM     30  C   UNL     1      47.667   1.739   6.763  0.00  0.00    +0.000 A 
ATOM     31  C   UNL     1      47.087   0.737   7.560  0.00  0.00    +0.000 A 
ATOM     32  N   UNL     1      46.013   1.172   8.224  0.00  0.00    +0.000 NA
ENDBRANCH  27  28
ENDBRANCH  24  27
ENDBRANCH  20  21
ENDBRANCH   3  20
TORSDOF 5
ENDMDL
MODEL 9
REMARK VINA RESULT:    -7.109      2.405      2.975
REMARK INTER + INTRA:          -9.634
REMARK INTER:                  -8.875
REMARK INTRA:                  -0.759
REMARK UNBOUND:                -0.446
REMARK  Name = 
REMARK  5 active torsions:
REMARK  status: ('A' for Active; 'I' for Inactive)
REMARK    1  A    between atoms: C_7  and  C_8
REMARK    2  A    between atoms: N_10  and  C_11
REMARK    3  A    between atoms: C_11  and  C_12
REMARK    4  A    between atoms: C_15  and  C_16
REMARK    5  A    between atoms: C_16  and  N_17
REMARK                            x       y       z     vdW  Elec       q    Type
REMARK                         _______ _______ _______ _____ _____    ______ ____
ROOT
ATOM      1  C   UNL     1      49.134   6.111  16.491  0.00  0.00    +0.000 C 
ATOM      2  O   UNL     1      48.669   7.053  17.128  0.00  0.00    +0.000 OA
ATOM      3  N   UNL     1      48.622   5.733  15.273  0.00  0.00    +0.000 N 
ATOM      4  H   UNL     1      49.071   4.986  14.751  0.00  0.00    +0.000 HD
ENDROOT
BRANCH   1  11
ATOM      5  N   UNL     1      51.985   0.251  18.128  0.00  0.00    +0.000 N 
ATOM      6  C   UNL     1      51.536   1.493  17.818  0.00  0.00    +0.000 A 
ATOM      7  N   UNL     1      52.265   2.538  18.088  0.00  0.00    +0.000 NA
ATOM      8  C   UNL     1      51.689   3.711  17.738  0.00  0.00    +0.000 A 
ATOM      9  N   UNL     1      52.280   4.923  17.925  0.00  0.00    +0.000 N 
ATOM     10  C   UNL     1      51.431   5.904  17.483  0.00  0.00    +0.000 A 
ATOM     11  C   UNL     1      50.259   5.322  17.003  0.00  0.00    +0.000 A 
ATOM     12  C   UNL     1      50.458   3.917  17.153  0.00  0.00    +0.000 A 
ATOM     13  C   UNL     1      49.683   2.742  16.841  0.00  0.00    +0.000 A 
ATOM     14  O   UNL     1      48.591   2.772  16.281  0.00  0.00    +0.000 OA
ATOM     15  N   UNL     1      50.294   1.564  17.227  0.00  0.00    +0.000 N 
ATOM     16  H   UNL     1      52.782   0.281  18.757  0.00  0.00    +0.000 HD
ATOM     17  H   UNL     1      51.294  -0.433  18.405  0.00  0.00    +0.000 HD
ATOM     18  H   UNL     1      53.197   5.058  18.330  0.00  0.00    +0.000 HD
ATOM     19  H   UNL     1      49.803   0.718  16.993  0.00  0.00    +0.000 HD
ENDBRANCH   1  11
BRANCH   3  20
ATOM     20  C   UNL     1      47.548   6.454  14.631  0.00  0.00    +0.000 C 
BRANCH  20  21
ATOM     21  C   UNL     1      46.738   5.575  13.738  0.00  0.00    +0.000 A 
ATOM     22  C   UNL     1      46.782   4.197  13.810  0.00  0.00    +0.000 A 
ATOM     23  N   UNL     1      46.042   3.377  13.032  0.00  0.00    +0.000 NA
ATOM     24  C   UNL     1      45.222   3.966  12.135  0.00  0.00    +0.000 A 
ATOM     25  N   UNL     1      45.130   5.301  11.965  0.00  0.00    +0.000 NA
ATOM     26  C   UNL     1      45.890   6.071  12.771  0.00  0.00    +0.000 A 
BRANCH  24  27
ATOM     27  C   UNL     1      44.414   3.080  11.228  0.00  0.00    +0.000 C 
BRANCH  27  28
ATOM     28  N   UNL     1      44.882   3.133   9.852  0.00  0.00    +0.000 N 
ATOM     29  C   UNL     1      44.529   4.047   8.893  0.00  0.00    +0.000 A 
ATOM     30  C   UNL     1      45.101   3.619   7.719  0.00  0.00    +0.000 A 
ATOM     31  C   UNL     1      45.755   2.422   8.058  0.00  0.00    +0.000 A 
ATOM     32  N   UNL     1      45.606   2.107   9.346  0.00  0.00    +0.000 NA
ENDBRANCH  27  28
ENDBRANCH  24  27
ENDBRANCH  20  21
ENDBRANCH   3  20
TORSDOF 5
ENDMDL
