MODEL 1
REMARK VINA RESULT:    -8.219      0.000      0.000
REMARK INTER + INTRA:         -13.143
REMARK INTER:                 -12.063
REMARK INTRA:                  -1.079
REMARK UNBOUND:                -1.079
REMARK  Name = 
REMARK  9 active torsions:
REMARK  status: ('A' for Active; 'I' for Inactive)
REMARK    1  A    between atoms: C_1  and  O_2
REMARK    2  A    between atoms: O_2  and  C_3
REMARK    3  A    between atoms: C_10  and  C_11
REMARK    4  A    between atoms: N_13  and  C_14
REMARK    5  A    between atoms: C_14  and  C_15
REMARK    6  A    between atoms: C_18  and  C_19
REMARK    7  A    between atoms: C_19  and  N_20
REMARK    8  A    between atoms: N_20  and  C_21
REMARK    9  A    between atoms: C_21  and  C_22
REMARK                            x       y       z     vdW  Elec       q    Type
REMARK                         _______ _______ _______ _____ _____    ______ ____
ROOT
ATOM      1  C   UNL     1      48.004   7.107  13.284  0.00  0.00    +0.000 C 
ENDROOT
BRANCH   1   2
ATOM      2  C   UNL     1      46.892   6.280  12.683  0.00  0.00    +0.000 A 
ATOM      3  C   UNL     1      46.312   5.228  13.404  0.00  0.00    +0.000 A 
ATOM      4  C   UNL     1      45.255   4.487  12.860  0.00  0.00    +0.000 A 
ATOM      5  C   UNL     1      44.755   4.777  11.581  0.00  0.00    +0.000 A 
ATOM      6  C   UNL     1      45.367   5.802  10.847  0.00  0.00    +0.000 A 
ATOM      7  C   UNL     1      46.429   6.538  11.387  0.00  0.00    +0.000 A 
BRANCH   5   8
ATOM      8  C   UNL     1      43.588   4.003  11.000  0.00  0.00    +0.000 C 
BRANCH   8   9
ATOM      9  N   UNL     1      43.857   3.588   9.623  0.00  0.00    +0.000 NA
ATOM     10  H   UNL     1      44.466   4.281   9.188  0.00  0.00    +0.000 HD
BRANCH   9  11
ATOM     11  C   UNL     1      44.545   2.289   9.567  0.00  0.00    +0.000 C 
BRANCH  11  12
ATOM     12  C   UNL     1      45.586   2.242   8.460  0.00  0.00    +0.000 A 
ATOM     13  C   UNL     1      45.834   3.371   7.679  0.00  0.00    +0.000 A 
ATOM     14  C   UNL     1      46.803   3.309   6.685  0.00  0.00    +0.000 A 
ATOM     15  C   UNL     1      47.500   2.123   6.484  0.00  0.00    +0.000 A 
ATOM     16  C   UNL     1      47.189   1.044   7.292  0.00  0.00    +0.000 A 
ATOM     17  N   UNL     1      46.256   1.075   8.273  0.00  0.00    +0.000 NA
ENDBRANCH  11  12
ENDBRANCH   9  11
ENDBRANCH   8   9
ENDBRANCH   5   8
ENDBRANCH   1   2
BRANCH   1  20
ATOM     18  C   UNL     1      48.988   6.943  15.535  0.00  0.00    +0.000 C 
ATOM     19  O   UNL     1      50.095   6.687  15.072  0.00  0.00    +0.000 OA
ATOM     20  N   UNL     1      47.906   7.153  14.721  0.00  0.00    +0.000 N 
ATOM     21  H   UNL     1      46.986   7.260  15.121  0.00  0.00    +0.000 HD
BRANCH  18  29
ATOM     22  C   UNL     1      49.101   4.678  18.132  0.00  0.00    +0.000 A 
ATOM     23  N   UNL     1      48.990   4.008  19.296  0.00  0.00    +0.000 NA
ATOM     24  C   UNL     1      48.619   4.684  20.383  0.00  0.00    +0.000 A 
ATOM     25  N   UNL     1      48.340   5.982  20.458  0.00  0.00    +0.000 NA
ATOM     26  C   UNL     1      48.445   6.612  19.275  0.00  0.00    +0.000 A 
ATOM     27  S   UNL     1      48.140   8.279  19.189  0.00  0.00    +0.000 S 
ATOM     28  C   UNL     1      48.440   8.298  17.516  0.00  0.00    +0.000 A 
ATOM     29  C   UNL     1      48.766   7.053  16.988  0.00  0.00    +0.000 A 
ATOM     30  C   UNL     1      48.801   6.049  18.052  0.00  0.00    +0.000 A 
BRANCH  22  32
ATOM     31  C   UNL     1      50.076   2.698  17.345  0.00  0.00    +0.000 C 
ATOM     32  O   UNL     1      49.558   3.987  17.026  0.00  0.00    +0.000 OA
ENDBRANCH  22  32
ENDBRANCH  18  29
ENDBRANCH   1  20
TORSDOF 8
ENDMDL
MODEL 2
REMARK VINA RESULT:    -8.019      1.379      2.353
REMARK INTER + INTRA:         -12.849
REMARK INTER:                 -11.776
REMARK INTRA:                  -1.073
REMARK UNBOUND:                -1.079
REMARK  Name = 
REMARK  9 active torsions:
REMARK  status: ('A' for Active; 'I' for Inactive)
REMARK    1  A    between atoms: C_1  and  O_2
REMARK    2  A    between atoms: O_2  and  C_3
REMARK    3  A    between atoms: C_10  and  C_11
REMARK    4  A    between atoms: N_13  and  C_14
REMARK    5  A    between atoms: C_14  and  C_15
REMARK    6  A    between atoms: C_18  and  C_19
REMARK    7  A    between atoms: C_19  and  N_20
REMARK    8  A    between atoms: N_20  and  C_21
REMARK    9  A    between atoms: C_21  and  C_22
REMARK                            x       y       z     vdW  Elec       q    Type
REMARK                         _______ _______ _______ _____ _____    ______ ____
ROOT
ATOM      1  C   UNL     1      48.136   6.618  13.704  0.00  0.00    +0.000 C 
ENDROOT
BRANCH   1   2
ATOM      2  C   UNL     1      46.968   6.127  12.883  0.00  0.00    +0.000 A 
ATOM      3  C   UNL     1      46.095   5.155  13.390  0.00  0.00    +0.000 A 
ATOM      4  C   UNL     1      44.989   4.729  12.643  0.00  0.00    +0.000 A 
ATOM      5  C   UNL     1      44.732   5.261  11.370  0.00  0.00    +0.000 A 
ATOM      6  C   UNL     1      45.632   6.201  10.850  0.00  0.00    +0.000 A 
ATOM      7  C   UNL     1      46.741   6.622  11.593  0.00  0.00    +0.000 A 
BRANCH   5   8
ATOM      8  C   UNL     1      43.517   4.831  10.571  0.00  0.00    +0.000 C 
BRANCH   8   9
ATOM      9  N   UNL     1      43.906   4.203   9.308  0.00  0.00    +0.000 NA
ATOM     10  H   UNL     1      44.643   4.763   8.880  0.00  0.00    +0.000 HD
BRANCH   9  11
ATOM     11  C   UNL     1      44.437   2.845   9.512  0.00  0.00    +0.000 C 
BRANCH  11  12
ATOM     12  C   UNL     1      45.512   2.494   8.496  0.00  0.00    +0.000 A 
ATOM     13  C   UNL     1      46.020   3.473   7.643  0.00  0.00    +0.000 A 
ATOM     14  C   UNL     1      47.015   3.132   6.735  0.00  0.00    +0.000 A 
ATOM     15  C   UNL     1      47.478   1.822   6.690  0.00  0.00    +0.000 A 
ATOM     16  C   UNL     1      46.916   0.906   7.562  0.00  0.00    +0.000 A 
ATOM     17  N   UNL     1      45.951   1.209   8.462  0.00  0.00    +0.000 NA
ENDBRANCH  11  12
ENDBRANCH   9  11
ENDBRANCH   8   9
ENDBRANCH   5   8
ENDBRANCH   1   2
BRANCH   1  20
ATOM     18  C   UNL     1      49.032   6.307  15.977  0.00  0.00    +0.000 C 
ATOM     19  O   UNL     1      50.162   6.617  15.613  0.00  0.00    +0.000 OA
ATOM     20  N   UNL     1      47.983   6.274  15.095  0.00  0.00    +0.000 N 
ATOM     21  H   UNL     1      47.086   5.919  15.390  0.00  0.00    +0.000 HD
BRANCH  18  29
ATOM     22  C   UNL     1      47.864   8.123  18.665  0.00  0.00    +0.000 A 
ATOM     23  N   UNL     1      47.515   8.598  19.877  0.00  0.00    +0.000 NA
ATOM     24  C   UNL     1      47.530   7.760  20.913  0.00  0.00    +0.000 A 
ATOM     25  N   UNL     1      47.853   6.471  20.892  0.00  0.00    +0.000 NA
ATOM     26  C   UNL     1      48.211   6.038  19.670  0.00  0.00    +0.000 A 
ATOM     27  S   UNL     1      48.641   4.411  19.456  0.00  0.00    +0.000 S 
ATOM     28  C   UNL     1      48.945   4.658  17.802  0.00  0.00    +0.000 A 
ATOM     29  C   UNL     1      48.739   5.968  17.381  0.00  0.00    +0.000 A 
ATOM     30  C   UNL     1      48.267   6.786  18.497  0.00  0.00    +0.000 A 
BRANCH  22  32
ATOM     31  C   UNL     1      48.937   9.785  17.409  0.00  0.00    +0.000 C 
ATOM     32  O   UNL     1      47.776   8.976  17.583  0.00  0.00    +0.000 OA
ENDBRANCH  22  32
ENDBRANCH  18  29
ENDBRANCH   1  20
TORSDOF 8
ENDMDL
MODEL 3
REMARK VINA RESULT:    -7.644      1.251      1.790
REMARK INTER + INTRA:         -12.298
REMARK INTER:                 -11.340
REMARK INTRA:                  -0.958
REMARK UNBOUND:                -1.079
REMARK  Name = 
REMARK  9 active torsions:
REMARK  status: ('A' for Active; 'I' for Inactive)
REMARK    1  A    between atoms: C_1  and  O_2
REMARK    2  A    between atoms: O_2  and  C_3
REMARK    3  A    between atoms: C_10  and  C_11
REMARK    4  A    between atoms: N_13  and  C_14
REMARK    5  A    between atoms: C_14  and  C_15
REMARK    6  A    between atoms: C_18  and  C_19
REMARK    7  A    between atoms: C_19  and  N_20
REMARK    8  A    between atoms: N_20  and  C_21
REMARK    9  A    between atoms: C_21  and  C_22
REMARK                            x       y       z     vdW  Elec       q    Type
REMARK                         _______ _______ _______ _____ _____    ______ ____
ROOT
ATOM      1  C   UNL     1      48.207   5.902  13.867  0.00  0.00    +0.000 C 
ENDROOT
BRANCH   1   2
ATOM      2  C   UNL     1      46.958   5.699  13.045  0.00  0.00    +0.000 A 
ATOM      3  C   UNL     1      46.766   6.404  11.848  0.00  0.00    +0.000 A 
ATOM      4  C   UNL     1      45.624   6.186  11.066  0.00  0.00    +0.000 A 
ATOM      5  C   UNL     1      44.645   5.262  11.463  0.00  0.00    +0.000 A 
ATOM      6  C   UNL     1      44.821   4.592  12.681  0.00  0.00    +0.000 A 
ATOM      7  C   UNL     1      45.958   4.815  13.467  0.00  0.00    +0.000 A 
BRANCH   5   8
ATOM      8  C   UNL     1      43.424   4.995  10.604  0.00  0.00    +0.000 C 
BRANCH   8   9
ATOM      9  N   UNL     1      43.794   4.365   9.337  0.00  0.00    +0.000 NA
ATOM     10  H   UNL     1      44.527   4.923   8.897  0.00  0.00    +0.000 HD
BRANCH   9  11
ATOM     11  C   UNL     1      44.323   3.006   9.534  0.00  0.00    +0.000 C 
BRANCH  11  12
ATOM     12  C   UNL     1      45.401   2.660   8.519  0.00  0.00    +0.000 A 
ATOM     13  C   UNL     1      45.854   3.623   7.618  0.00  0.00    +0.000 A 
ATOM     14  C   UNL     1      46.853   3.288   6.711  0.00  0.00    +0.000 A 
ATOM     15  C   UNL     1      47.372   1.998   6.715  0.00  0.00    +0.000 A 
ATOM     16  C   UNL     1      46.862   1.097   7.632  0.00  0.00    +0.000 A 
ATOM     17  N   UNL     1      45.896   1.395   8.532  0.00  0.00    +0.000 NA
ENDBRANCH  11  12
ENDBRANCH   9  11
ENDBRANCH   8   9
ENDBRANCH   5   8
ENDBRANCH   1   2
BRANCH   1  20
ATOM     18  C   UNL     1      48.860   6.892  16.025  0.00  0.00    +0.000 C 
ATOM     19  O   UNL     1      49.927   6.287  16.022  0.00  0.00    +0.000 OA
ATOM     20  N   UNL     1      47.955   6.749  15.006  0.00  0.00    +0.000 N 
ATOM     21  H   UNL     1      47.043   7.173  15.077  0.00  0.00    +0.000 HD
BRANCH  18  29
ATOM     22  C   UNL     1      48.152   6.452  19.371  0.00  0.00    +0.000 A 
ATOM     23  N   UNL     1      47.757   6.559  20.655  0.00  0.00    +0.000 NA
ATOM     24  C   UNL     1      47.424   7.765  21.116  0.00  0.00    +0.000 A 
ATOM     25  N   UNL     1      47.440   8.909  20.440  0.00  0.00    +0.000 NA
ATOM     26  C   UNL     1      47.822   8.759  19.160  0.00  0.00    +0.000 A 
ATOM     27  S   UNL     1      47.914  10.122  18.154  0.00  0.00    +0.000 S 
ATOM     28  C   UNL     1      48.405   9.173  16.831  0.00  0.00    +0.000 A 
ATOM     29  C   UNL     1      48.500   7.815  17.117  0.00  0.00    +0.000 A 
ATOM     30  C   UNL     1      48.182   7.574  18.524  0.00  0.00    +0.000 A 
BRANCH  22  32
ATOM     31  C   UNL     1      49.835   4.822  19.443  0.00  0.00    +0.000 C 
ATOM     32  O   UNL     1      48.567   5.214  18.921  0.00  0.00    +0.000 OA
ENDBRANCH  22  32
ENDBRANCH  18  29
ENDBRANCH   1  20
TORSDOF 8
ENDMDL
MODEL 4
REMARK VINA RESULT:    -7.488      1.906      2.190
REMARK INTER + INTRA:         -12.070
REMARK INTER:                 -11.030
REMARK INTRA:                  -1.039
REMARK UNBOUND:                -1.079
REMARK  Name = 
REMARK  9 active torsions:
REMARK  status: ('A' for Active; 'I' for Inactive)
REMARK    1  A    between atoms: C_1  and  O_2
REMARK    2  A    between atoms: O_2  and  C_3
REMARK    3  A    between atoms: C_10  and  C_11
REMARK    4  A    between atoms: N_13  and  C_14
REMARK    5  A    between atoms: C_14  and  C_15
REMARK    6  A    between atoms: C_18  and  C_19
REMARK    7  A    between atoms: C_19  and  N_20
REMARK    8  A    between atoms: N_20  and  C_21
REMARK    9  A    between atoms: C_21  and  C_22
REMARK                            x       y       z     vdW  Elec       q    Type
REMARK                         _______ _______ _______ _____ _____    ______ ____
ROOT
ATOM      1  C   UNL     1      47.824   7.773  13.449  0.00  0.00    +0.000 C 
ENDROOT
BRANCH   1   2
ATOM      2  C   UNL     1      46.933   6.656  12.962  0.00  0.00    +0.000 A 
ATOM      3  C   UNL     1      46.898   5.424  13.630  0.00  0.00    +0.000 A 
ATOM      4  C   UNL     1      46.042   4.402  13.201  0.00  0.00    +0.000 A 
ATOM      5  C   UNL     1      45.203   4.584  12.091  0.00  0.00    +0.000 A 
ATOM      6  C   UNL     1      45.272   5.802  11.401  0.00  0.00    +0.000 A 
ATOM      7  C   UNL     1      46.133   6.822  11.825  0.00  0.00    +0.000 A 
BRANCH   5   8
ATOM      8  C   UNL     1      44.248   3.495  11.642  0.00  0.00    +0.000 C 
BRANCH   8   9
ATOM      9  N   UNL     1      44.911   2.537  10.757  0.00  0.00    +0.000 NA
ATOM     10  H   UNL     1      44.722   1.595  11.098  0.00  0.00    +0.000 HD
BRANCH   9  11
ATOM     11  C   UNL     1      44.405   2.625   9.378  0.00  0.00    +0.000 C 
BRANCH  11  12
ATOM     12  C   UNL     1      45.508   2.414   8.352  0.00  0.00    +0.000 A 
ATOM     13  C   UNL     1      45.877   3.449   7.493  0.00  0.00    +0.000 A 
ATOM     14  C   UNL     1      46.900   3.237   6.576  0.00  0.00    +0.000 A 
ATOM     15  C   UNL     1      47.528   1.998   6.528  0.00  0.00    +0.000 A 
ATOM     16  C   UNL     1      47.097   1.019   7.407  0.00  0.00    +0.000 A 
ATOM     17  N   UNL     1      46.110   1.196   8.315  0.00  0.00    +0.000 NA
ENDBRANCH  11  12
ENDBRANCH   9  11
ENDBRANCH   8   9
ENDBRANCH   5   8
ENDBRANCH   1   2
BRANCH   1  20
ATOM     18  C   UNL     1      49.295   7.523  15.407  0.00  0.00    +0.000 C 
ATOM     19  O   UNL     1      48.563   8.228  16.094  0.00  0.00    +0.000 OA
ATOM     20  N   UNL     1      49.006   7.260  14.094  0.00  0.00    +0.000 N 
ATOM     21  H   UNL     1      49.671   6.764  13.519  0.00  0.00    +0.000 HD
BRANCH  18  29
ATOM     22  C   UNL     1      49.865   5.100  17.793  0.00  0.00    +0.000 A 
ATOM     23  N   UNL     1      50.371   4.266  18.724  0.00  0.00    +0.000 NA
ATOM     24  C   UNL     1      51.695   4.190  18.852  0.00  0.00    +0.000 A 
ATOM     25  N   UNL     1      52.604   4.856  18.148  0.00  0.00    +0.000 NA
ATOM     26  C   UNL     1      52.062   5.689  17.243  0.00  0.00    +0.000 A 
ATOM     27  S   UNL     1      53.080   6.609  16.244  0.00  0.00    +0.000 S 
ATOM     28  C   UNL     1      51.749   7.337  15.476  0.00  0.00    +0.000 A 
ATOM     29  C   UNL     1      50.516   6.911  15.961  0.00  0.00    +0.000 A 
ATOM     30  C   UNL     1      50.708   5.898  16.998  0.00  0.00    +0.000 A 
BRANCH  22  32
ATOM     31  C   UNL     1      48.027   4.076  16.761  0.00  0.00    +0.000 C 
ATOM     32  O   UNL     1      48.496   5.119  17.613  0.00  0.00    +0.000 OA
ENDBRANCH  22  32
ENDBRANCH  18  29
ENDBRANCH   1  20
TORSDOF 8
ENDMDL
MODEL 5
REMARK VINA RESULT:    -7.285      1.729      2.976
REMARK INTER + INTRA:         -11.772
REMARK INTER:                 -10.524
REMARK INTRA:                  -1.248
REMARK UNBOUND:                -1.079
REMARK  Name = 
REMARK  9 active torsions:
REMARK  status: ('A' for Active; 'I' for Inactive)
REMARK    1  A    between atoms: C_1  and  O_2
REMARK    2  A    between atoms: O_2  and  C_3
REMARK    3  A    between atoms: C_10  and  C_11
REMARK    4  A    between atoms: N_13  and  C_14
REMARK    5  A    between atoms: C_14  and  C_15
REMARK    6  A    between atoms: C_18  and  C_19
REMARK    7  A    between atoms: C_19  and  N_20
REMARK    8  A    between atoms: N_20  and  C_21
REMARK    9  A    between atoms: C_21  and  C_22
REMARK                            x       y       z     vdW  Elec       q    Type
REMARK                         _______ _______ _______ _____ _____    ______ ____
ROOT
ATOM      1  C   UNL     1      47.466   3.885  15.287  0.00  0.00    +0.000 C 
ENDROOT
BRANCH   1   2
ATOM      2  C   UNL     1      46.770   4.314  14.018  0.00  0.00    +0.000 A 
ATOM      3  C   UNL     1      46.121   3.376  13.204  0.00  0.00    +0.000 A 
ATOM      4  C   UNL     1      45.443   3.782  12.047  0.00  0.00    +0.000 A 
ATOM      5  C   UNL     1      45.400   5.134  11.674  0.00  0.00    +0.000 A 
ATOM      6  C   UNL     1      46.087   6.062  12.468  0.00  0.00    +0.000 A 
ATOM      7  C   UNL     1      46.771   5.657  13.620  0.00  0.00    +0.000 A 
BRANCH   5   8
ATOM      8  C   UNL     1      44.638   5.584  10.443  0.00  0.00    +0.000 C 
BRANCH   8   9
ATOM      9  N   UNL     1      45.348   5.224   9.216  0.00  0.00    +0.000 NA
ATOM     10  H   UNL     1      46.300   4.948   9.460  0.00  0.00    +0.000 HD
BRANCH   9  11
ATOM     11  C   UNL     1      44.714   4.086   8.530  0.00  0.00    +0.000 C 
BRANCH  11  12
ATOM     12  C   UNL     1      45.737   3.180   7.863  0.00  0.00    +0.000 A 
ATOM     13  C   UNL     1      45.937   1.881   8.328  0.00  0.00    +0.000 A 
ATOM     14  C   UNL     1      46.865   1.067   7.689  0.00  0.00    +0.000 A 
ATOM     15  C   UNL     1      47.580   1.566   6.607  0.00  0.00    +0.000 A 
ATOM     16  C   UNL     1      47.333   2.869   6.212  0.00  0.00    +0.000 A 
ATOM     17  N   UNL     1      46.431   3.684   6.808  0.00  0.00    +0.000 NA
ENDBRANCH  11  12
ENDBRANCH   9  11
ENDBRANCH   8   9
ENDBRANCH   5   8
ENDBRANCH   1   2
BRANCH   1  20
ATOM     18  C   UNL     1      48.205   4.870  17.419  0.00  0.00    +0.000 C 
ATOM     19  O   UNL     1      48.912   3.897  17.665  0.00  0.00    +0.000 OA
ATOM     20  N   UNL     1      47.456   4.935  16.273  0.00  0.00    +0.000 N 
ATOM     21  H   UNL     1      46.805   5.694  16.138  0.00  0.00    +0.000 HD
BRANCH  18  29
ATOM     22  C   UNL     1      48.656   8.262  16.999  0.00  0.00    +0.000 A 
ATOM     23  N   UNL     1      48.859   9.588  17.138  0.00  0.00    +0.000 NA
ATOM     24  C   UNL     1      48.742  10.121  18.354  0.00  0.00    +0.000 A 
ATOM     25  N   UNL     1      48.437   9.483  19.479  0.00  0.00    +0.000 NA
ATOM     26  C   UNL     1      48.260   8.162  19.303  0.00  0.00    +0.000 A 
ATOM     27  S   UNL     1      47.848   7.193  20.634  0.00  0.00    +0.000 S 
ATOM     28  C   UNL     1      47.826   5.793  19.669  0.00  0.00    +0.000 A 
ATOM     29  C   UNL     1      48.136   6.024  18.333  0.00  0.00    +0.000 A 
ATOM     30  C   UNL     1      48.364   7.452  18.110  0.00  0.00    +0.000 A 
BRANCH  22  32
ATOM     31  C   UNL     1      50.025   7.378  15.315  0.00  0.00    +0.000 C 
ATOM     32  O   UNL     1      48.706   7.728  15.726  0.00  0.00    +0.000 OA
ENDBRANCH  22  32
ENDBRANCH  18  29
ENDBRANCH   1  20
TORSDOF 8
ENDMDL
MODEL 6
REMARK VINA RESULT:    -7.222      2.384      4.078
REMARK INTER + INTRA:         -11.679
REMARK INTER:                 -10.409
REMARK INTRA:                  -1.270
REMARK UNBOUND:                -1.079
REMARK  Name = 
REMARK  9 active torsions:
REMARK  status: ('A' for Active; 'I' for Inactive)
REMARK    1  A    between atoms: C_1  and  O_2
REMARK    2  A    between atoms: O_2  and  C_3
REMARK    3  A    between atoms: C_10  and  C_11
REMARK    4  A    between atoms: N_13  and  C_14
REMARK    5  A    between atoms: C_14  and  C_15
REMARK    6  A    between atoms: C_18  and  C_19
REMARK    7  A    between atoms: C_19  and  N_20
REMARK    8  A    between atoms: N_20  and  C_21
REMARK    9  A    between atoms: C_21  and  C_22
REMARK                            x       y       z     vdW  Elec       q    Type
REMARK                         _______ _______ _______ _____ _____    ______ ____
ROOT
ATOM      1  C   UNL     1      47.378   4.812  14.915  0.00  0.00    +0.000 C 
ENDROOT
BRANCH   1   2
ATOM      2  C   UNL     1      46.359   4.728  13.805  0.00  0.00    +0.000 A 
ATOM      3  C   UNL     1      45.712   5.880  13.338  0.00  0.00    +0.000 A 
ATOM      4  C   UNL     1      44.794   5.806  12.282  0.00  0.00    +0.000 A 
ATOM      5  C   UNL     1      44.499   4.578  11.669  0.00  0.00    +0.000 A 
ATOM      6  C   UNL     1      45.117   3.423  12.168  0.00  0.00    +0.000 A 
ATOM      7  C   UNL     1      46.028   3.495  13.229  0.00  0.00    +0.000 A 
BRANCH   5   8
ATOM      8  C   UNL     1      43.535   4.495  10.502  0.00  0.00    +0.000 C 
BRANCH   8   9
ATOM      9  N   UNL     1      43.951   3.475   9.540  0.00  0.00    +0.000 NA
ATOM     10  H   UNL     1      43.117   3.022   9.165  0.00  0.00    +0.000 HD
BRANCH   9  11
ATOM     11  C   UNL     1      44.690   4.058   8.409  0.00  0.00    +0.000 C 
BRANCH  11  12
ATOM     12  C   UNL     1      45.711   3.088   7.834  0.00  0.00    +0.000 A 
ATOM     13  C   UNL     1      46.553   3.487   6.797  0.00  0.00    +0.000 A 
ATOM     14  C   UNL     1      47.491   2.588   6.301  0.00  0.00    +0.000 A 
ATOM     15  C   UNL     1      47.564   1.310   6.843  0.00  0.00    +0.000 A 
ATOM     16  C   UNL     1      46.686   0.987   7.863  0.00  0.00    +0.000 A 
ATOM     17  N   UNL     1      45.768   1.842   8.372  0.00  0.00    +0.000 NA
ENDBRANCH  11  12
ENDBRANCH   9  11
ENDBRANCH   8   9
ENDBRANCH   5   8
ENDBRANCH   1   2
BRANCH   1  20
ATOM     18  C   UNL     1      49.107   6.367  15.724  0.00  0.00    +0.000 C 
ATOM     19  O   UNL     1      49.626   5.492  16.410  0.00  0.00    +0.000 OA
ATOM     20  N   UNL     1      47.993   6.114  14.967  0.00  0.00    +0.000 N 
ATOM     21  H   UNL     1      47.522   6.869  14.492  0.00  0.00    +0.000 HD
BRANCH  18  29
ATOM     22  C   UNL     1      50.209   8.374  13.146  0.00  0.00    +0.000 A 
ATOM     23  N   UNL     1      50.773   9.316  12.363  0.00  0.00    +0.000 NA
ATOM     24  C   UNL     1      51.239  10.423  12.940  0.00  0.00    +0.000 A 
ATOM     25  N   UNL     1      51.210  10.720  14.236  0.00  0.00    +0.000 NA
ATOM     26  C   UNL     1      50.657   9.750  14.985  0.00  0.00    +0.000 A 
ATOM     27  S   UNL     1      50.524   9.969  16.663  0.00  0.00    +0.000 S 
ATOM     28  C   UNL     1      49.807   8.439  16.854  0.00  0.00    +0.000 A 
ATOM     29  C   UNL     1      49.663   7.731  15.665  0.00  0.00    +0.000 A 
ATOM     30  C   UNL     1      50.143   8.535  14.541  0.00  0.00    +0.000 A 
BRANCH  22  32
ATOM     31  C   UNL     1      48.626   7.586  11.609  0.00  0.00    +0.000 C 
ATOM     32  O   UNL     1      49.662   7.264  12.534  0.00  0.00    +0.000 OA
ENDBRANCH  22  32
ENDBRANCH  18  29
ENDBRANCH   1  20
TORSDOF 8
ENDMDL
MODEL 7
REMARK VINA RESULT:    -7.189      2.273      3.155
REMARK INTER + INTRA:         -11.631
REMARK INTER:                 -10.675
REMARK INTRA:                  -0.955
REMARK UNBOUND:                -1.079
REMARK  Name = 
REMARK  9 active torsions:
REMARK  status: ('A' for Active; 'I' for Inactive)
REMARK    1  A    between atoms: C_1  and  O_2
REMARK    2  A    between atoms: O_2  and  C_3
REMARK    3  A    between atoms: C_10  and  C_11
REMARK    4  A    between atoms: N_13  and  C_14
REMARK    5  A    between atoms: C_14  and  C_15
REMARK    6  A    between atoms: C_18  and  C_19
REMARK    7  A    between atoms: C_19  and  N_20
REMARK    8  A    between atoms: N_20  and  C_21
REMARK    9  A    between atoms: C_21  and  C_22
REMARK                            x       y       z     vdW  Elec       q    Type
REMARK                         _______ _______ _______ _____ _____    ______ ____
ROOT
ATOM      1  C   UNL     1      48.666   7.850  15.570  0.00  0.00    +0.000 C 
ENDROOT
BRANCH   1   2
ATOM      2  C   UNL     1      47.927   7.391  14.337  0.00  0.00    +0.000 A 
ATOM      3  C   UNL     1      47.767   6.025  14.065  0.00  0.00    +0.000 A 
ATOM      4  C   UNL     1      47.047   5.600  12.940  0.00  0.00    +0.000 A 
ATOM      5  C   UNL     1      46.474   6.530  12.059  0.00  0.00    +0.000 A 
ATOM      6  C   UNL     1      46.673   7.894  12.312  0.00  0.00    +0.000 A 
ATOM      7  C   UNL     1      47.398   8.319  13.432  0.00  0.00    +0.000 A 
BRANCH   5   8
ATOM      8  C   UNL     1      45.663   6.077  10.860  0.00  0.00    +0.000 C 
BRANCH   8   9
ATOM      9  N   UNL     1      45.003   4.797  11.117  0.00  0.00    +0.000 NA
ATOM     10  H   UNL     1      44.333   4.924  11.877  0.00  0.00    +0.000 HD
BRANCH   9  11
ATOM     11  C   UNL     1      44.260   4.318   9.941  0.00  0.00    +0.000 C 
BRANCH  11  12
ATOM     12  C   UNL     1      45.157   3.572   8.966  0.00  0.00    +0.000 A 
ATOM     13  C   UNL     1      45.364   2.200   9.108  0.00  0.00    +0.000 A 
ATOM     14  C   UNL     1      46.173   1.537   8.193  0.00  0.00    +0.000 A 
ATOM     15  C   UNL     1      46.766   2.256   7.161  0.00  0.00    +0.000 A 
ATOM     16  C   UNL     1      46.521   3.616   7.094  0.00  0.00    +0.000 A 
ATOM     17  N   UNL     1      45.732   4.288   7.964  0.00  0.00    +0.000 NA
ENDBRANCH  11  12
ENDBRANCH   9  11
ENDBRANCH   8   9
ENDBRANCH   5   8
ENDBRANCH   1   2
BRANCH   1  20
ATOM     18  C   UNL     1      49.701   6.363  17.238  0.00  0.00    +0.000 C 
ATOM     19  O   UNL     1      48.890   6.699  18.095  0.00  0.00    +0.000 OA
ATOM     20  N   UNL     1      49.663   6.891  15.974  0.00  0.00    +0.000 N 
ATOM     21  H   UNL     1      50.398   6.681  15.316  0.00  0.00    +0.000 HD
BRANCH  18  29
ATOM     22  C   UNL     1      49.858   2.934  16.918  0.00  0.00    +0.000 A 
ATOM     23  N   UNL     1      50.159   1.621  16.979  0.00  0.00    +0.000 NA
ATOM     24  C   UNL     1      51.348   1.266  17.467  0.00  0.00    +0.000 A 
ATOM     25  N   UNL     1      52.302   2.079  17.911  0.00  0.00    +0.000 NA
ATOM     26  C   UNL     1      51.959   3.377  17.850  0.00  0.00    +0.000 A 
ATOM     27  S   UNL     1      53.066   4.556  18.363  0.00  0.00    +0.000 S 
ATOM     28  C   UNL     1      51.969   5.807  18.015  0.00  0.00    +0.000 A 
ATOM     29  C   UNL     1      50.749   5.364  17.517  0.00  0.00    +0.000 A 
ATOM     30  C   UNL     1      50.757   3.908  17.388  0.00  0.00    +0.000 A 
BRANCH  22  32
ATOM     31  C   UNL     1      47.561   3.248  17.253  0.00  0.00    +0.000 C 
ATOM     32  O   UNL     1      48.657   3.298  16.343  0.00  0.00    +0.000 OA
ENDBRANCH  22  32
ENDBRANCH  18  29
ENDBRANCH   1  20
TORSDOF 8
ENDMDL
MODEL 8
REMARK VINA RESULT:    -6.782      3.918      9.550
REMARK INTER + INTRA:         -11.034
REMARK INTER:                 -10.084
REMARK INTRA:                  -0.949
REMARK UNBOUND:                -1.079
REMARK  Name = 
REMARK  9 active torsions:
REMARK  status: ('A' for Active; 'I' for Inactive)
REMARK    1  A    between atoms: C_1  and  O_2
REMARK    2  A    between atoms: O_2  and  C_3
REMARK    3  A    between atoms: C_10  and  C_11
REMARK    4  A    between atoms: N_13  and  C_14
REMARK    5  A    between atoms: C_14  and  C_15
REMARK    6  A    between atoms: C_18  and  C_19
REMARK    7  A    between atoms: C_19  and  N_20
REMARK    8  A    between atoms: N_20  and  C_21
REMARK    9  A    between atoms: C_21  and  C_22
REMARK                            x       y       z     vdW  Elec       q    Type
REMARK                         _______ _______ _______ _____ _____    ______ ____
ROOT
ATOM      1  C   UNL     1      47.385   3.358  16.897  0.00  0.00    +0.000 C 
ENDROOT
BRANCH   1   2
ATOM      2  C   UNL     1      48.825   3.395  17.350  0.00  0.00    +0.000 A 
ATOM      3  C   UNL     1      49.698   2.340  17.051  0.00  0.00    +0.000 A 
ATOM      4  C   UNL     1      51.043   2.394  17.438  0.00  0.00    +0.000 A 
ATOM      5  C   UNL     1      51.547   3.502  18.137  0.00  0.00    +0.000 A 
ATOM      6  C   UNL     1      50.661   4.535  18.470  0.00  0.00    +0.000 A 
ATOM      7  C   UNL     1      49.314   4.478  18.090  0.00  0.00    +0.000 A 
BRANCH   5   8
ATOM      8  C   UNL     1      53.010   3.583  18.528  0.00  0.00    +0.000 C 
BRANCH   8   9
ATOM      9  N   UNL     1      53.384   2.486  19.420  0.00  0.00    +0.000 NA
ATOM     10  H   UNL     1      52.746   1.706  19.262  0.00  0.00    +0.000 HD
BRANCH   9  11
ATOM     11  C   UNL     1      54.751   2.007  19.157  0.00  0.00    +0.000 C 
BRANCH  11  12
ATOM     12  C   UNL     1      54.761   0.603  18.576  0.00  0.00    +0.000 A 
ATOM     13  C   UNL     1      54.897   0.411  17.202  0.00  0.00    +0.000 A 
ATOM     14  C   UNL     1      54.922  -0.884  16.697  0.00  0.00    +0.000 A 
ATOM     15  C   UNL     1      54.802  -1.960  17.569  0.00  0.00    +0.000 A 
ATOM     16  C   UNL     1      54.660  -1.686  18.919  0.00  0.00    +0.000 A 
ATOM     17  N   UNL     1      54.640  -0.438  19.442  0.00  0.00    +0.000 NA
ENDBRANCH  11  12
ENDBRANCH   9  11
ENDBRANCH   8   9
ENDBRANCH   5   8
ENDBRANCH   1   2
BRANCH   1  20
ATOM     18  C   UNL     1      47.059   4.266  14.631  0.00  0.00    +0.000 C 
ATOM     19  O   UNL     1      47.298   3.176  14.121  0.00  0.00    +0.000 OA
ATOM     20  N   UNL     1      47.091   4.438  15.990  0.00  0.00    +0.000 N 
ATOM     21  H   UNL     1      46.992   5.362  16.385  0.00  0.00    +0.000 HD
BRANCH  18  29
ATOM     22  C   UNL     1      44.339   5.073  12.672  0.00  0.00    +0.000 A 
ATOM     23  N   UNL     1      43.464   5.598  11.791  0.00  0.00    +0.000 NA
ATOM     24  C   UNL     1      43.757   6.773  11.233  0.00  0.00    +0.000 A 
ATOM     25  N   UNL     1      44.840   7.512  11.452  0.00  0.00    +0.000 NA
ATOM     26  C   UNL     1      45.695   6.948  12.322  0.00  0.00    +0.000 A 
ATOM     27  S   UNL     1      47.126   7.764  12.730  0.00  0.00    +0.000 S 
ATOM     28  C   UNL     1      47.608   6.502  13.762  0.00  0.00    +0.000 A 
ATOM     29  C   UNL     1      46.710   5.441  13.813  0.00  0.00    +0.000 A 
ATOM     30  C   UNL     1      45.548   5.726  12.973  0.00  0.00    +0.000 A 
BRANCH  22  32
ATOM     31  C   UNL     1      43.565   2.878  12.398  0.00  0.00    +0.000 C 
ATOM     32  O   UNL     1      43.996   3.893  13.302  0.00  0.00    +0.000 OA
ENDBRANCH  22  32
ENDBRANCH  18  29
ENDBRANCH   1  20
TORSDOF 8
ENDMDL
MODEL 9
REMARK VINA RESULT:    -6.641      1.563      2.020
REMARK INTER + INTRA:         -10.825
REMARK INTER:                  -9.508
REMARK INTRA:                  -1.317
REMARK UNBOUND:                -1.079
REMARK  Name = 
REMARK  9 active torsions:
REMARK  status: ('A' for Active; 'I' for Inactive)
REMARK    1  A    between atoms: C_1  and  O_2
REMARK    2  A    between atoms: O_2  and  C_3
REMARK    3  A    between atoms: C_10  and  C_11
REMARK    4  A    between atoms: N_13  and  C_14
REMARK    5  A    between atoms: C_14  and  C_15
REMARK    6  A    between atoms: C_18  and  C_19
REMARK    7  A    between atoms: C_19  and  N_20
REMARK    8  A    between atoms: N_20  and  C_21
REMARK    9  A    between atoms: C_21  and  C_22
REMARK                            x       y       z     vdW  Elec       q    Type
REMARK                         _______ _______ _______ _____ _____    ______ ____
ROOT
ATOM      1  C   UNL     1      49.206   8.038  14.091  0.00  0.00    +0.000 C 
ENDROOT
BRANCH   1   2
ATOM      2  C   UNL     1      47.893   7.484  13.594  0.00  0.00    +0.000 A 
ATOM      3  C   UNL     1      46.808   8.333  13.336  0.00  0.00    +0.000 A 
ATOM      4  C   UNL     1      45.603   7.822  12.838  0.00  0.00    +0.000 A 
ATOM      5  C   UNL     1      45.451   6.449  12.590  0.00  0.00    +0.000 A 
ATOM      6  C   UNL     1      46.524   5.599  12.888  0.00  0.00    +0.000 A 
ATOM      7  C   UNL     1      47.727   6.108  13.393  0.00  0.00    +0.000 A 
BRANCH   5   8
ATOM      8  C   UNL     1      44.162   5.893  12.017  0.00  0.00    +0.000 C 
BRANCH   8   9
ATOM      9  N   UNL     1      44.342   4.525  11.532  0.00  0.00    +0.000 NA
ATOM     10  H   UNL     1      43.839   3.891  12.153  0.00  0.00    +0.000 HD
BRANCH   9  11
ATOM     11  C   UNL     1      43.797   4.348  10.176  0.00  0.00    +0.000 C 
BRANCH  11  12
ATOM     12  C   UNL     1      44.771   3.625   9.260  0.00  0.00    +0.000 A 
ATOM     13  C   UNL     1      45.578   4.346   8.380  0.00  0.00    +0.000 A 
ATOM     14  C   UNL     1      46.474   3.663   7.566  0.00  0.00    +0.000 A 
ATOM     15  C   UNL     1      46.542   2.276   7.639  0.00  0.00    +0.000 A 
ATOM     16  C   UNL     1      45.700   1.633   8.529  0.00  0.00    +0.000 A 
ATOM     17  N   UNL     1      44.823   2.269   9.340  0.00  0.00    +0.000 NA
ENDBRANCH  11  12
ENDBRANCH   9  11
ENDBRANCH   8   9
ENDBRANCH   5   8
ENDBRANCH   1   2
BRANCH   1  20
ATOM     18  C   UNL     1      49.118   8.346  16.532  0.00  0.00    +0.000 C 
ATOM     19  O   UNL     1      48.549   9.426  16.412  0.00  0.00    +0.000 OA
ATOM     20  N   UNL     1      49.483   7.607  15.438  0.00  0.00    +0.000 N 
ATOM     21  H   UNL     1      50.039   6.773  15.553  0.00  0.00    +0.000 HD
BRANCH  18  29
ATOM     22  C   UNL     1      48.396   5.339  18.056  0.00  0.00    +0.000 A 
ATOM     23  N   UNL     1      48.188   4.313  18.907  0.00  0.00    +0.000 NA
ATOM     24  C   UNL     1      48.669   4.412  20.146  0.00  0.00    +0.000 A 
ATOM     25  N   UNL     1      49.353   5.430  20.658  0.00  0.00    +0.000 NA
ATOM     26  C   UNL     1      49.524   6.439  19.786  0.00  0.00    +0.000 A 
ATOM     27  S   UNL     1      50.391   7.817  20.268  0.00  0.00    +0.000 S 
ATOM     28  C   UNL     1      50.164   8.550  18.751  0.00  0.00    +0.000 A 
ATOM     29  C   UNL     1      49.426   7.780  17.858  0.00  0.00    +0.000 A 
ATOM     30  C   UNL     1      49.072   6.500  18.471  0.00  0.00    +0.000 A 
BRANCH  22  32
ATOM     31  C   UNL     1      47.727   3.843  16.381  0.00  0.00    +0.000 C 
ATOM     32  O   UNL     1      47.962   5.200  16.753  0.00  0.00    +0.000 OA
ENDBRANCH  22  32
ENDBRANCH  18  29
ENDBRANCH   1  20
TORSDOF 8
ENDMDL
