MODEL 1
REMARK VINA RESULT:    -8.792      0.000      0.000
REMARK INTER + INTRA:         -11.359
REMARK INTER:                 -10.848
REMARK INTRA:                  -0.511
REMARK UNBOUND:                -0.511
REMARK  Name = 
REMARK  5 active torsions:
REMARK  status: ('A' for Active; 'I' for Inactive)
REMARK    1  A    between atoms: C_1  and  C_2
REMARK    2  A    between atoms: C_2  and  N_3
REMARK    3  A    between atoms: C_2  and  C_13
REMARK    4  A    between atoms: C_7  and  C_8
REMARK    5  A    between atoms: C_16  and  C_17
REMARK                            x       y       z     vdW  Elec       q    Type
REMARK                         _______ _______ _______ _____ _____    ______ ____
ROOT
ATOM      1  N   UNL     1      43.772   4.901   9.714  0.00  0.00    +0.000 N 
ATOM      2  C   UNL     1      44.605   3.991   9.071  0.00  0.00    +0.000 A 
ATOM      3  N   UNL     1      44.740   2.740   9.534  0.00  0.00    +0.000 NA
ATOM      4  C   UNL     1      45.602   1.924   8.887  0.00  0.00    +0.000 A 
ATOM      5  C   UNL     1      46.316   2.301   7.777  0.00  0.00    +0.000 A 
ATOM      6  C   UNL     1      46.108   3.597   7.372  0.00  0.00    +0.000 A 
ATOM      7  N   UNL     1      45.264   4.454   7.998  0.00  0.00    +0.000 NA
ATOM      8  H   UNL     1      44.134   5.810   9.443  0.00  0.00    +0.000 HD
ENDROOT
BRANCH   5   9
ATOM      9  C   UNL     1      47.254   1.362   7.145  0.00  0.00    +0.000 C 
ATOM     10  N   UNL     1      48.367   1.870   6.536  0.00  0.00    +0.000 N 
ATOM     11  O   UNL     1      47.031   0.158   7.141  0.00  0.00    +0.000 OA
ATOM     12  H   UNL     1      48.488   2.846   6.303  0.00  0.00    +0.000 HD
ATOM     13  H   UNL     1      48.943   1.202   6.036  0.00  0.00    +0.000 HD
ENDBRANCH   5   9
BRANCH   1  15
ATOM     14  C   UNL     1      42.443   5.429  11.728  0.00  0.00    +0.000 C 
ATOM     15  C   UNL     1      43.674   4.707  11.163  0.00  0.00    +0.000 C 
BRANCH  15  16
ATOM     16  C   UNL     1      44.932   5.217  11.869  0.00  0.00    +0.000 A 
ATOM     17  C   UNL     1      45.615   6.350  11.422  0.00  0.00    +0.000 A 
ATOM     18  C   UNL     1      46.683   6.838  12.173  0.00  0.00    +0.000 A 
ATOM     19  C   UNL     1      47.064   6.184  13.346  0.00  0.00    +0.000 A 
ATOM     20  C   UNL     1      46.361   5.042  13.695  0.00  0.00    +0.000 A 
ATOM     21  N   UNL     1      45.319   4.549  12.987  0.00  0.00    +0.000 NA
BRANCH  19  22
ATOM     22  C   UNL     1      48.163   6.671  14.236  0.00  0.00    +0.000 C 
ATOM     23  F   UNL     1      49.374   6.743  13.616  0.00  0.00    +0.000 F 
ATOM     24  F   UNL     1      47.923   7.920  14.725  0.00  0.00    +0.000 F 
ATOM     25  F   UNL     1      48.349   5.876  15.326  0.00  0.00    +0.000 F 
ENDBRANCH  19  22
ENDBRANCH  15  16
ENDBRANCH   1  15
TORSDOF 4
ENDMDL
MODEL 2
REMARK VINA RESULT:    -7.961      4.538      7.008
REMARK INTER + INTRA:         -10.334
REMARK INTER:                  -9.800
REMARK INTRA:                  -0.534
REMARK UNBOUND:                -0.511
REMARK  Name = 
REMARK  5 active torsions:
REMARK  status: ('A' for Active; 'I' for Inactive)
REMARK    1  A    between atoms: C_1  and  C_2
REMARK    2  A    between atoms: C_2  and  N_3
REMARK    3  A    between atoms: C_2  and  C_13
REMARK    4  A    between atoms: C_7  and  C_8
REMARK    5  A    between atoms: C_16  and  C_17
REMARK                            x       y       z     vdW  Elec       q    Type
REMARK                         _______ _______ _______ _____ _____    ______ ____
ROOT
ATOM      1  N   UNL     1      45.164   4.294  12.050  0.00  0.00    +0.000 N 
ATOM      2  C   UNL     1      45.426   5.660  12.079  0.00  0.00    +0.000 A 
ATOM      3  N   UNL     1      44.477   6.547  11.749  0.00  0.00    +0.000 NA
ATOM      4  C   UNL     1      44.814   7.856  11.754  0.00  0.00    +0.000 A 
ATOM      5  C   UNL     1      46.059   8.318  12.103  0.00  0.00    +0.000 A 
ATOM      6  C   UNL     1      46.964   7.337  12.433  0.00  0.00    +0.000 A 
ATOM      7  N   UNL     1      46.673   6.013  12.428  0.00  0.00    +0.000 NA
ATOM      8  H   UNL     1      46.078   3.864  11.943  0.00  0.00    +0.000 HD
ENDROOT
BRANCH   5   9
ATOM      9  C   UNL     1      46.356   9.756  12.058  0.00  0.00    +0.000 C 
ATOM     10  N   UNL     1      45.328  10.636  12.255  0.00  0.00    +0.000 N 
ATOM     11  O   UNL     1      47.489  10.156  11.825  0.00  0.00    +0.000 OA
ATOM     12  H   UNL     1      44.352  10.381  12.219  0.00  0.00    +0.000 HD
ATOM     13  H   UNL     1      45.555  11.616  12.130  0.00  0.00    +0.000 HD
ENDBRANCH   5   9
BRANCH   1  15
ATOM     14  C   UNL     1      43.347   2.707  11.521  0.00  0.00    +0.000 C 
ATOM     15  C   UNL     1      44.193   3.889  11.030  0.00  0.00    +0.000 C 
BRANCH  15  16
ATOM     16  C   UNL     1      44.897   3.506   9.727  0.00  0.00    +0.000 A 
ATOM     17  C   UNL     1      45.342   4.473   8.822  0.00  0.00    +0.000 A 
ATOM     18  C   UNL     1      46.082   4.072   7.711  0.00  0.00    +0.000 A 
ATOM     19  C   UNL     1      46.355   2.718   7.510  0.00  0.00    +0.000 A 
ATOM     20  C   UNL     1      45.839   1.821   8.431  0.00  0.00    +0.000 A 
ATOM     21  N   UNL     1      45.122   2.183   9.519  0.00  0.00    +0.000 NA
BRANCH  19  22
ATOM     22  C   UNL     1      47.185   2.210   6.373  0.00  0.00    +0.000 C 
ATOM     23  F   UNL     1      46.904   2.811   5.183  0.00  0.00    +0.000 F 
ATOM     24  F   UNL     1      48.519   2.398   6.578  0.00  0.00    +0.000 F 
ATOM     25  F   UNL     1      47.027   0.874   6.163  0.00  0.00    +0.000 F 
ENDBRANCH  19  22
ENDBRANCH  15  16
ENDBRANCH   1  15
TORSDOF 4
ENDMDL
MODEL 3
REMARK VINA RESULT:    -7.437      4.253      6.827
REMARK INTER + INTRA:          -9.687
REMARK INTER:                 -10.370
REMARK INTRA:                   0.683
REMARK UNBOUND:                -0.511
REMARK  Name = 
REMARK  5 active torsions:
REMARK  status: ('A' for Active; 'I' for Inactive)
REMARK    1  A    between atoms: C_1  and  C_2
REMARK    2  A    between atoms: C_2  and  N_3
REMARK    3  A    between atoms: C_2  and  C_13
REMARK    4  A    between atoms: C_7  and  C_8
REMARK    5  A    between atoms: C_16  and  C_17
REMARK                            x       y       z     vdW  Elec       q    Type
REMARK                         _______ _______ _______ _____ _____    ______ ____
ROOT
ATOM      1  N   UNL     1      43.990   6.081  10.601  0.00  0.00    +0.000 N 
ATOM      2  C   UNL     1      45.036   6.360  11.475  0.00  0.00    +0.000 A 
ATOM      3  N   UNL     1      46.016   5.469  11.678  0.00  0.00    +0.000 NA
ATOM      4  C   UNL     1      46.975   5.787  12.576  0.00  0.00    +0.000 A 
ATOM      5  C   UNL     1      47.010   6.977  13.260  0.00  0.00    +0.000 A 
ATOM      6  C   UNL     1      45.969   7.830  12.981  0.00  0.00    +0.000 A 
ATOM      7  N   UNL     1      44.979   7.546  12.100  0.00  0.00    +0.000 NA
ATOM      8  H   UNL     1      43.233   6.682  10.913  0.00  0.00    +0.000 HD
ENDROOT
BRANCH   5   9
ATOM      9  C   UNL     1      48.073   7.238  14.240  0.00  0.00    +0.000 C 
ATOM     10  N   UNL     1      47.897   8.261  15.129  0.00  0.00    +0.000 N 
ATOM     11  O   UNL     1      49.101   6.574  14.243  0.00  0.00    +0.000 OA
ATOM     12  H   UNL     1      47.195   8.981  15.031  0.00  0.00    +0.000 HD
ATOM     13  H   UNL     1      48.688   8.467  15.730  0.00  0.00    +0.000 HD
ENDBRANCH   5   9
BRANCH   1  15
ATOM     14  C   UNL     1      43.644   4.022  11.920  0.00  0.00    +0.000 C 
ATOM     15  C   UNL     1      43.633   4.662  10.525  0.00  0.00    +0.000 C 
BRANCH  15  16
ATOM     16  C   UNL     1      44.595   3.904   9.609  0.00  0.00    +0.000 A 
ATOM     17  C   UNL     1      44.765   2.521   9.707  0.00  0.00    +0.000 A 
ATOM     18  C   UNL     1      45.562   1.867   8.769  0.00  0.00    +0.000 A 
ATOM     19  C   UNL     1      46.189   2.600   7.759  0.00  0.00    +0.000 A 
ATOM     20  C   UNL     1      46.003   3.973   7.759  0.00  0.00    +0.000 A 
ATOM     21  N   UNL     1      45.232   4.632   8.654  0.00  0.00    +0.000 NA
BRANCH  19  22
ATOM     22  C   UNL     1      47.017   1.970   6.684  0.00  0.00    +0.000 C 
ATOM     23  F   UNL     1      46.829   0.625   6.571  0.00  0.00    +0.000 F 
ATOM     24  F   UNL     1      46.751   2.486   5.451  0.00  0.00    +0.000 F 
ATOM     25  F   UNL     1      48.353   2.145   6.879  0.00  0.00    +0.000 F 
ENDBRANCH  19  22
ENDBRANCH  15  16
ENDBRANCH   1  15
TORSDOF 4
ENDMDL
MODEL 4
REMARK VINA RESULT:    -6.581      4.551      6.847
REMARK INTER + INTRA:          -8.631
REMARK INTER:                  -8.055
REMARK INTRA:                  -0.575
REMARK UNBOUND:                -0.511
REMARK  Name = 
REMARK  5 active torsions:
REMARK  status: ('A' for Active; 'I' for Inactive)
REMARK    1  A    between atoms: C_1  and  C_2
REMARK    2  A    between atoms: C_2  and  N_3
REMARK    3  A    between atoms: C_2  and  C_13
REMARK    4  A    between atoms: C_7  and  C_8
REMARK    5  A    between atoms: C_16  and  C_17
REMARK                            x       y       z     vdW  Elec       q    Type
REMARK                         _______ _______ _______ _____ _____    ______ ____
ROOT
ATOM      1  N   UNL     1      45.494   4.801  13.134  0.00  0.00    +0.000 N 
ATOM      2  C   UNL     1      46.368   5.883  13.152  0.00  0.00    +0.000 A 
ATOM      3  N   UNL     1      45.939   7.116  12.853  0.00  0.00    +0.000 NA
ATOM      4  C   UNL     1      46.853   8.112  12.845  0.00  0.00    +0.000 A 
ATOM      5  C   UNL     1      48.178   7.928  13.151  0.00  0.00    +0.000 A 
ATOM      6  C   UNL     1      48.524   6.633  13.451  0.00  0.00    +0.000 A 
ATOM      7  N   UNL     1      47.644   5.602  13.458  0.00  0.00    +0.000 NA
ATOM      8  H   UNL     1      46.094   3.993  12.997  0.00  0.00    +0.000 HD
ENDROOT
BRANCH   5   9
ATOM      9  C   UNL     1      49.116   9.058  13.095  0.00  0.00    +0.000 C 
ATOM     10  N   UNL     1      49.930   9.171  12.002  0.00  0.00    +0.000 N 
ATOM     11  O   UNL     1      49.185   9.863  14.014  0.00  0.00    +0.000 OA
ATOM     12  H   UNL     1      50.086   8.428  11.335  0.00  0.00    +0.000 HD
ATOM     13  H   UNL     1      50.623   9.910  12.040  0.00  0.00    +0.000 HD
ENDBRANCH   5   9
BRANCH   1  15
ATOM     14  C   UNL     1      43.165   4.159  12.616  0.00  0.00    +0.000 C 
ATOM     15  C   UNL     1      44.416   4.916  12.148  0.00  0.00    +0.000 C 
BRANCH  15  16
ATOM     16  C   UNL     1      44.859   4.374  10.787  0.00  0.00    +0.000 A 
ATOM     17  C   UNL     1      45.384   5.211   9.801  0.00  0.00    +0.000 A 
ATOM     18  C   UNL     1      45.883   4.647   8.627  0.00  0.00    +0.000 A 
ATOM     19  C   UNL     1      45.838   3.264   8.448  0.00  0.00    +0.000 A 
ATOM     20  C   UNL     1      45.262   2.509   9.457  0.00  0.00    +0.000 A 
ATOM     21  N   UNL     1      44.774   3.030  10.607  0.00  0.00    +0.000 NA
BRANCH  19  22
ATOM     22  C   UNL     1      46.399   2.575   7.244  0.00  0.00    +0.000 C 
ATOM     23  F   UNL     1      45.723   2.854   6.094  0.00  0.00    +0.000 F 
ATOM     24  F   UNL     1      47.696   2.918   7.004  0.00  0.00    +0.000 F 
ATOM     25  F   UNL     1      46.390   1.219   7.362  0.00  0.00    +0.000 F 
ENDBRANCH  19  22
ENDBRANCH  15  16
ENDBRANCH   1  15
TORSDOF 4
ENDMDL
MODEL 5
REMARK VINA RESULT:    -6.304      4.745      6.808
REMARK INTER + INTRA:          -8.289
REMARK INTER:                  -7.854
REMARK INTRA:                  -0.435
REMARK UNBOUND:                -0.511
REMARK  Name = 
REMARK  5 active torsions:
REMARK  status: ('A' for Active; 'I' for Inactive)
REMARK    1  A    between atoms: C_1  and  C_2
REMARK    2  A    between atoms: C_2  and  N_3
REMARK    3  A    between atoms: C_2  and  C_13
REMARK    4  A    between atoms: C_7  and  C_8
REMARK    5  A    between atoms: C_16  and  C_17
REMARK                            x       y       z     vdW  Elec       q    Type
REMARK                         _______ _______ _______ _____ _____    ______ ____
ROOT
ATOM      1  N   UNL     1      47.582   4.939  15.783  0.00  0.00    +0.000 N 
ATOM      2  C   UNL     1      46.957   5.083  14.548  0.00  0.00    +0.000 A 
ATOM      3  N   UNL     1      46.008   4.222  14.156  0.00  0.00    +0.000 NA
ATOM      4  C   UNL     1      45.476   4.394  12.925  0.00  0.00    +0.000 A 
ATOM      5  C   UNL     1      45.838   5.413  12.078  0.00  0.00    +0.000 A 
ATOM      6  C   UNL     1      46.812   6.249  12.568  0.00  0.00    +0.000 A 
ATOM      7  N   UNL     1      47.382   6.105  13.790  0.00  0.00    +0.000 NA
ATOM      8  H   UNL     1      48.470   5.419  15.673  0.00  0.00    +0.000 HD
ENDROOT
BRANCH   5   9
ATOM      9  C   UNL     1      45.232   5.517  10.744  0.00  0.00    +0.000 C 
ATOM     10  N   UNL     1      43.868   5.502  10.649  0.00  0.00    +0.000 N 
ATOM     11  O   UNL     1      45.930   5.590   9.741  0.00  0.00    +0.000 OA
ATOM     12  H   UNL     1      43.253   5.214  11.397  0.00  0.00    +0.000 HD
ATOM     13  H   UNL     1      43.490   5.487   9.708  0.00  0.00    +0.000 HD
ENDBRANCH   5   9
BRANCH   1  15
ATOM     14  C   UNL     1      46.753   3.271  17.405  0.00  0.00    +0.000 C 
ATOM     15  C   UNL     1      47.707   3.551  16.236  0.00  0.00    +0.000 C 
BRANCH  15  16
ATOM     16  C   UNL     1      49.143   3.243  16.663  0.00  0.00    +0.000 A 
ATOM     17  C   UNL     1      49.934   4.193  17.313  0.00  0.00    +0.000 A 
ATOM     18  C   UNL     1      51.191   3.819  17.787  0.00  0.00    +0.000 A 
ATOM     19  C   UNL     1      51.646   2.513  17.594  0.00  0.00    +0.000 A 
ATOM     20  C   UNL     1      50.817   1.646  16.901  0.00  0.00    +0.000 A 
ATOM     21  N   UNL     1      49.592   1.981  16.434  0.00  0.00    +0.000 NA
BRANCH  19  22
ATOM     22  C   UNL     1      52.957   2.017  18.116  0.00  0.00    +0.000 C 
ATOM     23  F   UNL     1      53.266   2.496  19.353  0.00  0.00    +0.000 F 
ATOM     24  F   UNL     1      52.996   0.659  18.224  0.00  0.00    +0.000 F 
ATOM     25  F   UNL     1      54.004   2.355  17.313  0.00  0.00    +0.000 F 
ENDBRANCH  19  22
ENDBRANCH  15  16
ENDBRANCH   1  15
TORSDOF 4
ENDMDL
MODEL 6
REMARK VINA RESULT:    -6.243      4.875      7.607
REMARK INTER + INTRA:          -8.214
REMARK INTER:                  -7.760
REMARK INTRA:                  -0.455
REMARK UNBOUND:                -0.511
REMARK  Name = 
REMARK  5 active torsions:
REMARK  status: ('A' for Active; 'I' for Inactive)
REMARK    1  A    between atoms: C_1  and  C_2
REMARK    2  A    between atoms: C_2  and  N_3
REMARK    3  A    between atoms: C_2  and  C_13
REMARK    4  A    between atoms: C_7  and  C_8
REMARK    5  A    between atoms: C_16  and  C_17
REMARK                            x       y       z     vdW  Elec       q    Type
REMARK                         _______ _______ _______ _____ _____    ______ ____
ROOT
ATOM      1  N   UNL     1      46.098   5.059  14.373  0.00  0.00    +0.000 N 
ATOM      2  C   UNL     1      47.105   4.770  15.288  0.00  0.00    +0.000 A 
ATOM      3  N   UNL     1      48.145   5.600  15.448  0.00  0.00    +0.000 NA
ATOM      4  C   UNL     1      49.110   5.233  16.320  0.00  0.00    +0.000 A 
ATOM      5  C   UNL     1      49.065   4.077  17.061  0.00  0.00    +0.000 A 
ATOM      6  C   UNL     1      47.959   3.293  16.835  0.00  0.00    +0.000 A 
ATOM      7  N   UNL     1      46.974   3.616  15.960  0.00  0.00    +0.000 NA
ATOM      8  H   UNL     1      45.684   4.157  14.158  0.00  0.00    +0.000 HD
ENDROOT
BRANCH   5   9
ATOM      9  C   UNL     1      50.167   3.735  17.969  0.00  0.00    +0.000 C 
ATOM     10  N   UNL     1      50.109   4.188  19.258  0.00  0.00    +0.000 N 
ATOM     11  O   UNL     1      51.127   3.084  17.576  0.00  0.00    +0.000 OA
ATOM     12  H   UNL     1      49.478   4.910  19.575  0.00  0.00    +0.000 HD
ATOM     13  H   UNL     1      50.928   4.007  19.828  0.00  0.00    +0.000 HD
ENDBRANCH   5   9
BRANCH   1  15
ATOM     14  C   UNL     1      46.106   7.270  13.270  0.00  0.00    +0.000 C 
ATOM     15  C   UNL     1      46.551   5.803  13.195  0.00  0.00    +0.000 C 
BRANCH  15  16
ATOM     16  C   UNL     1      46.012   5.171  11.909  0.00  0.00    +0.000 A 
ATOM     17  C   UNL     1      46.061   5.843  10.686  0.00  0.00    +0.000 A 
ATOM     18  C   UNL     1      45.666   5.174   9.529  0.00  0.00    +0.000 A 
ATOM     19  C   UNL     1      45.215   3.856   9.608  0.00  0.00    +0.000 A 
ATOM     20  C   UNL     1      45.156   3.278  10.866  0.00  0.00    +0.000 A 
ATOM     21  N   UNL     1      45.536   3.902  12.004  0.00  0.00    +0.000 NA
BRANCH  19  22
ATOM     22  C   UNL     1      44.823   3.051   8.410  0.00  0.00    +0.000 C 
ATOM     23  F   UNL     1      44.041   1.976   8.709  0.00  0.00    +0.000 F 
ATOM     24  F   UNL     1      44.117   3.780   7.500  0.00  0.00    +0.000 F 
ATOM     25  F   UNL     1      45.897   2.555   7.735  0.00  0.00    +0.000 F 
ENDBRANCH  19  22
ENDBRANCH  15  16
ENDBRANCH   1  15
TORSDOF 4
ENDMDL
MODEL 7
REMARK VINA RESULT:    -6.074      5.462      8.280
REMARK INTER + INTRA:          -8.006
REMARK INTER:                  -7.676
REMARK INTRA:                  -0.330
REMARK UNBOUND:                -0.511
REMARK  Name = 
REMARK  5 active torsions:
REMARK  status: ('A' for Active; 'I' for Inactive)
REMARK    1  A    between atoms: C_1  and  C_2
REMARK    2  A    between atoms: C_2  and  N_3
REMARK    3  A    between atoms: C_2  and  C_13
REMARK    4  A    between atoms: C_7  and  C_8
REMARK    5  A    between atoms: C_16  and  C_17
REMARK                            x       y       z     vdW  Elec       q    Type
REMARK                         _______ _______ _______ _____ _____    ______ ____
ROOT
ATOM      1  N   UNL     1      47.495   5.527  15.675  0.00  0.00    +0.000 N 
ATOM      2  C   UNL     1      48.597   5.216  16.466  0.00  0.00    +0.000 A 
ATOM      3  N   UNL     1      49.778   5.815  16.261  0.00  0.00    +0.000 NA
ATOM      4  C   UNL     1      50.817   5.432  17.036  0.00  0.00    +0.000 A 
ATOM      5  C   UNL     1      50.716   4.489  18.029  0.00  0.00    +0.000 A 
ATOM      6  C   UNL     1      49.466   3.936  18.170  0.00  0.00    +0.000 A 
ATOM      7  N   UNL     1      48.400   4.280  17.407  0.00  0.00    +0.000 NA
ATOM      8  H   UNL     1      46.894   4.711  15.749  0.00  0.00    +0.000 HD
ENDROOT
BRANCH   5   9
ATOM      9  C   UNL     1      51.899   4.107  18.811  0.00  0.00    +0.000 C 
ATOM     10  N   UNL     1      52.387   2.838  18.671  0.00  0.00    +0.000 N 
ATOM     11  O   UNL     1      52.419   4.897  19.589  0.00  0.00    +0.000 OA
ATOM     12  H   UNL     1      51.877   2.082  18.236  0.00  0.00    +0.000 HD
ATOM     13  H   UNL     1      53.148   2.585  19.291  0.00  0.00    +0.000 HD
ENDBRANCH   5   9
BRANCH   1  15
ATOM     14  C   UNL     1      47.876   7.424  14.140  0.00  0.00    +0.000 C 
ATOM     15  C   UNL     1      47.828   5.898  14.298  0.00  0.00    +0.000 C 
BRANCH  15  16
ATOM     16  C   UNL     1      46.812   5.316  13.313  0.00  0.00    +0.000 A 
ATOM     17  C   UNL     1      46.399   6.024  12.183  0.00  0.00    +0.000 A 
ATOM     18  C   UNL     1      45.564   5.397  11.258  0.00  0.00    +0.000 A 
ATOM     19  C   UNL     1      45.143   4.085  11.480  0.00  0.00    +0.000 A 
ATOM     20  C   UNL     1      45.564   3.470  12.648  0.00  0.00    +0.000 A 
ATOM     21  N   UNL     1      46.376   4.053  13.559  0.00  0.00    +0.000 NA
BRANCH  19  22
ATOM     22  C   UNL     1      44.291   3.324  10.514  0.00  0.00    +0.000 C 
ATOM     23  F   UNL     1      43.734   4.105   9.547  0.00  0.00    +0.000 F 
ATOM     24  F   UNL     1      44.989   2.358   9.852  0.00  0.00    +0.000 F 
ATOM     25  F   UNL     1      43.254   2.683  11.120  0.00  0.00    +0.000 F 
ENDBRANCH  19  22
ENDBRANCH  15  16
ENDBRANCH   1  15
TORSDOF 4
ENDMDL
MODEL 8
REMARK VINA RESULT:    -5.937      5.493      8.398
REMARK INTER + INTRA:          -7.836
REMARK INTER:                  -7.238
REMARK INTRA:                  -0.598
REMARK UNBOUND:                -0.511
REMARK  Name = 
REMARK  5 active torsions:
REMARK  status: ('A' for Active; 'I' for Inactive)
REMARK    1  A    between atoms: C_1  and  C_2
REMARK    2  A    between atoms: C_2  and  N_3
REMARK    3  A    between atoms: C_2  and  C_13
REMARK    4  A    between atoms: C_7  and  C_8
REMARK    5  A    between atoms: C_16  and  C_17
REMARK                            x       y       z     vdW  Elec       q    Type
REMARK                         _______ _______ _______ _____ _____    ______ ____
ROOT
ATOM      1  N   UNL     1      48.547   7.425  15.078  0.00  0.00    +0.000 N 
ATOM      2  C   UNL     1      48.799   6.732  16.258  0.00  0.00    +0.000 A 
ATOM      3  N   UNL     1      49.576   5.641  16.260  0.00  0.00    +0.000 NA
ATOM      4  C   UNL     1      49.740   4.991  17.434  0.00  0.00    +0.000 A 
ATOM      5  C   UNL     1      49.178   5.406  18.616  0.00  0.00    +0.000 A 
ATOM      6  C   UNL     1      48.404   6.537  18.518  0.00  0.00    +0.000 A 
ATOM      7  N   UNL     1      48.201   7.212  17.360  0.00  0.00    +0.000 NA
ATOM      8  H   UNL     1      47.676   7.916  15.255  0.00  0.00    +0.000 HD
ENDROOT
BRANCH   5   9
ATOM      9  C   UNL     1      49.383   4.630  19.847  0.00  0.00    +0.000 C 
ATOM     10  N   UNL     1      48.502   3.624  20.132  0.00  0.00    +0.000 N 
ATOM     11  O   UNL     1      50.302   4.895  20.610  0.00  0.00    +0.000 OA
ATOM     12  H   UNL     1      47.607   3.511  19.677  0.00  0.00    +0.000 HD
ATOM     13  H   UNL     1      48.624   3.171  21.031  0.00  0.00    +0.000 HD
ENDBRANCH   5   9
BRANCH   1  15
ATOM     14  C   UNL     1      49.208   7.287  12.702  0.00  0.00    +0.000 C 
ATOM     15  C   UNL     1      48.522   6.581  13.880  0.00  0.00    +0.000 C 
BRANCH  15  16
ATOM     16  C   UNL     1      47.085   6.224  13.493  0.00  0.00    +0.000 A 
ATOM     17  C   UNL     1      46.244   7.146  12.867  0.00  0.00    +0.000 A 
ATOM     18  C   UNL     1      44.987   6.729  12.429  0.00  0.00    +0.000 A 
ATOM     19  C   UNL     1      44.584   5.409  12.634  0.00  0.00    +0.000 A 
ATOM     20  C   UNL     1      45.462   4.570  13.301  0.00  0.00    +0.000 A 
ATOM     21  N   UNL     1      46.687   4.947  13.733  0.00  0.00    +0.000 NA
BRANCH  19  22
ATOM     22  C   UNL     1      43.276   4.868  12.149  0.00  0.00    +0.000 C 
ATOM     23  F   UNL     1      43.096   5.002  10.805  0.00  0.00    +0.000 F 
ATOM     24  F   UNL     1      43.132   3.538  12.411  0.00  0.00    +0.000 F 
ATOM     25  F   UNL     1      42.207   5.478  12.731  0.00  0.00    +0.000 F 
ENDBRANCH  19  22
ENDBRANCH  15  16
ENDBRANCH   1  15
TORSDOF 4
ENDMDL
