MODEL 1
REMARK VINA RESULT:    -7.672      0.000      0.000
REMARK INTER + INTRA:         -11.575
REMARK INTER:                 -10.364
REMARK INTRA:                  -1.211
REMARK UNBOUND:                -1.211
REMARK  Name = 
REMARK  7 active torsions:
REMARK  status: ('A' for Active; 'I' for Inactive)
REMARK    1  A    between atoms: C_1  and  O_2
REMARK    2  A    between atoms: O_2  and  C_3
REMARK    3  A    between atoms: C_5  and  C_6
REMARK    4  A    between atoms: C_11  and  N_12
REMARK    5  A    between atoms: N_12  and  C_13
REMARK    6  A    between atoms: C_13  and  C_14
REMARK    7  A    between atoms: C_18  and  C_19
REMARK                            x       y       z     vdW  Elec       q    Type
REMARK                         _______ _______ _______ _____ _____    ______ ____
ROOT
ATOM      1  N   UNL     1      44.296   6.661  12.594  0.00  0.00    +0.000 N 
ATOM      2  H   UNL     1      44.049   6.043  13.361  0.00  0.00    +0.000 HD
ENDROOT
BRANCH   1   8
ATOM      3  C   UNL     1      46.537   5.991  13.258  0.00  0.00    +0.000 A 
ATOM      4  C   UNL     1      47.904   6.282  13.314  0.00  0.00    +0.000 A 
ATOM      5  C   UNL     1      48.392   7.466  12.763  0.00  0.00    +0.000 A 
ATOM      6  C   UNL     1      47.477   8.306  12.157  0.00  0.00    +0.000 A 
ATOM      7  N   UNL     1      46.149   8.050  12.073  0.00  0.00    +0.000 NA
ATOM      8  C   UNL     1      45.678   6.897  12.601  0.00  0.00    +0.000 A 
BRANCH   5   9
ATOM      9  C   UNL     1      49.839   7.771  12.878  0.00  0.00    +0.000 C 
ATOM     10  N   UNL     1      50.682   7.397  11.869  0.00  0.00    +0.000 N 
ATOM     11  O   UNL     1      50.283   8.359  13.859  0.00  0.00    +0.000 OA
ATOM     12  H   UNL     1      50.424   6.933  11.015  0.00  0.00    +0.000 HD
ATOM     13  H   UNL     1      51.658   7.649  11.988  0.00  0.00    +0.000 HD
ENDBRANCH   5   9
BRANCH   3  15
ATOM     14  C   UNL     1      46.544   3.619  13.322  0.00  0.00    +0.000 C 
ATOM     15  O   UNL     1      45.981   4.846  13.785  0.00  0.00    +0.000 OA
ENDBRANCH   3  15
ENDBRANCH   1   8
BRANCH   1  16
ATOM     16  C   UNL     1      43.679   6.310  11.322  0.00  0.00    +0.000 C 
BRANCH  16  17
ATOM     17  C   UNL     1      43.870   4.853  10.957  0.00  0.00    +0.000 A 
ATOM     18  C   UNL     1      43.193   3.848  11.657  0.00  0.00    +0.000 A 
ATOM     19  C   UNL     1      43.376   2.508  11.322  0.00  0.00    +0.000 A 
ATOM     20  C   UNL     1      44.225   2.159  10.273  0.00  0.00    +0.000 A 
ATOM     21  C   UNL     1      44.909   3.137   9.529  0.00  0.00    +0.000 A 
ATOM     22  C   UNL     1      44.723   4.484   9.902  0.00  0.00    +0.000 A 
BRANCH  21  23
ATOM     23  C   UNL     1      45.754   2.775   8.372  0.00  0.00    +0.000 A 
ATOM     24  C   UNL     1      46.052   3.678   7.342  0.00  0.00    +0.000 A 
ATOM     25  C   UNL     1      46.801   3.273   6.236  0.00  0.00    +0.000 A 
ATOM     26  C   UNL     1      47.256   1.968   6.191  0.00  0.00    +0.000 A 
ATOM     27  N   UNL     1      47.016   1.063   7.159  0.00  0.00    +0.000 NA
ATOM     28  C   UNL     1      46.273   1.486   8.212  0.00  0.00    +0.000 A 
ENDBRANCH  21  23
ENDBRANCH  16  17
ENDBRANCH   1  16
TORSDOF 6
ENDMDL
MODEL 2
REMARK VINA RESULT:    -7.461      2.560      6.598
REMARK INTER + INTRA:         -11.289
REMARK INTER:                 -10.619
REMARK INTRA:                  -0.670
REMARK UNBOUND:                -1.211
REMARK  Name = 
REMARK  7 active torsions:
REMARK  status: ('A' for Active; 'I' for Inactive)
REMARK    1  A    between atoms: C_1  and  O_2
REMARK    2  A    between atoms: O_2  and  C_3
REMARK    3  A    between atoms: C_5  and  C_6
REMARK    4  A    between atoms: C_11  and  N_12
REMARK    5  A    between atoms: N_12  and  C_13
REMARK    6  A    between atoms: C_13  and  C_14
REMARK    7  A    between atoms: C_18  and  C_19
REMARK                            x       y       z     vdW  Elec       q    Type
REMARK                         _______ _______ _______ _____ _____    ______ ____
ROOT
ATOM      1  N   UNL     1      43.876   5.423  10.272  0.00  0.00    +0.000 N 
ATOM      2  H   UNL     1      42.992   5.630   9.817  0.00  0.00    +0.000 HD
ENDROOT
BRANCH   1   8
ATOM      3  C   UNL     1      44.271   3.055   9.888  0.00  0.00    +0.000 A 
ATOM      4  C   UNL     1      44.998   2.056   9.233  0.00  0.00    +0.000 A 
ATOM      5  C   UNL     1      45.995   2.398   8.320  0.00  0.00    +0.000 A 
ATOM      6  C   UNL     1      46.207   3.744   8.091  0.00  0.00    +0.000 A 
ATOM      7  N   UNL     1      45.514   4.738   8.697  0.00  0.00    +0.000 NA
ATOM      8  C   UNL     1      44.541   4.404   9.577  0.00  0.00    +0.000 A 
BRANCH   5   9
ATOM      9  C   UNL     1      46.781   1.319   7.675  0.00  0.00    +0.000 C 
ATOM     10  N   UNL     1      47.810   1.651   6.840  0.00  0.00    +0.000 N 
ATOM     11  O   UNL     1      46.525   0.138   7.889  0.00  0.00    +0.000 OA
ATOM     12  H   UNL     1      48.120   2.580   6.613  0.00  0.00    +0.000 HD
ATOM     13  H   UNL     1      48.330   0.875   6.442  0.00  0.00    +0.000 HD
ENDBRANCH   5   9
BRANCH   3  15
ATOM     14  C   UNL     1      43.726   2.481  12.125  0.00  0.00    +0.000 C 
ATOM     15  O   UNL     1      43.277   2.795  10.807  0.00  0.00    +0.000 OA
ENDBRANCH   3  15
ENDBRANCH   1   8
BRANCH   1  16
ATOM     16  C   UNL     1      44.649   6.603  10.640  0.00  0.00    +0.000 C 
BRANCH  16  17
ATOM     17  C   UNL     1      45.671   6.324  11.722  0.00  0.00    +0.000 A 
ATOM     18  C   UNL     1      45.402   5.398  12.736  0.00  0.00    +0.000 A 
ATOM     19  C   UNL     1      46.343   5.148  13.732  0.00  0.00    +0.000 A 
ATOM     20  C   UNL     1      47.570   5.810  13.716  0.00  0.00    +0.000 A 
ATOM     21  C   UNL     1      47.891   6.732  12.704  0.00  0.00    +0.000 A 
ATOM     22  C   UNL     1      46.913   6.982  11.721  0.00  0.00    +0.000 A 
BRANCH  21  23
ATOM     23  C   UNL     1      49.217   7.381  12.645  0.00  0.00    +0.000 A 
ATOM     24  C   UNL     1      49.865   7.669  11.435  0.00  0.00    +0.000 A 
ATOM     25  C   UNL     1      51.145   8.224  11.428  0.00  0.00    +0.000 A 
ATOM     26  C   UNL     1      51.750   8.500  12.641  0.00  0.00    +0.000 A 
ATOM     27  N   UNL     1      51.169   8.263  13.832  0.00  0.00    +0.000 NA
ATOM     28  C   UNL     1      49.930   7.710  13.802  0.00  0.00    +0.000 A 
ENDBRANCH  21  23
ENDBRANCH  16  17
ENDBRANCH   1  16
TORSDOF 6
ENDMDL
MODEL 3
REMARK VINA RESULT:    -7.166      1.255      1.933
REMARK INTER + INTRA:         -10.890
REMARK INTER:                 -10.092
REMARK INTRA:                  -0.798
REMARK UNBOUND:                -1.211
REMARK  Name = 
REMARK  7 active torsions:
REMARK  status: ('A' for Active; 'I' for Inactive)
REMARK    1  A    between atoms: C_1  and  O_2
REMARK    2  A    between atoms: O_2  and  C_3
REMARK    3  A    between atoms: C_5  and  C_6
REMARK    4  A    between atoms: C_11  and  N_12
REMARK    5  A    between atoms: N_12  and  C_13
REMARK    6  A    between atoms: C_13  and  C_14
REMARK    7  A    between atoms: C_18  and  C_19
REMARK                            x       y       z     vdW  Elec       q    Type
REMARK                         _______ _______ _______ _____ _____    ______ ____
ROOT
ATOM      1  N   UNL     1      44.471   6.562  12.587  0.00  0.00    +0.000 N 
ATOM      2  H   UNL     1      44.241   5.845  13.268  0.00  0.00    +0.000 HD
ENDROOT
BRANCH   1   8
ATOM      3  C   UNL     1      46.199   8.271  12.623  0.00  0.00    +0.000 A 
ATOM      4  C   UNL     1      47.560   8.595  12.671  0.00  0.00    +0.000 A 
ATOM      5  C   UNL     1      48.517   7.586  12.760  0.00  0.00    +0.000 A 
ATOM      6  C   UNL     1      48.061   6.283  12.815  0.00  0.00    +0.000 A 
ATOM      7  N   UNL     1      46.751   5.934  12.783  0.00  0.00    +0.000 NA
ATOM      8  C   UNL     1      45.823   6.914  12.705  0.00  0.00    +0.000 A 
BRANCH   5   9
ATOM      9  C   UNL     1      49.953   7.955  12.764  0.00  0.00    +0.000 C 
ATOM     10  N   UNL     1      50.767   7.477  11.775  0.00  0.00    +0.000 N 
ATOM     11  O   UNL     1      50.414   8.687  13.634  0.00  0.00    +0.000 OA
ATOM     12  H   UNL     1      50.493   6.893  11.005  0.00  0.00    +0.000 HD
ATOM     13  H   UNL     1      51.737   7.779  11.811  0.00  0.00    +0.000 HD
ENDBRANCH   5   9
BRANCH   3  15
ATOM     14  C   UNL     1      45.551  10.422  11.859  0.00  0.00    +0.000 C 
ATOM     15  O   UNL     1      45.197   9.212  12.528  0.00  0.00    +0.000 OA
ENDBRANCH   3  15
ENDBRANCH   1   8
BRANCH   1  16
ATOM     16  C   UNL     1      43.959   6.301  11.248  0.00  0.00    +0.000 C 
BRANCH  16  17
ATOM     17  C   UNL     1      44.069   4.844  10.849  0.00  0.00    +0.000 A 
ATOM     18  C   UNL     1      43.335   3.862  11.526  0.00  0.00    +0.000 A 
ATOM     19  C   UNL     1      43.444   2.522  11.160  0.00  0.00    +0.000 A 
ATOM     20  C   UNL     1      44.274   2.151  10.102  0.00  0.00    +0.000 A 
ATOM     21  C   UNL     1      45.012   3.107   9.382  0.00  0.00    +0.000 A 
ATOM     22  C   UNL     1      44.901   4.452   9.787  0.00  0.00    +0.000 A 
BRANCH  21  23
ATOM     23  C   UNL     1      45.837   2.725   8.217  0.00  0.00    +0.000 A 
ATOM     24  C   UNL     1      46.101   3.604   7.157  0.00  0.00    +0.000 A 
ATOM     25  C   UNL     1      46.832   3.180   6.046  0.00  0.00    +0.000 A 
ATOM     26  C   UNL     1      47.304   1.880   6.026  0.00  0.00    +0.000 A 
ATOM     27  N   UNL     1      47.098   0.999   7.023  0.00  0.00    +0.000 NA
ATOM     28  C   UNL     1      46.372   1.440   8.081  0.00  0.00    +0.000 A 
ENDBRANCH  21  23
ENDBRANCH  16  17
ENDBRANCH   1  16
TORSDOF 6
ENDMDL
MODEL 4
REMARK VINA RESULT:    -6.731      3.238      3.945
REMARK INTER + INTRA:         -10.303
REMARK INTER:                  -9.575
REMARK INTRA:                  -0.727
REMARK UNBOUND:                -1.211
REMARK  Name = 
REMARK  7 active torsions:
REMARK  status: ('A' for Active; 'I' for Inactive)
REMARK    1  A    between atoms: C_1  and  O_2
REMARK    2  A    between atoms: O_2  and  C_3
REMARK    3  A    between atoms: C_5  and  C_6
REMARK    4  A    between atoms: C_11  and  N_12
REMARK    5  A    between atoms: N_12  and  C_13
REMARK    6  A    between atoms: C_13  and  C_14
REMARK    7  A    between atoms: C_18  and  C_19
REMARK                            x       y       z     vdW  Elec       q    Type
REMARK                         _______ _______ _______ _____ _____    ______ ____
ROOT
ATOM      1  N   UNL     1      46.968   5.517  13.458  0.00  0.00    +0.000 N 
ATOM      2  H   UNL     1      47.507   6.294  13.086  0.00  0.00    +0.000 HD
ENDROOT
BRANCH   1   8
ATOM      3  C   UNL     1      48.417   5.988  15.352  0.00  0.00    +0.000 A 
ATOM      4  C   UNL     1      48.927   5.595  16.594  0.00  0.00    +0.000 A 
ATOM      5  C   UNL     1      48.497   4.407  17.183  0.00  0.00    +0.000 A 
ATOM      6  C   UNL     1      47.551   3.666  16.499  0.00  0.00    +0.000 A 
ATOM      7  N   UNL     1      47.028   4.023  15.301  0.00  0.00    +0.000 NA
ATOM      8  C   UNL     1      47.439   5.181  14.734  0.00  0.00    +0.000 A 
BRANCH   5   9
ATOM      9  C   UNL     1      49.087   3.991  18.478  0.00  0.00    +0.000 C 
ATOM     10  N   UNL     1      48.287   3.405  19.419  0.00  0.00    +0.000 N 
ATOM     11  O   UNL     1      50.280   4.159  18.710  0.00  0.00    +0.000 OA
ATOM     12  H   UNL     1      47.308   3.199  19.327  0.00  0.00    +0.000 HD
ATOM     13  H   UNL     1      48.746   3.119  20.278  0.00  0.00    +0.000 HD
ENDBRANCH   5   9
BRANCH   3  15
ATOM     14  C   UNL     1      48.311   8.357  15.277  0.00  0.00    +0.000 C 
ATOM     15  O   UNL     1      48.799   7.144  14.705  0.00  0.00    +0.000 OA
ENDBRANCH   3  15
ENDBRANCH   1   8
BRANCH   1  16
ATOM     16  C   UNL     1      45.527   5.653  13.286  0.00  0.00    +0.000 C 
BRANCH  16  17
ATOM     17  C   UNL     1      44.939   4.591  12.381  0.00  0.00    +0.000 A 
ATOM     18  C   UNL     1      43.803   3.872  12.769  0.00  0.00    +0.000 A 
ATOM     19  C   UNL     1      43.269   2.892  11.935  0.00  0.00    +0.000 A 
ATOM     20  C   UNL     1      43.856   2.631  10.697  0.00  0.00    +0.000 A 
ATOM     21  C   UNL     1      44.985   3.344  10.259  0.00  0.00    +0.000 A 
ATOM     22  C   UNL     1      45.519   4.315  11.130  0.00  0.00    +0.000 A 
BRANCH  21  23
ATOM     23  C   UNL     1      45.566   3.119   8.918  0.00  0.00    +0.000 A 
ATOM     24  C   UNL     1      45.952   1.850   8.465  0.00  0.00    +0.000 A 
ATOM     25  C   UNL     1      46.555   1.694   7.215  0.00  0.00    +0.000 A 
ATOM     26  C   UNL     1      46.744   2.817   6.431  0.00  0.00    +0.000 A 
ATOM     27  N   UNL     1      46.377   4.056   6.806  0.00  0.00    +0.000 NA
ATOM     28  C   UNL     1      45.806   4.174   8.032  0.00  0.00    +0.000 A 
ENDBRANCH  21  23
ENDBRANCH  16  17
ENDBRANCH   1  16
TORSDOF 6
ENDMDL
MODEL 5
REMARK VINA RESULT:    -6.686      2.496      3.604
REMARK INTER + INTRA:         -10.242
REMARK INTER:                  -9.542
REMARK INTRA:                  -0.699
REMARK UNBOUND:                -1.211
REMARK  Name = 
REMARK  7 active torsions:
REMARK  status: ('A' for Active; 'I' for Inactive)
REMARK    1  A    between atoms: C_1  and  O_2
REMARK    2  A    between atoms: O_2  and  C_3
REMARK    3  A    between atoms: C_5  and  C_6
REMARK    4  A    between atoms: C_11  and  N_12
REMARK    5  A    between atoms: N_12  and  C_13
REMARK    6  A    between atoms: C_13  and  C_14
REMARK    7  A    between atoms: C_18  and  C_19
REMARK                            x       y       z     vdW  Elec       q    Type
REMARK                         _______ _______ _______ _____ _____    ______ ____
ROOT
ATOM      1  N   UNL     1      47.466   6.741  12.534  0.00  0.00    +0.000 N 
ATOM      2  H   UNL     1      48.248   7.375  12.406  0.00  0.00    +0.000 HD
ENDROOT
BRANCH   1   8
ATOM      3  C   UNL     1      48.442   6.644  14.758  0.00  0.00    +0.000 A 
ATOM      4  C   UNL     1      48.563   5.977  15.983  0.00  0.00    +0.000 A 
ATOM      5  C   UNL     1      47.839   4.809  16.219  0.00  0.00    +0.000 A 
ATOM      6  C   UNL     1      47.004   4.367  15.211  0.00  0.00    +0.000 A 
ATOM      7  N   UNL     1      46.853   4.993  14.018  0.00  0.00    +0.000 NA
ATOM      8  C   UNL     1      47.549   6.131  13.793  0.00  0.00    +0.000 A 
BRANCH   5   9
ATOM      9  C   UNL     1      48.021   4.099  17.508  0.00  0.00    +0.000 C 
ATOM     10  N   UNL     1      47.254   3.001  17.778  0.00  0.00    +0.000 N 
ATOM     11  O   UNL     1      48.854   4.478  18.325  0.00  0.00    +0.000 OA
ATOM     12  H   UNL     1      46.562   2.591  17.175  0.00  0.00    +0.000 HD
ATOM     13  H   UNL     1      47.435   2.538  18.664  0.00  0.00    +0.000 HD
ENDBRANCH   5   9
BRANCH   3  15
ATOM     14  C   UNL     1      50.523   7.784  14.758  0.00  0.00    +0.000 C 
ATOM     15  O   UNL     1      49.129   7.798  14.450  0.00  0.00    +0.000 OA
ENDBRANCH   3  15
ENDBRANCH   1   8
BRANCH   1  16
ATOM     16  C   UNL     1      46.177   7.295  12.138  0.00  0.00    +0.000 C 
BRANCH  16  17
ATOM     17  C   UNL     1      45.310   6.298  11.399  0.00  0.00    +0.000 A 
ATOM     18  C   UNL     1      43.925   6.268  11.603  0.00  0.00    +0.000 A 
ATOM     19  C   UNL     1      43.132   5.345  10.924  0.00  0.00    +0.000 A 
ATOM     20  C   UNL     1      43.712   4.453  10.023  0.00  0.00    +0.000 A 
ATOM     21  C   UNL     1      45.095   4.463   9.772  0.00  0.00    +0.000 A 
ATOM     22  C   UNL     1      45.878   5.392  10.487  0.00  0.00    +0.000 A 
BRANCH  21  23
ATOM     23  C   UNL     1      45.702   3.567   8.765  0.00  0.00    +0.000 A 
ATOM     24  C   UNL     1      46.278   4.044   7.579  0.00  0.00    +0.000 A 
ATOM     25  C   UNL     1      46.782   3.157   6.626  0.00  0.00    +0.000 A 
ATOM     26  C   UNL     1      46.716   1.801   6.890  0.00  0.00    +0.000 A 
ATOM     27  N   UNL     1      46.192   1.288   8.018  0.00  0.00    +0.000 NA
ATOM     28  C   UNL     1      45.699   2.177   8.916  0.00  0.00    +0.000 A 
ENDBRANCH  21  23
ENDBRANCH  16  17
ENDBRANCH   1  16
TORSDOF 6
ENDMDL
MODEL 6
REMARK VINA RESULT:    -6.502      2.185      2.574
REMARK INTER + INTRA:          -9.993
REMARK INTER:                  -9.018
REMARK INTRA:                  -0.975
REMARK UNBOUND:                -1.211
REMARK  Name = 
REMARK  7 active torsions:
REMARK  status: ('A' for Active; 'I' for Inactive)
REMARK    1  A    between atoms: C_1  and  O_2
REMARK    2  A    between atoms: O_2  and  C_3
REMARK    3  A    between atoms: C_5  and  C_6
REMARK    4  A    between atoms: C_11  and  N_12
REMARK    5  A    between atoms: N_12  and  C_13
REMARK    6  A    between atoms: C_13  and  C_14
REMARK    7  A    between atoms: C_18  and  C_19
REMARK                            x       y       z     vdW  Elec       q    Type
REMARK                         _______ _______ _______ _____ _____    ______ ____
ROOT
ATOM      1  N   UNL     1      47.149   7.436  11.898  0.00  0.00    +0.000 N 
ATOM      2  H   UNL     1      47.726   7.981  11.265  0.00  0.00    +0.000 HD
ENDROOT
BRANCH   1   8
ATOM      3  C   UNL     1      47.925   6.328  13.918  0.00  0.00    +0.000 A 
ATOM      4  C   UNL     1      48.375   6.429  15.240  0.00  0.00    +0.000 A 
ATOM      5  C   UNL     1      48.526   7.680  15.835  0.00  0.00    +0.000 A 
ATOM      6  C   UNL     1      48.232   8.788  15.063  0.00  0.00    +0.000 A 
ATOM      7  N   UNL     1      47.806   8.728  13.777  0.00  0.00    +0.000 NA
ATOM      8  C   UNL     1      47.668   7.513  13.198  0.00  0.00    +0.000 A 
BRANCH   5   9
ATOM      9  C   UNL     1      48.959   7.755  17.251  0.00  0.00    +0.000 C 
ATOM     10  N   UNL     1      48.081   7.405  18.237  0.00  0.00    +0.000 N 
ATOM     11  O   UNL     1      50.094   8.120  17.544  0.00  0.00    +0.000 OA
ATOM     12  H   UNL     1      47.141   7.072  18.111  0.00  0.00    +0.000 HD
ATOM     13  H   UNL     1      48.436   7.453  19.188  0.00  0.00    +0.000 HD
ENDBRANCH   5   9
BRANCH   3  15
ATOM     14  C   UNL     1      46.720   4.287  13.796  0.00  0.00    +0.000 C 
ATOM     15  O   UNL     1      47.745   5.128  13.266  0.00  0.00    +0.000 OA
ENDBRANCH   3  15
ENDBRANCH   1   8
BRANCH   1  16
ATOM     16  C   UNL     1      45.717   7.644  11.732  0.00  0.00    +0.000 C 
BRANCH  16  17
ATOM     17  C   UNL     1      44.997   6.412  11.225  0.00  0.00    +0.000 A 
ATOM     18  C   UNL     1      43.676   6.151  11.604  0.00  0.00    +0.000 A 
ATOM     19  C   UNL     1      43.019   5.013  11.140  0.00  0.00    +0.000 A 
ATOM     20  C   UNL     1      43.672   4.133  10.277  0.00  0.00    +0.000 A 
ATOM     21  C   UNL     1      44.992   4.367   9.854  0.00  0.00    +0.000 A 
ATOM     22  C   UNL     1      45.640   5.514  10.356  0.00  0.00    +0.000 A 
BRANCH  21  23
ATOM     23  C   UNL     1      45.661   3.474   8.885  0.00  0.00    +0.000 A 
ATOM     24  C   UNL     1      46.318   3.954   7.743  0.00  0.00    +0.000 A 
ATOM     25  C   UNL     1      46.880   3.069   6.822  0.00  0.00    +0.000 A 
ATOM     26  C   UNL     1      46.790   1.713   7.072  0.00  0.00    +0.000 A 
ATOM     27  N   UNL     1      46.189   1.196   8.160  0.00  0.00    +0.000 NA
ATOM     28  C   UNL     1      45.640   2.083   9.028  0.00  0.00    +0.000 A 
ENDBRANCH  21  23
ENDBRANCH  16  17
ENDBRANCH   1  16
TORSDOF 6
ENDMDL
MODEL 7
REMARK VINA RESULT:    -6.408      1.464      1.836
REMARK INTER + INTRA:          -9.866
REMARK INTER:                  -8.851
REMARK INTRA:                  -1.016
REMARK UNBOUND:                -1.211
REMARK  Name = 
REMARK  7 active torsions:
REMARK  status: ('A' for Active; 'I' for Inactive)
REMARK    1  A    between atoms: C_1  and  O_2
REMARK    2  A    between atoms: O_2  and  C_3
REMARK    3  A    between atoms: C_5  and  C_6
REMARK    4  A    between atoms: C_11  and  N_12
REMARK    5  A    between atoms: N_12  and  C_13
REMARK    6  A    between atoms: C_13  and  C_14
REMARK    7  A    between atoms: C_18  and  C_19
REMARK                            x       y       z     vdW  Elec       q    Type
REMARK                         _______ _______ _______ _____ _____    ______ ____
ROOT
ATOM      1  N   UNL     1      45.504   7.575  13.103  0.00  0.00    +0.000 N 
ATOM      2  H   UNL     1      45.445   6.911  13.869  0.00  0.00    +0.000 HD
ENDROOT
BRANCH   1   8
ATOM      3  C   UNL     1      47.755   6.667  12.968  0.00  0.00    +0.000 A 
ATOM      4  C   UNL     1      49.095   6.841  12.603  0.00  0.00    +0.000 A 
ATOM      5  C   UNL     1      49.509   8.030  12.006  0.00  0.00    +0.000 A 
ATOM      6  C   UNL     1      48.546   8.996  11.782  0.00  0.00    +0.000 A 
ATOM      7  N   UNL     1      47.238   8.856  12.111  0.00  0.00    +0.000 NA
ATOM      8  C   UNL     1      46.836   7.698  12.683  0.00  0.00    +0.000 A 
BRANCH   5   9
ATOM      9  C   UNL     1      50.943   8.206  11.672  0.00  0.00    +0.000 C 
ATOM     10  N   UNL     1      51.661   9.182  12.305  0.00  0.00    +0.000 N 
ATOM     11  O   UNL     1      51.491   7.485  10.844  0.00  0.00    +0.000 OA
ATOM     12  H   UNL     1      51.321   9.811  13.012  0.00  0.00    +0.000 HD
ATOM     13  H   UNL     1      52.644   9.244  12.056  0.00  0.00    +0.000 HD
ENDBRANCH   5   9
BRANCH   3  15
ATOM     14  C   UNL     1      47.683   5.319  14.919  0.00  0.00    +0.000 C 
ATOM     15  O   UNL     1      47.273   5.524  13.567  0.00  0.00    +0.000 OA
ENDBRANCH   3  15
ENDBRANCH   1   8
BRANCH   1  16
ATOM     16  C   UNL     1      44.488   7.393  12.075  0.00  0.00    +0.000 C 
BRANCH  16  17
ATOM     17  C   UNL     1      44.261   5.938  11.722  0.00  0.00    +0.000 A 
ATOM     18  C   UNL     1      43.377   5.152  12.469  0.00  0.00    +0.000 A 
ATOM     19  C   UNL     1      43.176   3.812  12.144  0.00  0.00    +0.000 A 
ATOM     20  C   UNL     1      43.845   3.248  11.059  0.00  0.00    +0.000 A 
ATOM     21  C   UNL     1      44.727   4.006  10.269  0.00  0.00    +0.000 A 
ATOM     22  C   UNL     1      44.928   5.353  10.631  0.00  0.00    +0.000 A 
BRANCH  21  23
ATOM     23  C   UNL     1      45.382   3.429   9.076  0.00  0.00    +0.000 A 
ATOM     24  C   UNL     1      45.612   2.054   8.931  0.00  0.00    +0.000 A 
ATOM     25  C   UNL     1      46.292   1.560   7.816  0.00  0.00    +0.000 A 
ATOM     26  C   UNL     1      46.715   2.458   6.853  0.00  0.00    +0.000 A 
ATOM     27  N   UNL     1      46.505   3.785   6.930  0.00  0.00    +0.000 NA
ATOM     28  C   UNL     1      45.854   4.232   8.033  0.00  0.00    +0.000 A 
ENDBRANCH  21  23
ENDBRANCH  16  17
ENDBRANCH   1  16
TORSDOF 6
ENDMDL
MODEL 8
REMARK VINA RESULT:    -6.233      5.064      8.571
REMARK INTER + INTRA:          -9.631
REMARK INTER:                  -9.009
REMARK INTRA:                  -0.622
REMARK UNBOUND:                -1.211
REMARK  Name = 
REMARK  7 active torsions:
REMARK  status: ('A' for Active; 'I' for Inactive)
REMARK    1  A    between atoms: C_1  and  O_2
REMARK    2  A    between atoms: O_2  and  C_3
REMARK    3  A    between atoms: C_5  and  C_6
REMARK    4  A    between atoms: C_11  and  N_12
REMARK    5  A    between atoms: N_12  and  C_13
REMARK    6  A    between atoms: C_13  and  C_14
REMARK    7  A    between atoms: C_18  and  C_19
REMARK                            x       y       z     vdW  Elec       q    Type
REMARK                         _______ _______ _______ _____ _____    ______ ____
ROOT
ATOM      1  N   UNL     1      46.848   5.131  15.090  0.00  0.00    +0.000 N 
ATOM      2  H   UNL     1      47.595   5.813  14.990  0.00  0.00    +0.000 HD
ENDROOT
BRANCH   1   8
ATOM      3  C   UNL     1      46.024   5.845  12.917  0.00  0.00    +0.000 A 
ATOM      4  C   UNL     1      45.435   5.511  11.694  0.00  0.00    +0.000 A 
ATOM      5  C   UNL     1      45.118   4.183  11.408  0.00  0.00    +0.000 A 
ATOM      6  C   UNL     1      45.428   3.238  12.368  0.00  0.00    +0.000 A 
ATOM      7  N   UNL     1      46.009   3.525  13.558  0.00  0.00    +0.000 NA
ATOM      8  C   UNL     1      46.324   4.812  13.830  0.00  0.00    +0.000 A 
BRANCH   5   9
ATOM      9  C   UNL     1      44.452   3.863  10.123  0.00  0.00    +0.000 C 
ATOM     10  N   UNL     1      44.561   4.738   9.078  0.00  0.00    +0.000 N 
ATOM     11  O   UNL     1      43.815   2.824   9.985  0.00  0.00    +0.000 OA
ATOM     12  H   UNL     1      45.074   5.603   9.073  0.00  0.00    +0.000 HD
ATOM     13  H   UNL     1      44.105   4.460   8.214  0.00  0.00    +0.000 HD
ENDBRANCH   5   9
BRANCH   3  15
ATOM     14  C   UNL     1      45.643   8.165  12.593  0.00  0.00    +0.000 C 
ATOM     15  O   UNL     1      46.359   7.134  13.273  0.00  0.00    +0.000 OA
ENDBRANCH   3  15
ENDBRANCH   1   8
BRANCH   1  16
ATOM     16  C   UNL     1      47.164   4.027  15.987  0.00  0.00    +0.000 C 
BRANCH  16  17
ATOM     17  C   UNL     1      48.318   4.336  16.918  0.00  0.00    +0.000 A 
ATOM     18  C   UNL     1      48.284   5.462  17.747  0.00  0.00    +0.000 A 
ATOM     19  C   UNL     1      49.350   5.745  18.598  0.00  0.00    +0.000 A 
ATOM     20  C   UNL     1      50.456   4.896  18.640  0.00  0.00    +0.000 A 
ATOM     21  C   UNL     1      50.523   3.743  17.839  0.00  0.00    +0.000 A 
ATOM     22  C   UNL     1      49.440   3.491  16.972  0.00  0.00    +0.000 A 
BRANCH  21  23
ATOM     23  C   UNL     1      51.660   2.804  17.933  0.00  0.00    +0.000 A 
ATOM     24  C   UNL     1      51.613   1.504  17.409  0.00  0.00    +0.000 A 
ATOM     25  C   UNL     1      52.689   0.630  17.577  0.00  0.00    +0.000 A 
ATOM     26  C   UNL     1      53.805   1.083  18.256  0.00  0.00    +0.000 A 
ATOM     27  N   UNL     1      53.913   2.325  18.764  0.00  0.00    +0.000 NA
ATOM     28  C   UNL     1      52.844   3.144  18.595  0.00  0.00    +0.000 A 
ENDBRANCH  21  23
ENDBRANCH  16  17
ENDBRANCH   1  16
TORSDOF 6
ENDMDL
MODEL 9
REMARK VINA RESULT:    -6.065      4.036      5.236
REMARK INTER + INTRA:          -9.404
REMARK INTER:                  -8.766
REMARK INTRA:                  -0.638
REMARK UNBOUND:                -1.211
REMARK  Name = 
REMARK  7 active torsions:
REMARK  status: ('A' for Active; 'I' for Inactive)
REMARK    1  A    between atoms: C_1  and  O_2
REMARK    2  A    between atoms: O_2  and  C_3
REMARK    3  A    between atoms: C_5  and  C_6
REMARK    4  A    between atoms: C_11  and  N_12
REMARK    5  A    between atoms: N_12  and  C_13
REMARK    6  A    between atoms: C_13  and  C_14
REMARK    7  A    between atoms: C_18  and  C_19
REMARK                            x       y       z     vdW  Elec       q    Type
REMARK                         _______ _______ _______ _____ _____    ______ ____
ROOT
ATOM      1  N   UNL     1      47.901   6.157  15.463  0.00  0.00    +0.000 N 
ATOM      2  H   UNL     1      47.206   5.425  15.355  0.00  0.00    +0.000 HD
ENDROOT
BRANCH   1   8
ATOM      3  C   UNL     1      48.618   4.875  17.400  0.00  0.00    +0.000 A 
ATOM      4  C   UNL     1      49.646   4.506  18.276  0.00  0.00    +0.000 A 
ATOM      5  C   UNL     1      50.937   4.995  18.087  0.00  0.00    +0.000 A 
ATOM      6  C   UNL     1      51.146   5.830  17.006  0.00  0.00    +0.000 A 
ATOM      7  N   UNL     1      50.178   6.199  16.131  0.00  0.00    +0.000 NA
ATOM      8  C   UNL     1      48.927   5.716  16.310  0.00  0.00    +0.000 A 
BRANCH   5   9
ATOM      9  C   UNL     1      51.996   4.624  19.057  0.00  0.00    +0.000 C 
ATOM     10  N   UNL     1      51.656   4.390  20.360  0.00  0.00    +0.000 N 
ATOM     11  O   UNL     1      53.165   4.517  18.702  0.00  0.00    +0.000 OA
ATOM     12  H   UNL     1      50.731   4.427  20.752  0.00  0.00    +0.000 HD
ATOM     13  H   UNL     1      52.415   4.118  20.976  0.00  0.00    +0.000 HD
ENDBRANCH   5   9
BRANCH   3  15
ATOM     14  C   UNL     1      47.132   3.025  17.428  0.00  0.00    +0.000 C 
ATOM     15  O   UNL     1      47.318   4.438  17.526  0.00  0.00    +0.000 OA
ENDBRANCH   3  15
ENDBRANCH   1   8
BRANCH   1  16
ATOM     16  C   UNL     1      48.289   6.801  14.215  0.00  0.00    +0.000 C 
BRANCH  16  17
ATOM     17  C   UNL     1      47.129   6.979  13.258  0.00  0.00    +0.000 A 
ATOM     18  C   UNL     1      46.434   8.193  13.198  0.00  0.00    +0.000 A 
ATOM     19  C   UNL     1      45.364   8.350  12.320  0.00  0.00    +0.000 A 
ATOM     20  C   UNL     1      44.987   7.301  11.482  0.00  0.00    +0.000 A 
ATOM     21  C   UNL     1      45.670   6.073  11.495  0.00  0.00    +0.000 A 
ATOM     22  C   UNL     1      46.735   5.932  12.407  0.00  0.00    +0.000 A 
BRANCH  21  23
ATOM     23  C   UNL     1      45.318   4.985  10.558  0.00  0.00    +0.000 A 
ATOM     24  C   UNL     1      45.670   5.013   9.201  0.00  0.00    +0.000 A 
ATOM     25  C   UNL     1      45.261   3.994   8.339  0.00  0.00    +0.000 A 
ATOM     26  C   UNL     1      44.518   2.951   8.860  0.00  0.00    +0.000 A 
ATOM     27  N   UNL     1      44.167   2.862  10.156  0.00  0.00    +0.000 NA
ATOM     28  C   UNL     1      44.569   3.876  10.963  0.00  0.00    +0.000 A 
ENDBRANCH  21  23
ENDBRANCH  16  17
ENDBRANCH   1  16
TORSDOF 6
ENDMDL
