MODEL 1
REMARK VINA RESULT:    -9.282      0.000      0.000
REMARK INTER + INTRA:         -13.866
REMARK INTER:                 -12.810
REMARK INTRA:                  -1.056
REMARK UNBOUND:                -1.056
REMARK  Name = 
REMARK  8 active torsions:
REMARK  status: ('A' for Active; 'I' for Inactive)
REMARK    1  A    between atoms: C_1  and  C_2
REMARK    2  A    between atoms: C_2  and  O_3
REMARK    3  A    between atoms: C_5  and  O_6
REMARK    4  A    between atoms: O_6  and  C_7
REMARK    5  A    between atoms: C_9  and  C_10
REMARK    6  A    between atoms: C_10  and  C_13
REMARK    7  A    between atoms: C_13  and  N_14
REMARK    8  A    between atoms: C_18  and  C_19
REMARK                            x       y       z     vdW  Elec       q    Type
REMARK                         _______ _______ _______ _____ _____    ______ ____
ROOT
ATOM      1  C   UNL     1      43.361   4.594  12.601  0.00  0.00    +0.000 C 
ATOM      2  F   UNL     1      42.985   3.571  13.425  0.00  0.00    +0.000 F 
ATOM      3  F   UNL     1      42.429   5.578  12.812  0.00  0.00    +0.000 F 
ENDROOT
BRANCH   1   6
ATOM      4  C   UNL     1      46.943   4.555  13.911  0.00  0.00    +0.000 A 
ATOM      5  C   UNL     1      45.650   4.174  13.542  0.00  0.00    +0.000 A 
ATOM      6  C   UNL     1      44.758   5.089  12.958  0.00  0.00    +0.000 A 
ATOM      7  C   UNL     1      45.207   6.402  12.735  0.00  0.00    +0.000 A 
ATOM      8  C   UNL     1      46.508   6.780  13.080  0.00  0.00    +0.000 A 
ATOM      9 CL   UNL     1      47.004   8.404  12.784  0.00  0.00    +0.000 Cl
ATOM     10  C   UNL     1      47.375   5.861  13.661  0.00  0.00    +0.000 A 
ATOM     11  F   UNL     1      48.619   6.233  14.001  0.00  0.00    +0.000 F 
BRANCH   4  12
ATOM     12  O   UNL     1      47.828   3.697  14.524  0.00  0.00    +0.000 OA
BRANCH  12  16
ATOM     13  C   UNL     1      49.082   4.144  18.836  0.00  0.00    +0.000 C 
ATOM     14  C   UNL     1      48.837   4.096  17.336  0.00  0.00    +0.000 C 
ATOM     15  C   UNL     1      47.361   4.357  16.947  0.00  0.00    +0.000 C 
ATOM     16  C   UNL     1      47.505   3.254  15.866  0.00  0.00    +0.000 C 
ATOM     17  C   UNL     1      48.673   2.688  16.706  0.00  0.00    +0.000 C 
BRANCH  14  18
ATOM     18  O   UNL     1      49.820   4.923  16.678  0.00  0.00    +0.000 OA
ATOM     19  H   UNL     1      50.469   4.312  16.291  0.00  0.00    +0.000 HD
ENDBRANCH  14  18
ENDBRANCH  12  16
ENDBRANCH   4  12
ENDBRANCH   1   6
BRANCH   1  20
ATOM     20  C   UNL     1      43.222   4.132  11.135  0.00  0.00    +0.000 C 
BRANCH  20  21
ATOM     21  N   UNL     1      43.997   4.922  10.158  0.00  0.00    +0.000 N 
ATOM     22  C   UNL     1      44.830   4.108   9.367  0.00  0.00    +0.000 A 
ATOM     23  C   UNL     1      45.641   4.681   8.380  0.00  0.00    +0.000 A 
ATOM     24  N   UNL     1      46.481   3.974   7.578  0.00  0.00    +0.000 NA
ATOM     25  C   UNL     1      46.462   2.630   7.792  0.00  0.00    +0.000 A 
ATOM     26  C   UNL     1      45.648   2.040   8.742  0.00  0.00    +0.000 A 
ATOM     27  N   UNL     1      44.821   2.766   9.539  0.00  0.00    +0.000 NA
ATOM     28  H   UNL     1      44.544   5.655  10.608  0.00  0.00    +0.000 HD
BRANCH  25  29
ATOM     29  C   UNL     1      47.377   1.778   6.986  0.00  0.00    +0.000 C 
ATOM     30  N   UNL     1      48.462   2.416   6.449  0.00  0.00    +0.000 N 
ATOM     31  O   UNL     1      47.181   0.584   6.820  0.00  0.00    +0.000 OA
ATOM     32  H   UNL     1      48.601   3.408   6.606  0.00  0.00    +0.000 HD
ATOM     33  H   UNL     1      49.125   1.889   5.899  0.00  0.00    +0.000 HD
ENDBRANCH  25  29
ENDBRANCH  20  21
ENDBRANCH   1  20
TORSDOF 7
ENDMDL
MODEL 2
REMARK VINA RESULT:    -7.643      2.514      3.041
REMARK INTER + INTRA:         -11.604
REMARK INTER:                 -10.662
REMARK INTRA:                  -0.942
REMARK UNBOUND:                -1.056
REMARK  Name = 
REMARK  8 active torsions:
REMARK  status: ('A' for Active; 'I' for Inactive)
REMARK    1  A    between atoms: C_1  and  C_2
REMARK    2  A    between atoms: C_2  and  O_3
REMARK    3  A    between atoms: C_5  and  O_6
REMARK    4  A    between atoms: O_6  and  C_7
REMARK    5  A    between atoms: C_9  and  C_10
REMARK    6  A    between atoms: C_10  and  C_13
REMARK    7  A    between atoms: C_13  and  N_14
REMARK    8  A    between atoms: C_18  and  C_19
REMARK                            x       y       z     vdW  Elec       q    Type
REMARK                         _______ _______ _______ _____ _____    ______ ____
ROOT
ATOM      1  C   UNL     1      43.958   5.099  12.210  0.00  0.00    +0.000 C 
ATOM      2  F   UNL     1      44.825   4.190  12.748  0.00  0.00    +0.000 F 
ATOM      3  F   UNL     1      42.871   5.087  13.046  0.00  0.00    +0.000 F 
ENDROOT
BRANCH   1   6
ATOM      4  C   UNL     1      46.375   7.955  12.949  0.00  0.00    +0.000 A 
ATOM      5  C   UNL     1      45.748   6.706  12.926  0.00  0.00    +0.000 A 
ATOM      6  C   UNL     1      44.588   6.486  12.164  0.00  0.00    +0.000 A 
ATOM      7  C   UNL     1      44.081   7.554  11.404  0.00  0.00    +0.000 A 
ATOM      8  C   UNL     1      44.721   8.797  11.405  0.00  0.00    +0.000 A 
ATOM      9 CL   UNL     1      44.053  10.071  10.456  0.00  0.00    +0.000 Cl
ATOM     10  C   UNL     1      45.865   8.997  12.169  0.00  0.00    +0.000 A 
ATOM     11  F   UNL     1      46.468  10.196  12.176  0.00  0.00    +0.000 F 
BRANCH   4  12
ATOM     12  O   UNL     1      47.487   8.218  13.717  0.00  0.00    +0.000 OA
BRANCH  12  16
ATOM     13  C   UNL     1      51.080   6.959  16.139  0.00  0.00    +0.000 C 
ATOM     14  C   UNL     1      49.887   7.569  15.421  0.00  0.00    +0.000 C 
ATOM     15  C   UNL     1      48.696   6.590  15.270  0.00  0.00    +0.000 C 
ATOM     16  C   UNL     1      48.472   7.164  13.845  0.00  0.00    +0.000 C 
ATOM     17  C   UNL     1      49.955   7.604  13.871  0.00  0.00    +0.000 C 
BRANCH  14  18
ATOM     18  O   UNL     1      49.583   8.845  16.024  0.00  0.00    +0.000 OA
ATOM     19  H   UNL     1      49.517   9.479  15.290  0.00  0.00    +0.000 HD
ENDBRANCH  14  18
ENDBRANCH  12  16
ENDBRANCH   4  12
ENDBRANCH   1   6
BRANCH   1  20
ATOM     20  C   UNL     1      43.488   4.584  10.831  0.00  0.00    +0.000 C 
BRANCH  20  21
ATOM     21  N   UNL     1      43.770   3.158  10.572  0.00  0.00    +0.000 N 
ATOM     22  C   UNL     1      44.694   2.988   9.524  0.00  0.00    +0.000 A 
ATOM     23  C   UNL     1      45.088   1.702   9.136  0.00  0.00    +0.000 A 
ATOM     24  N   UNL     1      45.965   1.444   8.131  0.00  0.00    +0.000 NA
ATOM     25  C   UNL     1      46.467   2.556   7.525  0.00  0.00    +0.000 A 
ATOM     26  C   UNL     1      46.114   3.836   7.912  0.00  0.00    +0.000 A 
ATOM     27  N   UNL     1      45.229   4.071   8.914  0.00  0.00    +0.000 NA
ATOM     28  H   UNL     1      42.920   2.630  10.383  0.00  0.00    +0.000 HD
BRANCH  25  29
ATOM     29  C   UNL     1      47.408   2.370   6.388  0.00  0.00    +0.000 C 
ATOM     30  N   UNL     1      47.276   3.260   5.356  0.00  0.00    +0.000 N 
ATOM     31  O   UNL     1      48.253   1.487   6.377  0.00  0.00    +0.000 OA
ATOM     32  H   UNL     1      46.567   3.985   5.395  0.00  0.00    +0.000 HD
ATOM     33  H   UNL     1      47.893   3.191   4.561  0.00  0.00    +0.000 HD
ENDBRANCH  25  29
ENDBRANCH  20  21
ENDBRANCH   1  20
TORSDOF 7
ENDMDL
MODEL 3
REMARK VINA RESULT:    -7.346      3.742      7.877
REMARK INTER + INTRA:         -11.194
REMARK INTER:                 -10.706
REMARK INTRA:                  -0.488
REMARK UNBOUND:                -1.056
REMARK  Name = 
REMARK  8 active torsions:
REMARK  status: ('A' for Active; 'I' for Inactive)
REMARK    1  A    between atoms: C_1  and  C_2
REMARK    2  A    between atoms: C_2  and  O_3
REMARK    3  A    between atoms: C_5  and  O_6
REMARK    4  A    between atoms: O_6  and  C_7
REMARK    5  A    between atoms: C_9  and  C_10
REMARK    6  A    between atoms: C_10  and  C_13
REMARK    7  A    between atoms: C_13  and  N_14
REMARK    8  A    between atoms: C_18  and  C_19
REMARK                            x       y       z     vdW  Elec       q    Type
REMARK                         _______ _______ _______ _____ _____    ______ ____
ROOT
ATOM      1  C   UNL     1      47.146   7.699  12.540  0.00  0.00    +0.000 C 
ATOM      2  F   UNL     1      47.416   8.677  11.624  0.00  0.00    +0.000 F 
ATOM      3  F   UNL     1      46.669   8.367  13.638  0.00  0.00    +0.000 F 
ENDROOT
BRANCH   1   6
ATOM      4  C   UNL     1      45.307   5.414  10.103  0.00  0.00    +0.000 A 
ATOM      5  C   UNL     1      46.233   6.291  10.673  0.00  0.00    +0.000 A 
ATOM      6  C   UNL     1      46.102   6.728  12.003  0.00  0.00    +0.000 A 
ATOM      7  C   UNL     1      45.020   6.243  12.756  0.00  0.00    +0.000 A 
ATOM      8  C   UNL     1      44.106   5.345  12.197  0.00  0.00    +0.000 A 
ATOM      9 CL   UNL     1      42.797   4.783  13.168  0.00  0.00    +0.000 Cl
ATOM     10  C   UNL     1      44.250   4.927  10.878  0.00  0.00    +0.000 A 
ATOM     11  F   UNL     1      43.363   4.075  10.342  0.00  0.00    +0.000 F 
BRANCH   4  12
ATOM     12  O   UNL     1      45.380   5.000   8.793  0.00  0.00    +0.000 OA
BRANCH  12  16
ATOM     13  C   UNL     1      46.985   1.272   6.821  0.00  0.00    +0.000 C 
ATOM     14  C   UNL     1      46.607   2.628   7.394  0.00  0.00    +0.000 C 
ATOM     15  C   UNL     1      46.129   2.559   8.866  0.00  0.00    +0.000 C 
ATOM     16  C   UNL     1      45.051   3.617   8.512  0.00  0.00    +0.000 C 
ATOM     17  C   UNL     1      45.192   3.159   7.041  0.00  0.00    +0.000 C 
BRANCH  14  18
ATOM     18  O   UNL     1      47.671   3.564   7.118  0.00  0.00    +0.000 OA
ATOM     19  H   UNL     1      48.180   3.641   7.942  0.00  0.00    +0.000 HD
ENDBRANCH  14  18
ENDBRANCH  12  16
ENDBRANCH   4  12
ENDBRANCH   1   6
BRANCH   1  20
ATOM     20  C   UNL     1      48.472   7.021  12.950  0.00  0.00    +0.000 C 
BRANCH  20  21
ATOM     21  N   UNL     1      48.916   7.310  14.328  0.00  0.00    +0.000 N 
ATOM     22  C   UNL     1      48.562   6.280  15.221  0.00  0.00    +0.000 A 
ATOM     23  C   UNL     1      48.903   6.375  16.575  0.00  0.00    +0.000 A 
ATOM     24  N   UNL     1      48.594   5.436  17.507  0.00  0.00    +0.000 NA
ATOM     25  C   UNL     1      47.929   4.354  17.015  0.00  0.00    +0.000 A 
ATOM     26  C   UNL     1      47.608   4.226  15.675  0.00  0.00    +0.000 A 
ATOM     27  N   UNL     1      47.920   5.181  14.761  0.00  0.00    +0.000 NA
ATOM     28  H   UNL     1      48.563   8.205  14.663  0.00  0.00    +0.000 HD
BRANCH  25  29
ATOM     29  C   UNL     1      47.516   3.290  17.969  0.00  0.00    +0.000 C 
ATOM     30  N   UNL     1      48.238   3.221  19.130  0.00  0.00    +0.000 N 
ATOM     31  O   UNL     1      46.587   2.532  17.738  0.00  0.00    +0.000 OA
ATOM     32  H   UNL     1      49.003   3.867  19.294  0.00  0.00    +0.000 HD
ATOM     33  H   UNL     1      47.999   2.526  19.821  0.00  0.00    +0.000 HD
ENDBRANCH  25  29
ENDBRANCH  20  21
ENDBRANCH   1  20
TORSDOF 7
ENDMDL
MODEL 4
REMARK VINA RESULT:    -6.976      4.031      7.760
REMARK INTER + INTRA:         -10.684
REMARK INTER:                  -9.439
REMARK INTRA:                  -1.245
REMARK UNBOUND:                -1.056
REMARK  Name = 
REMARK  8 active torsions:
REMARK  status: ('A' for Active; 'I' for Inactive)
REMARK    1  A    between atoms: C_1  and  C_2
REMARK    2  A    between atoms: C_2  and  O_3
REMARK    3  A    between atoms: C_5  and  O_6
REMARK    4  A    between atoms: O_6  and  C_7
REMARK    5  A    between atoms: C_9  and  C_10
REMARK    6  A    between atoms: C_10  and  C_13
REMARK    7  A    between atoms: C_13  and  N_14
REMARK    8  A    between atoms: C_18  and  C_19
REMARK                            x       y       z     vdW  Elec       q    Type
REMARK                         _______ _______ _______ _____ _____    ______ ____
ROOT
ATOM      1  C   UNL     1      48.149   8.988  12.819  0.00  0.00    +0.000 C 
ATOM      2  F   UNL     1      48.850   9.627  11.836  0.00  0.00    +0.000 F 
ATOM      3  F   UNL     1      48.083   9.892  13.848  0.00  0.00    +0.000 F 
ENDROOT
BRANCH   1   6
ATOM      4  C   UNL     1      45.121   6.845  11.932  0.00  0.00    +0.000 A 
ATOM      5  C   UNL     1      46.379   7.265  12.374  0.00  0.00    +0.000 A 
ATOM      6  C   UNL     1      46.752   8.619  12.334  0.00  0.00    +0.000 A 
ATOM      7  C   UNL     1      45.815   9.551  11.854  0.00  0.00    +0.000 A 
ATOM      8  C   UNL     1      44.547   9.137  11.436  0.00  0.00    +0.000 A 
ATOM      9 CL   UNL     1      43.440  10.324  10.855  0.00  0.00    +0.000 Cl
ATOM     10  C   UNL     1      44.198   7.792  11.479  0.00  0.00    +0.000 A 
ATOM     11  F   UNL     1      42.984   7.399  11.064  0.00  0.00    +0.000 F 
BRANCH   4  12
ATOM     12  O   UNL     1      44.739   5.523  11.917  0.00  0.00    +0.000 OA
BRANCH  12  16
ATOM     13  C   UNL     1      44.829   3.348   7.964  0.00  0.00    +0.000 C 
ATOM     14  C   UNL     1      44.599   4.129   9.248  0.00  0.00    +0.000 C 
ATOM     15  C   UNL     1      45.806   5.010   9.654  0.00  0.00    +0.000 C 
ATOM     16  C   UNL     1      45.539   4.607  11.128  0.00  0.00    +0.000 C 
ATOM     17  C   UNL     1      44.814   3.357  10.577  0.00  0.00    +0.000 C 
BRANCH  14  18
ATOM     18  O   UNL     1      43.325   4.804   9.161  0.00  0.00    +0.000 OA
ATOM     19  H   UNL     1      42.649   4.118   9.292  0.00  0.00    +0.000 HD
ENDBRANCH  14  18
ENDBRANCH  12  16
ENDBRANCH   4  12
ENDBRANCH   1   6
BRANCH   1  20
ATOM     20  C   UNL     1      48.973   7.780  13.315  0.00  0.00    +0.000 C 
BRANCH  20  21
ATOM     21  N   UNL     1      49.382   7.848  14.732  0.00  0.00    +0.000 N 
ATOM     22  C   UNL     1      48.910   6.744  15.467  0.00  0.00    +0.000 A 
ATOM     23  C   UNL     1      49.201   6.632  16.832  0.00  0.00    +0.000 A 
ATOM     24  N   UNL     1      48.779   5.609  17.621  0.00  0.00    +0.000 NA
ATOM     25  C   UNL     1      48.051   4.661  16.968  0.00  0.00    +0.000 A 
ATOM     26  C   UNL     1      47.776   4.737  15.615  0.00  0.00    +0.000 A 
ATOM     27  N   UNL     1      48.201   5.773  14.846  0.00  0.00    +0.000 NA
ATOM     28  H   UNL     1      49.089   8.718  15.173  0.00  0.00    +0.000 HD
BRANCH  25  29
ATOM     29  C   UNL     1      47.515   3.521  17.759  0.00  0.00    +0.000 C 
ATOM     30  N   UNL     1      48.241   3.172  18.865  0.00  0.00    +0.000 N 
ATOM     31  O   UNL     1      46.487   2.938  17.448  0.00  0.00    +0.000 OA
ATOM     32  H   UNL     1      49.089   3.677  19.099  0.00  0.00    +0.000 HD
ATOM     33  H   UNL     1      47.922   2.412  19.447  0.00  0.00    +0.000 HD
ENDBRANCH  25  29
ENDBRANCH  20  21
ENDBRANCH   1  20
TORSDOF 7
ENDMDL
MODEL 5
REMARK VINA RESULT:    -6.623      3.991      5.965
REMARK INTER + INTRA:         -10.196
REMARK INTER:                  -9.251
REMARK INTRA:                  -0.945
REMARK UNBOUND:                -1.056
REMARK  Name = 
REMARK  8 active torsions:
REMARK  status: ('A' for Active; 'I' for Inactive)
REMARK    1  A    between atoms: C_1  and  C_2
REMARK    2  A    between atoms: C_2  and  O_3
REMARK    3  A    between atoms: C_5  and  O_6
REMARK    4  A    between atoms: O_6  and  C_7
REMARK    5  A    between atoms: C_9  and  C_10
REMARK    6  A    between atoms: C_10  and  C_13
REMARK    7  A    between atoms: C_13  and  N_14
REMARK    8  A    between atoms: C_18  and  C_19
REMARK                            x       y       z     vdW  Elec       q    Type
REMARK                         _______ _______ _______ _____ _____    ______ ____
ROOT
ATOM      1  C   UNL     1      47.433   3.636  17.210  0.00  0.00    +0.000 C 
ATOM      2  F   UNL     1      46.841   2.570  17.826  0.00  0.00    +0.000 F 
ATOM      3  F   UNL     1      46.883   4.740  17.810  0.00  0.00    +0.000 F 
ENDROOT
BRANCH   1   6
ATOM      4  C   UNL     1      50.963   4.867  17.964  0.00  0.00    +0.000 A 
ATOM      5  C   UNL     1      49.580   4.808  17.775  0.00  0.00    +0.000 A 
ATOM      6  C   UNL     1      48.943   3.608  17.414  0.00  0.00    +0.000 A 
ATOM      7  C   UNL     1      49.735   2.457  17.265  0.00  0.00    +0.000 A 
ATOM      8  C   UNL     1      51.115   2.507  17.479  0.00  0.00    +0.000 A 
ATOM      9 CL   UNL     1      52.036   1.063  17.281  0.00  0.00    +0.000 Cl
ATOM     10  C   UNL     1      51.728   3.704  17.832  0.00  0.00    +0.000 A 
ATOM     11  F   UNL     1      53.055   3.749  18.023  0.00  0.00    +0.000 F 
BRANCH   4  12
ATOM     12  O   UNL     1      51.625   6.033  18.276  0.00  0.00    +0.000 OA
BRANCH  12  16
ATOM     13  C   UNL     1      53.107   8.088  14.542  0.00  0.00    +0.000 C 
ATOM     14  C   UNL     1      52.781   7.276  15.785  0.00  0.00    +0.000 C 
ATOM     15  C   UNL     1      51.280   6.910  15.903  0.00  0.00    +0.000 C 
ATOM     16  C   UNL     1      51.386   7.182  17.427  0.00  0.00    +0.000 C 
ATOM     17  C   UNL     1      52.610   8.071  17.107  0.00  0.00    +0.000 C 
BRANCH  14  18
ATOM     18  O   UNL     1      53.708   6.173  15.879  0.00  0.00    +0.000 OA
ATOM     19  H   UNL     1      54.451   6.494  16.417  0.00  0.00    +0.000 HD
ENDBRANCH  14  18
ENDBRANCH  12  16
ENDBRANCH   4  12
ENDBRANCH   1   6
BRANCH   1  20
ATOM     20  C   UNL     1      47.007   3.655  15.726  0.00  0.00    +0.000 C 
BRANCH  20  21
ATOM     21  N   UNL     1      47.142   4.965  15.058  0.00  0.00    +0.000 N 
ATOM     22  C   UNL     1      46.600   4.950  13.759  0.00  0.00    +0.000 A 
ATOM     23  C   UNL     1      46.632   6.105  12.970  0.00  0.00    +0.000 A 
ATOM     24  N   UNL     1      46.142   6.179  11.704  0.00  0.00    +0.000 NA
ATOM     25  C   UNL     1      45.580   5.024  11.252  0.00  0.00    +0.000 A 
ATOM     26  C   UNL     1      45.512   3.879  12.025  0.00  0.00    +0.000 A 
ATOM     27  N   UNL     1      46.015   3.825  13.285  0.00  0.00    +0.000 NA
ATOM     28  H   UNL     1      48.110   5.283  15.032  0.00  0.00    +0.000 HD
BRANCH  25  29
ATOM     29  C   UNL     1      45.050   4.999   9.862  0.00  0.00    +0.000 C 
ATOM     30  N   UNL     1      43.700   4.809   9.746  0.00  0.00    +0.000 N 
ATOM     31  O   UNL     1      45.770   5.147   8.886  0.00  0.00    +0.000 OA
ATOM     32  H   UNL     1      43.127   4.692  10.575  0.00  0.00    +0.000 HD
ATOM     33  H   UNL     1      43.279   4.793   8.829  0.00  0.00    +0.000 HD
ENDBRANCH  25  29
ENDBRANCH  20  21
ENDBRANCH   1  20
TORSDOF 7
ENDMDL
MODEL 6
REMARK VINA RESULT:    -6.584      4.005      6.162
REMARK INTER + INTRA:         -10.142
REMARK INTER:                  -9.122
REMARK INTRA:                  -1.020
REMARK UNBOUND:                -1.056
REMARK  Name = 
REMARK  8 active torsions:
REMARK  status: ('A' for Active; 'I' for Inactive)
REMARK    1  A    between atoms: C_1  and  C_2
REMARK    2  A    between atoms: C_2  and  O_3
REMARK    3  A    between atoms: C_5  and  O_6
REMARK    4  A    between atoms: O_6  and  C_7
REMARK    5  A    between atoms: C_9  and  C_10
REMARK    6  A    between atoms: C_10  and  C_13
REMARK    7  A    between atoms: C_13  and  N_14
REMARK    8  A    between atoms: C_18  and  C_19
REMARK                            x       y       z     vdW  Elec       q    Type
REMARK                         _______ _______ _______ _____ _____    ______ ____
ROOT
ATOM      1  C   UNL     1      47.890   3.180  16.862  0.00  0.00    +0.000 C 
ATOM      2  F   UNL     1      48.334   2.377  15.849  0.00  0.00    +0.000 F 
ATOM      3  F   UNL     1      47.161   2.350  17.675  0.00  0.00    +0.000 F 
ENDROOT
BRANCH   1   6
ATOM      4  C   UNL     1      49.825   5.512  19.177  0.00  0.00    +0.000 A 
ATOM      5  C   UNL     1      48.802   4.889  18.458  0.00  0.00    +0.000 A 
ATOM      6  C   UNL     1      49.061   3.789  17.623  0.00  0.00    +0.000 A 
ATOM      7  C   UNL     1      50.382   3.314  17.543  0.00  0.00    +0.000 A 
ATOM      8  C   UNL     1      51.403   3.920  18.280  0.00  0.00    +0.000 A 
ATOM      9 CL   UNL     1      53.005   3.297  18.141  0.00  0.00    +0.000 Cl
ATOM     10  C   UNL     1      51.128   5.010  19.098  0.00  0.00    +0.000 A 
ATOM     11  F   UNL     1      52.115   5.595  19.794  0.00  0.00    +0.000 F 
BRANCH   4  12
ATOM     12  O   UNL     1      49.615   6.617  19.970  0.00  0.00    +0.000 OA
BRANCH  12  16
ATOM     13  C   UNL     1      47.922  10.140  17.716  0.00  0.00    +0.000 C 
ATOM     14  C   UNL     1      48.311   8.856  18.429  0.00  0.00    +0.000 C 
ATOM     15  C   UNL     1      49.042   9.098  19.773  0.00  0.00    +0.000 C 
ATOM     16  C   UNL     1      49.974   7.909  19.421  0.00  0.00    +0.000 C 
ATOM     17  C   UNL     1      49.606   8.156  17.939  0.00  0.00    +0.000 C 
BRANCH  14  18
ATOM     18  O   UNL     1      47.159   7.987  18.485  0.00  0.00    +0.000 OA
ATOM     19  H   UNL     1      46.885   7.846  17.563  0.00  0.00    +0.000 HD
ENDBRANCH  14  18
ENDBRANCH  12  16
ENDBRANCH   4  12
ENDBRANCH   1   6
BRANCH   1  20
ATOM     20  C   UNL     1      46.917   4.228  16.278  0.00  0.00    +0.000 C 
BRANCH  20  21
ATOM     21  N   UNL     1      47.494   5.095  15.232  0.00  0.00    +0.000 N 
ATOM     22  C   UNL     1      46.721   5.082  14.055  0.00  0.00    +0.000 A 
ATOM     23  C   UNL     1      47.110   5.848  12.950  0.00  0.00    +0.000 A 
ATOM     24  N   UNL     1      46.432   5.889  11.773  0.00  0.00    +0.000 NA
ATOM     25  C   UNL     1      45.303   5.128  11.749  0.00  0.00    +0.000 A 
ATOM     26  C   UNL     1      44.885   4.385  12.839  0.00  0.00    +0.000 A 
ATOM     27  N   UNL     1      45.582   4.353  14.004  0.00  0.00    +0.000 NA
ATOM     28  H   UNL     1      48.460   4.849  15.022  0.00  0.00    +0.000 HD
BRANCH  25  29
ATOM     29  C   UNL     1      44.515   5.081  10.489  0.00  0.00    +0.000 C 
ATOM     30  N   UNL     1      45.244   5.089   9.331  0.00  0.00    +0.000 N 
ATOM     31  O   UNL     1      43.294   5.029  10.484  0.00  0.00    +0.000 OA
ATOM     32  H   UNL     1      46.257   5.130   9.367  0.00  0.00    +0.000 HD
ATOM     33  H   UNL     1      44.766   5.049   8.444  0.00  0.00    +0.000 HD
ENDBRANCH  25  29
ENDBRANCH  20  21
ENDBRANCH   1  20
TORSDOF 7
ENDMDL
MODEL 7
REMARK VINA RESULT:    -6.571      3.318      4.934
REMARK INTER + INTRA:         -10.125
REMARK INTER:                  -9.235
REMARK INTRA:                  -0.890
REMARK UNBOUND:                -1.056
REMARK  Name = 
REMARK  8 active torsions:
REMARK  status: ('A' for Active; 'I' for Inactive)
REMARK    1  A    between atoms: C_1  and  C_2
REMARK    2  A    between atoms: C_2  and  O_3
REMARK    3  A    between atoms: C_5  and  O_6
REMARK    4  A    between atoms: O_6  and  C_7
REMARK    5  A    between atoms: C_9  and  C_10
REMARK    6  A    between atoms: C_10  and  C_13
REMARK    7  A    between atoms: C_13  and  N_14
REMARK    8  A    between atoms: C_18  and  C_19
REMARK                            x       y       z     vdW  Elec       q    Type
REMARK                         _______ _______ _______ _____ _____    ______ ____
ROOT
ATOM      1  C   UNL     1      48.437   8.480  12.546  0.00  0.00    +0.000 C 
ATOM      2  F   UNL     1      48.690   9.679  11.941  0.00  0.00    +0.000 F 
ATOM      3  F   UNL     1      48.941   7.538  11.686  0.00  0.00    +0.000 F 
ENDROOT
BRANCH   1   6
ATOM      4  C   UNL     1      50.063   6.969  15.647  0.00  0.00    +0.000 A 
ATOM      5  C   UNL     1      49.442   7.126  14.405  0.00  0.00    +0.000 A 
ATOM      6  C   UNL     1      49.130   8.400  13.901  0.00  0.00    +0.000 A 
ATOM      7  C   UNL     1      49.477   9.522  14.673  0.00  0.00    +0.000 A 
ATOM      8  C   UNL     1      50.121   9.369  15.904  0.00  0.00    +0.000 A 
ATOM      9 CL   UNL     1      50.522  10.780  16.809  0.00  0.00    +0.000 Cl
ATOM     10  C   UNL     1      50.418   8.099  16.389  0.00  0.00    +0.000 A 
ATOM     11  F   UNL     1      51.025   7.958  17.576  0.00  0.00    +0.000 F 
BRANCH   4  12
ATOM     12  O   UNL     1      50.344   5.736  16.190  0.00  0.00    +0.000 OA
BRANCH  12  16
ATOM     13  C   UNL     1      47.178   2.896  17.698  0.00  0.00    +0.000 C 
ATOM     14  C   UNL     1      48.189   3.789  16.997  0.00  0.00    +0.000 C 
ATOM     15  C   UNL     1      49.563   3.838  17.709  0.00  0.00    +0.000 C 
ATOM     16  C   UNL     1      49.620   5.354  17.386  0.00  0.00    +0.000 C 
ATOM     17  C   UNL     1      48.079   5.312  17.275  0.00  0.00    +0.000 C 
BRANCH  14  18
ATOM     18  O   UNL     1      48.216   3.450  15.594  0.00  0.00    +0.000 OA
ATOM     19  H   UNL     1      47.376   2.997  15.411  0.00  0.00    +0.000 HD
ENDBRANCH  14  18
ENDBRANCH  12  16
ENDBRANCH   4  12
ENDBRANCH   1   6
BRANCH   1  20
ATOM     20  C   UNL     1      46.908   8.271  12.617  0.00  0.00    +0.000 C 
BRANCH  20  21
ATOM     21  N   UNL     1      46.468   7.226  13.563  0.00  0.00    +0.000 N 
ATOM     22  C   UNL     1      45.860   6.142  12.901  0.00  0.00    +0.000 A 
ATOM     23  C   UNL     1      45.380   5.051  13.634  0.00  0.00    +0.000 A 
ATOM     24  N   UNL     1      44.771   3.968  13.082  0.00  0.00    +0.000 NA
ATOM     25  C   UNL     1      44.678   4.010  11.724  0.00  0.00    +0.000 A 
ATOM     26  C   UNL     1      45.171   5.065  10.977  0.00  0.00    +0.000 A 
ATOM     27  N   UNL     1      45.769   6.141  11.551  0.00  0.00    +0.000 NA
ATOM     28  H   UNL     1      45.846   7.597  14.279  0.00  0.00    +0.000 HD
BRANCH  25  29
ATOM     29  C   UNL     1      43.993   2.885  11.033  0.00  0.00    +0.000 C 
ATOM     30  N   UNL     1      44.631   2.391   9.927  0.00  0.00    +0.000 N 
ATOM     31  O   UNL     1      42.934   2.423  11.430  0.00  0.00    +0.000 OA
ATOM     32  H   UNL     1      45.511   2.793   9.623  0.00  0.00    +0.000 HD
ATOM     33  H   UNL     1      44.220   1.620   9.422  0.00  0.00    +0.000 HD
ENDBRANCH  25  29
ENDBRANCH  20  21
ENDBRANCH   1  20
TORSDOF 7
ENDMDL
MODEL 8
REMARK VINA RESULT:    -6.360      4.414      7.320
REMARK INTER + INTRA:          -9.833
REMARK INTER:                  -8.561
REMARK INTRA:                  -1.271
REMARK UNBOUND:                -1.056
REMARK  Name = 
REMARK  8 active torsions:
REMARK  status: ('A' for Active; 'I' for Inactive)
REMARK    1  A    between atoms: C_1  and  C_2
REMARK    2  A    between atoms: C_2  and  O_3
REMARK    3  A    between atoms: C_5  and  O_6
REMARK    4  A    between atoms: O_6  and  C_7
REMARK    5  A    between atoms: C_9  and  C_10
REMARK    6  A    between atoms: C_10  and  C_13
REMARK    7  A    between atoms: C_13  and  N_14
REMARK    8  A    between atoms: C_18  and  C_19
REMARK                            x       y       z     vdW  Elec       q    Type
REMARK                         _______ _______ _______ _____ _____    ______ ____
ROOT
ATOM      1  C   UNL     1      48.261   7.682  12.000  0.00  0.00    +0.000 C 
ATOM      2  F   UNL     1      48.854   7.417  10.798  0.00  0.00    +0.000 F 
ATOM      3  F   UNL     1      47.698   8.924  11.850  0.00  0.00    +0.000 F 
ENDROOT
BRANCH   1   6
ATOM      4  C   UNL     1      46.451   4.854  13.808  0.00  0.00    +0.000 A 
ATOM      5  C   UNL     1      47.377   5.841  13.458  0.00  0.00    +0.000 A 
ATOM      6  C   UNL     1      47.194   6.641  12.318  0.00  0.00    +0.000 A 
ATOM      7  C   UNL     1      46.040   6.438  11.543  0.00  0.00    +0.000 A 
ATOM      8  C   UNL     1      45.099   5.469  11.904  0.00  0.00    +0.000 A 
ATOM      9 CL   UNL     1      43.703   5.262  10.914  0.00  0.00    +0.000 Cl
ATOM     10  C   UNL     1      45.299   4.682  13.034  0.00  0.00    +0.000 A 
ATOM     11  F   UNL     1      44.400   3.746  13.368  0.00  0.00    +0.000 F 
BRANCH   4  12
ATOM     12  O   UNL     1      46.619   4.023  14.892  0.00  0.00    +0.000 OA
BRANCH  12  16
ATOM     13  C   UNL     1      48.361   3.014  18.930  0.00  0.00    +0.000 C 
ATOM     14  C   UNL     1      47.596   3.268  17.642  0.00  0.00    +0.000 C 
ATOM     15  C   UNL     1      48.432   2.994  16.367  0.00  0.00    +0.000 C 
ATOM     16  C   UNL     1      47.779   4.249  15.731  0.00  0.00    +0.000 C 
ATOM     17  C   UNL     1      47.504   4.743  17.170  0.00  0.00    +0.000 C 
BRANCH  14  18
ATOM     18  O   UNL     1      46.320   2.595  17.717  0.00  0.00    +0.000 OA
ATOM     19  H   UNL     1      46.067   2.397  16.800  0.00  0.00    +0.000 HD
ENDBRANCH  14  18
ENDBRANCH  12  16
ENDBRANCH   4  12
ENDBRANCH   1   6
BRANCH   1  20
ATOM     20  C   UNL     1      49.357   7.799  13.082  0.00  0.00    +0.000 C 
BRANCH  20  21
ATOM     21  N   UNL     1      48.962   8.556  14.287  0.00  0.00    +0.000 N 
ATOM     22  C   UNL     1      49.467   7.971  15.463  0.00  0.00    +0.000 A 
ATOM     23  C   UNL     1      49.199   8.552  16.708  0.00  0.00    +0.000 A 
ATOM     24  N   UNL     1      49.637   8.052  17.894  0.00  0.00    +0.000 NA
ATOM     25  C   UNL     1      50.396   6.927  17.782  0.00  0.00    +0.000 A 
ATOM     26  C   UNL     1      50.697   6.352  16.559  0.00  0.00    +0.000 A 
ATOM     27  N   UNL     1      50.243   6.865  15.387  0.00  0.00    +0.000 NA
ATOM     28  H   UNL     1      47.951   8.667  14.354  0.00  0.00    +0.000 HD
BRANCH  25  29
ATOM     29  C   UNL     1      50.890   6.286  19.030  0.00  0.00    +0.000 C 
ATOM     30  N   UNL     1      51.026   7.116  20.109  0.00  0.00    +0.000 N 
ATOM     31  O   UNL     1      51.149   5.094  19.094  0.00  0.00    +0.000 OA
ATOM     32  H   UNL     1      50.800   8.102  20.027  0.00  0.00    +0.000 HD
ATOM     33  H   UNL     1      51.348   6.738  20.988  0.00  0.00    +0.000 HD
ENDBRANCH  25  29
ENDBRANCH  20  21
ENDBRANCH   1  20
TORSDOF 7
ENDMDL
MODEL 9
REMARK VINA RESULT:    -6.356      4.312      7.348
REMARK INTER + INTRA:          -9.827
REMARK INTER:                  -8.565
REMARK INTRA:                  -1.262
REMARK UNBOUND:                -1.056
REMARK  Name = 
REMARK  8 active torsions:
REMARK  status: ('A' for Active; 'I' for Inactive)
REMARK    1  A    between atoms: C_1  and  C_2
REMARK    2  A    between atoms: C_2  and  O_3
REMARK    3  A    between atoms: C_5  and  O_6
REMARK    4  A    between atoms: O_6  and  C_7
REMARK    5  A    between atoms: C_9  and  C_10
REMARK    6  A    between atoms: C_10  and  C_13
REMARK    7  A    between atoms: C_13  and  N_14
REMARK    8  A    between atoms: C_18  and  C_19
REMARK                            x       y       z     vdW  Elec       q    Type
REMARK                         _______ _______ _______ _____ _____    ______ ____
ROOT
ATOM      1  C   UNL     1      45.641   5.057  12.765  0.00  0.00    +0.000 C 
ATOM      2  F   UNL     1      44.571   4.693  13.533  0.00  0.00    +0.000 F 
ATOM      3  F   UNL     1      45.466   4.391  11.578  0.00  0.00    +0.000 F 
ENDROOT
BRANCH   1   6
ATOM      4  C   UNL     1      46.787   8.690  12.957  0.00  0.00    +0.000 A 
ATOM      5  C   UNL     1      46.710   7.302  13.105  0.00  0.00    +0.000 A 
ATOM      6  C   UNL     1      45.656   6.565  12.540  0.00  0.00    +0.000 A 
ATOM      7  C   UNL     1      44.684   7.258  11.800  0.00  0.00    +0.000 A 
ATOM      8  C   UNL     1      44.771   8.643  11.628  0.00  0.00    +0.000 A 
ATOM      9 CL   UNL     1      43.548   9.442  10.712  0.00  0.00    +0.000 Cl
ATOM     10  C   UNL     1      45.819   9.357  12.199  0.00  0.00    +0.000 A 
ATOM     11  F   UNL     1      45.891  10.687  12.042  0.00  0.00    +0.000 F 
BRANCH   4  12
ATOM     12  O   UNL     1      47.780   9.449  13.533  0.00  0.00    +0.000 OA
BRANCH  12  16
ATOM     13  C   UNL     1      51.813   8.289  11.874  0.00  0.00    +0.000 C 
ATOM     14  C   UNL     1      50.475   8.513  12.560  0.00  0.00    +0.000 C 
ATOM     15  C   UNL     1      49.347   8.930  11.584  0.00  0.00    +0.000 C 
ATOM     16  C   UNL     1      48.844   9.919  12.669  0.00  0.00    +0.000 C 
ATOM     17  C   UNL     1      50.275   9.886  13.255  0.00  0.00    +0.000 C 
BRANCH  14  18
ATOM     18  O   UNL     1      50.191   7.379  13.407  0.00  0.00    +0.000 OA
ATOM     19  H   UNL     1      49.412   6.945  13.021  0.00  0.00    +0.000 HD
ENDBRANCH  14  18
ENDBRANCH  12  16
ENDBRANCH   4  12
ENDBRANCH   1   6
BRANCH   1  20
ATOM     20  C   UNL     1      46.931   4.513  13.416  0.00  0.00    +0.000 C 
BRANCH  20  21
ATOM     21  N   UNL     1      46.715   3.650  14.594  0.00  0.00    +0.000 N 
ATOM     22  C   UNL     1      47.438   4.103  15.714  0.00  0.00    +0.000 A 
ATOM     23  C   UNL     1      47.357   3.412  16.929  0.00  0.00    +0.000 A 
ATOM     24  N   UNL     1      48.026   3.770  18.057  0.00  0.00    +0.000 NA
ATOM     25  C   UNL     1      48.785   4.893  17.926  0.00  0.00    +0.000 A 
ATOM     26  C   UNL     1      48.858   5.607  16.743  0.00  0.00    +0.000 A 
ATOM     27  N   UNL     1      48.186   5.227  15.626  0.00  0.00    +0.000 NA
ATOM     28  H   UNL     1      46.939   2.676  14.400  0.00  0.00    +0.000 HD
BRANCH  25  29
ATOM     29  C   UNL     1      49.583   5.341  19.098  0.00  0.00    +0.000 C 
ATOM     30  N   UNL     1      49.645   4.462  20.145  0.00  0.00    +0.000 N 
ATOM     31  O   UNL     1      50.156   6.420  19.124  0.00  0.00    +0.000 OA
ATOM     32  H   UNL     1      49.162   3.572  20.093  0.00  0.00    +0.000 HD
ATOM     33  H   UNL     1      50.180   4.706  20.966  0.00  0.00    +0.000 HD
ENDBRANCH  25  29
ENDBRANCH  20  21
ENDBRANCH   1  20
TORSDOF 7
ENDMDL
