MODEL 1
REMARK VINA RESULT:    -8.941      0.000      0.000
REMARK INTER + INTRA:         -13.423
REMARK INTER:                 -12.339
REMARK INTRA:                  -1.084
REMARK UNBOUND:                -1.084
REMARK  Name = 
REMARK  7 active torsions:
REMARK  status: ('A' for Active; 'I' for Inactive)
REMARK    1  A    between atoms: C_2  and  C_4
REMARK    2  A    between atoms: C_7  and  O_8
REMARK    3  A    between atoms: O_8  and  C_9
REMARK    4  A    between atoms: C_9  and  C_10
REMARK    5  A    between atoms: C_10  and  C_13
REMARK    6  A    between atoms: C_17  and  N_18
REMARK    7  A    between atoms: C_21  and  O_22
REMARK                            x       y       z     vdW  Elec       q    Type
REMARK                         _______ _______ _______ _____ _____    ______ ____
ROOT
ATOM      1  C   UNL     1      43.099   5.075  12.265  0.00  0.00    +0.000 C 
ATOM      2  F   UNL     1      42.045   5.874  11.914  0.00  0.00    +0.000 F 
ATOM      3  F   UNL     1      42.711   4.447  13.415  0.00  0.00    +0.000 F 
ENDROOT
BRANCH   1   4
ATOM      4  C   UNL     1      44.373   5.887  12.464  0.00  0.00    +0.000 A 
ATOM      5  C   UNL     1      44.492   7.196  11.986  0.00  0.00    +0.000 A 
ATOM      6  C   UNL     1      45.654   7.929  12.228  0.00  0.00    +0.000 A 
ATOM      7  C   UNL     1      46.702   7.369  12.964  0.00  0.00    +0.000 A 
ATOM      8  C   UNL     1      46.623   6.065  13.470  0.00  0.00    +0.000 A 
ATOM      9  C   UNL     1      45.452   5.340  13.184  0.00  0.00    +0.000 A 
BRANCH   8  10
ATOM     10  N   UNL     1      47.630   5.544  14.267  0.00  0.00    +0.000 N 
ATOM     11  C   UNL     1      48.748   6.383  14.694  0.00  0.00    +0.000 C 
ATOM     12  C   UNL     1      48.643   6.664  16.186  0.00  0.00    +0.000 C 
ATOM     13  C   UNL     1      48.517   5.370  16.986  0.00  0.00    +0.000 C 
ATOM     14  C   UNL     1      47.384   4.483  16.466  0.00  0.00    +0.000 C 
ATOM     15  C   UNL     1      47.467   4.260  14.954  0.00  0.00    +0.000 C 
BRANCH  13  16
ATOM     16  O   UNL     1      49.754   4.658  16.985  0.00  0.00    +0.000 OA
ATOM     17  H   UNL     1      50.284   4.943  17.748  0.00  0.00    +0.000 HD
ENDBRANCH  13  16
ENDBRANCH   8  10
ENDBRANCH   1   4
BRANCH   1  18
ATOM     18  C   UNL     1      43.298   4.019  11.163  0.00  0.00    +0.000 C 
BRANCH  18  19
ATOM     19  O   UNL     1      43.559   4.603   9.866  0.00  0.00    +0.000 OA
BRANCH  19  23
ATOM     20  C   UNL     1      46.366   2.433   7.748  0.00  0.00    +0.000 A 
ATOM     21  C   UNL     1      45.602   1.793   8.727  0.00  0.00    +0.000 A 
ATOM     22  C   UNL     1      44.659   2.531   9.452  0.00  0.00    +0.000 A 
ATOM     23  C   UNL     1      44.514   3.882   9.170  0.00  0.00    +0.000 A 
ATOM     24  N   UNL     1      45.258   4.525   8.241  0.00  0.00    +0.000 NA
ATOM     25  C   UNL     1      46.172   3.794   7.562  0.00  0.00    +0.000 A 
BRANCH  20  27
ATOM     26  N   UNL     1      48.468   2.466   6.541  0.00  0.00    +0.000 N 
ATOM     27  C   UNL     1      47.365   1.746   6.907  0.00  0.00    +0.000 C 
ATOM     28  O   UNL     1      47.242   0.566   6.594  0.00  0.00    +0.000 OA
ATOM     29  H   UNL     1      49.205   1.951   6.075  0.00  0.00    +0.000 HD
ATOM     30  H   UNL     1      48.724   3.330   6.998  0.00  0.00    +0.000 HD
ENDBRANCH  20  27
ENDBRANCH  19  23
ENDBRANCH  18  19
ENDBRANCH   1  18
TORSDOF 7
ENDMDL
MODEL 2
REMARK VINA RESULT:    -8.783      1.991      3.017
REMARK INTER + INTRA:         -13.204
REMARK INTER:                 -11.929
REMARK INTRA:                  -1.275
REMARK UNBOUND:                -1.084
REMARK  Name = 
REMARK  7 active torsions:
REMARK  status: ('A' for Active; 'I' for Inactive)
REMARK    1  A    between atoms: C_2  and  C_4
REMARK    2  A    between atoms: C_7  and  O_8
REMARK    3  A    between atoms: O_8  and  C_9
REMARK    4  A    between atoms: C_9  and  C_10
REMARK    5  A    between atoms: C_10  and  C_13
REMARK    6  A    between atoms: C_17  and  N_18
REMARK    7  A    between atoms: C_21  and  O_22
REMARK                            x       y       z     vdW  Elec       q    Type
REMARK                         _______ _______ _______ _____ _____    ______ ____
ROOT
ATOM      1  C   UNL     1      43.500   5.154  12.261  0.00  0.00    +0.000 C 
ATOM      2  F   UNL     1      43.199   6.370  11.711  0.00  0.00    +0.000 F 
ATOM      3  F   UNL     1      42.580   4.968  13.254  0.00  0.00    +0.000 F 
ENDROOT
BRANCH   1   4
ATOM      4  C   UNL     1      44.927   5.121  12.796  0.00  0.00    +0.000 A 
ATOM      5  C   UNL     1      45.557   3.919  13.135  0.00  0.00    +0.000 A 
ATOM      6  C   UNL     1      46.881   3.920  13.575  0.00  0.00    +0.000 A 
ATOM      7  C   UNL     1      47.593   5.119  13.667  0.00  0.00    +0.000 A 
ATOM      8  C   UNL     1      47.005   6.345  13.329  0.00  0.00    +0.000 A 
ATOM      9  C   UNL     1      45.661   6.315  12.918  0.00  0.00    +0.000 A 
BRANCH   8  10
ATOM     10  N   UNL     1      47.741   7.519  13.344  0.00  0.00    +0.000 N 
ATOM     11  C   UNL     1      49.152   7.517  12.962  0.00  0.00    +0.000 C 
ATOM     12  C   UNL     1      49.327   8.222  11.625  0.00  0.00    +0.000 C 
ATOM     13  C   UNL     1      48.708   9.618  11.649  0.00  0.00    +0.000 C 
ATOM     14  C   UNL     1      47.254   9.592  12.124  0.00  0.00    +0.000 C 
ATOM     15  C   UNL     1      47.084   8.826  13.438  0.00  0.00    +0.000 C 
BRANCH  13  16
ATOM     16  O   UNL     1      49.487  10.497  12.463  0.00  0.00    +0.000 OA
ATOM     17  H   UNL     1      50.168  10.917  11.912  0.00  0.00    +0.000 HD
ENDBRANCH  13  16
ENDBRANCH   8  10
ENDBRANCH   1   4
BRANCH   1  18
ATOM     18  C   UNL     1      43.301   4.070  11.187  0.00  0.00    +0.000 C 
BRANCH  18  19
ATOM     19  O   UNL     1      43.478   4.573   9.842  0.00  0.00    +0.000 OA
BRANCH  19  23
ATOM     20  C   UNL     1      46.380   2.472   7.784  0.00  0.00    +0.000 A 
ATOM     21  C   UNL     1      45.566   1.799   8.699  0.00  0.00    +0.000 A 
ATOM     22  C   UNL     1      44.590   2.513   9.404  0.00  0.00    +0.000 A 
ATOM     23  C   UNL     1      44.465   3.875   9.167  0.00  0.00    +0.000 A 
ATOM     24  N   UNL     1      45.255   4.549   8.301  0.00  0.00    +0.000 NA
ATOM     25  C   UNL     1      46.200   3.840   7.641  0.00  0.00    +0.000 A 
BRANCH  20  27
ATOM     26  N   UNL     1      48.468   2.585   6.559  0.00  0.00    +0.000 N 
ATOM     27  C   UNL     1      47.418   1.813   6.968  0.00  0.00    +0.000 C 
ATOM     28  O   UNL     1      47.371   0.613   6.712  0.00  0.00    +0.000 OA
ATOM     29  H   UNL     1      49.235   2.098   6.111  0.00  0.00    +0.000 HD
ATOM     30  H   UNL     1      48.669   3.485   6.972  0.00  0.00    +0.000 HD
ENDBRANCH  20  27
ENDBRANCH  19  23
ENDBRANCH  18  19
ENDBRANCH   1  18
TORSDOF 7
ENDMDL
MODEL 3
REMARK VINA RESULT:    -8.740      1.344      2.008
REMARK INTER + INTRA:         -13.146
REMARK INTER:                 -12.122
REMARK INTRA:                  -1.023
REMARK UNBOUND:                -1.084
REMARK  Name = 
REMARK  7 active torsions:
REMARK  status: ('A' for Active; 'I' for Inactive)
REMARK    1  A    between atoms: C_2  and  C_4
REMARK    2  A    between atoms: C_7  and  O_8
REMARK    3  A    between atoms: O_8  and  C_9
REMARK    4  A    between atoms: C_9  and  C_10
REMARK    5  A    between atoms: C_10  and  C_13
REMARK    6  A    between atoms: C_17  and  N_18
REMARK    7  A    between atoms: C_21  and  O_22
REMARK                            x       y       z     vdW  Elec       q    Type
REMARK                         _______ _______ _______ _____ _____    ______ ____
ROOT
ATOM      1  C   UNL     1      44.382   4.267  12.500  0.00  0.00    +0.000 C 
ATOM      2  F   UNL     1      43.331   4.542  13.331  0.00  0.00    +0.000 F 
ATOM      3  F   UNL     1      44.437   2.904  12.425  0.00  0.00    +0.000 F 
ENDROOT
BRANCH   1   4
ATOM      4  C   UNL     1      45.682   4.859  13.030  0.00  0.00    +0.000 A 
ATOM      5  C   UNL     1      46.409   5.807  12.301  0.00  0.00    +0.000 A 
ATOM      6  C   UNL     1      47.569   6.365  12.837  0.00  0.00    +0.000 A 
ATOM      7  C   UNL     1      48.008   5.995  14.111  0.00  0.00    +0.000 A 
ATOM      8  C   UNL     1      47.307   5.057  14.880  0.00  0.00    +0.000 A 
ATOM      9  C   UNL     1      46.159   4.489  14.301  0.00  0.00    +0.000 A 
BRANCH   8  10
ATOM     10  N   UNL     1      47.701   4.755  16.174  0.00  0.00    +0.000 N 
ATOM     11  C   UNL     1      47.501   3.413  16.719  0.00  0.00    +0.000 C 
ATOM     12  C   UNL     1      48.843   2.712  16.870  0.00  0.00    +0.000 C 
ATOM     13  C   UNL     1      49.821   3.556  17.684  0.00  0.00    +0.000 C 
ATOM     14  C   UNL     1      49.950   4.976  17.131  0.00  0.00    +0.000 C 
ATOM     15  C   UNL     1      48.590   5.647  16.924  0.00  0.00    +0.000 C 
BRANCH  13  16
ATOM     16  O   UNL     1      49.433   3.585  19.058  0.00  0.00    +0.000 OA
ATOM     17  H   UNL     1      50.210   3.803  19.601  0.00  0.00    +0.000 HD
ENDBRANCH  13  16
ENDBRANCH   8  10
ENDBRANCH   1   4
BRANCH   1  18
ATOM     18  C   UNL     1      44.061   4.830  11.105  0.00  0.00    +0.000 C 
BRANCH  18  19
ATOM     19  O   UNL     1      43.574   3.821  10.189  0.00  0.00    +0.000 OA
BRANCH  19  23
ATOM     20  C   UNL     1      46.467   2.640   7.485  0.00  0.00    +0.000 A 
ATOM     21  C   UNL     1      45.933   1.701   8.370  0.00  0.00    +0.000 A 
ATOM     22  C   UNL     1      44.961   2.103   9.294  0.00  0.00    +0.000 A 
ATOM     23  C   UNL     1      44.559   3.432   9.297  0.00  0.00    +0.000 A 
ATOM     24  N   UNL     1      45.078   4.361   8.462  0.00  0.00    +0.000 NA
ATOM     25  C   UNL     1      46.025   3.951   7.587  0.00  0.00    +0.000 A 
BRANCH  20  27
ATOM     26  N   UNL     1      47.470   3.087   5.324  0.00  0.00    +0.000 N 
ATOM     27  C   UNL     1      47.473   2.319   6.454  0.00  0.00    +0.000 C 
ATOM     28  O   UNL     1      48.310   1.438   6.624  0.00  0.00    +0.000 OA
ATOM     29  H   UNL     1      48.240   2.944   4.683  0.00  0.00    +0.000 HD
ATOM     30  H   UNL     1      46.983   3.971   5.274  0.00  0.00    +0.000 HD
ENDBRANCH  20  27
ENDBRANCH  19  23
ENDBRANCH  18  19
ENDBRANCH   1  18
TORSDOF 7
ENDMDL
MODEL 4
REMARK VINA RESULT:    -7.815      2.229      2.823
REMARK INTER + INTRA:         -11.869
REMARK INTER:                 -10.885
REMARK INTRA:                  -0.984
REMARK UNBOUND:                -1.084
REMARK  Name = 
REMARK  7 active torsions:
REMARK  status: ('A' for Active; 'I' for Inactive)
REMARK    1  A    between atoms: C_2  and  C_4
REMARK    2  A    between atoms: C_7  and  O_8
REMARK    3  A    between atoms: O_8  and  C_9
REMARK    4  A    between atoms: C_9  and  C_10
REMARK    5  A    between atoms: C_10  and  C_13
REMARK    6  A    between atoms: C_17  and  N_18
REMARK    7  A    between atoms: C_21  and  O_22
REMARK                            x       y       z     vdW  Elec       q    Type
REMARK                         _______ _______ _______ _____ _____    ______ ____
ROOT
ATOM      1  C   UNL     1      44.635   5.417  12.023  0.00  0.00    +0.000 C 
ATOM      2  F   UNL     1      43.658   5.443  12.981  0.00  0.00    +0.000 F 
ATOM      3  F   UNL     1      45.340   4.270  12.256  0.00  0.00    +0.000 F 
ENDROOT
BRANCH   1   4
ATOM      4  C   UNL     1      45.522   6.653  12.096  0.00  0.00    +0.000 A 
ATOM      5  C   UNL     1      44.983   7.945  12.107  0.00  0.00    +0.000 A 
ATOM      6  C   UNL     1      45.821   9.054  12.225  0.00  0.00    +0.000 A 
ATOM      7  C   UNL     1      47.203   8.885  12.348  0.00  0.00    +0.000 A 
ATOM      8  C   UNL     1      47.785   7.611  12.350  0.00  0.00    +0.000 A 
ATOM      9  C   UNL     1      46.918   6.514  12.200  0.00  0.00    +0.000 A 
BRANCH   8  10
ATOM     10  N   UNL     1      49.146   7.447  12.555  0.00  0.00    +0.000 N 
ATOM     11  C   UNL     1      50.085   7.565  11.440  0.00  0.00    +0.000 C 
ATOM     12  C   UNL     1      50.905   8.838  11.587  0.00  0.00    +0.000 C 
ATOM     13  C   UNL     1      51.577   8.909  12.956  0.00  0.00    +0.000 C 
ATOM     14  C   UNL     1      50.579   8.708  14.097  0.00  0.00    +0.000 C 
ATOM     15  C   UNL     1      49.718   7.457  13.904  0.00  0.00    +0.000 C 
BRANCH  13  16
ATOM     16  O   UNL     1      52.637   7.956  13.043  0.00  0.00    +0.000 OA
ATOM     17  H   UNL     1      53.439   8.337  12.646  0.00  0.00    +0.000 HD
ENDBRANCH  13  16
ENDBRANCH   8  10
ENDBRANCH   1   4
BRANCH   1  18
ATOM     18  C   UNL     1      43.961   5.316  10.643  0.00  0.00    +0.000 C 
BRANCH  18  19
ATOM     19  O   UNL     1      43.704   3.950  10.242  0.00  0.00    +0.000 OA
BRANCH  19  23
ATOM     20  C   UNL     1      46.498   2.590   7.519  0.00  0.00    +0.000 A 
ATOM     21  C   UNL     1      45.926   1.689   8.420  0.00  0.00    +0.000 A 
ATOM     22  C   UNL     1      44.988   2.152   9.350  0.00  0.00    +0.000 A 
ATOM     23  C   UNL     1      44.656   3.500   9.343  0.00  0.00    +0.000 A 
ATOM     24  N   UNL     1      45.213   4.392   8.492  0.00  0.00    +0.000 NA
ATOM     25  C   UNL     1      46.128   3.923   7.611  0.00  0.00    +0.000 A 
BRANCH  20  27
ATOM     26  N   UNL     1      47.722   3.117   5.494  0.00  0.00    +0.000 N 
ATOM     27  C   UNL     1      47.474   2.205   6.480  0.00  0.00    +0.000 C 
ATOM     28  O   UNL     1      48.077   1.137   6.527  0.00  0.00    +0.000 OA
ATOM     29  H   UNL     1      48.483   2.898   4.862  0.00  0.00    +0.000 HD
ATOM     30  H   UNL     1      47.453   4.088   5.577  0.00  0.00    +0.000 HD
ENDBRANCH  20  27
ENDBRANCH  19  23
ENDBRANCH  18  19
ENDBRANCH   1  18
TORSDOF 7
ENDMDL
MODEL 5
REMARK VINA RESULT:    -7.575      2.156      3.022
REMARK INTER + INTRA:         -11.537
REMARK INTER:                 -10.713
REMARK INTRA:                  -0.824
REMARK UNBOUND:                -1.084
REMARK  Name = 
REMARK  7 active torsions:
REMARK  status: ('A' for Active; 'I' for Inactive)
REMARK    1  A    between atoms: C_2  and  C_4
REMARK    2  A    between atoms: C_7  and  O_8
REMARK    3  A    between atoms: O_8  and  C_9
REMARK    4  A    between atoms: C_9  and  C_10
REMARK    5  A    between atoms: C_10  and  C_13
REMARK    6  A    between atoms: C_17  and  N_18
REMARK    7  A    between atoms: C_21  and  O_22
REMARK                            x       y       z     vdW  Elec       q    Type
REMARK                         _______ _______ _______ _____ _____    ______ ____
ROOT
ATOM      1  C   UNL     1      44.810   6.118  11.420  0.00  0.00    +0.000 C 
ATOM      2  F   UNL     1      45.479   6.434  10.269  0.00  0.00    +0.000 F 
ATOM      3  F   UNL     1      43.962   7.166  11.645  0.00  0.00    +0.000 F 
ENDROOT
BRANCH   1   4
ATOM      4  C   UNL     1      45.770   5.906  12.584  0.00  0.00    +0.000 A 
ATOM      5  C   UNL     1      45.837   4.687  13.268  0.00  0.00    +0.000 A 
ATOM      6  C   UNL     1      46.762   4.509  14.297  0.00  0.00    +0.000 A 
ATOM      7  C   UNL     1      47.639   5.540  14.644  0.00  0.00    +0.000 A 
ATOM      8  C   UNL     1      47.614   6.774  13.980  0.00  0.00    +0.000 A 
ATOM      9  C   UNL     1      46.651   6.933  12.968  0.00  0.00    +0.000 A 
BRANCH   8  10
ATOM     10  N   UNL     1      48.539   7.763  14.273  0.00  0.00    +0.000 N 
ATOM     11  C   UNL     1      49.305   7.720  15.518  0.00  0.00    +0.000 C 
ATOM     12  C   UNL     1      50.761   7.393  15.218  0.00  0.00    +0.000 C 
ATOM     13  C   UNL     1      51.342   8.352  14.183  0.00  0.00    +0.000 C 
ATOM     14  C   UNL     1      50.477   8.429  12.923  0.00  0.00    +0.000 C 
ATOM     15  C   UNL     1      49.005   8.696  13.244  0.00  0.00    +0.000 C 
BRANCH  13  16
ATOM     16  O   UNL     1      51.522   9.651  14.749  0.00  0.00    +0.000 OA
ATOM     17  H   UNL     1      51.724  10.281  14.037  0.00  0.00    +0.000 HD
ENDBRANCH  13  16
ENDBRANCH   8  10
ENDBRANCH   1   4
BRANCH   1  18
ATOM     18  C   UNL     1      43.978   4.849  11.167  0.00  0.00    +0.000 C 
BRANCH  18  19
ATOM     19  O   UNL     1      43.621   4.680   9.775  0.00  0.00    +0.000 OA
BRANCH  19  23
ATOM     20  C   UNL     1      46.177   2.007   7.932  0.00  0.00    +0.000 A 
ATOM     21  C   UNL     1      46.219   3.355   7.570  0.00  0.00    +0.000 A 
ATOM     22  C   UNL     1      45.345   4.259   8.186  0.00  0.00    +0.000 A 
ATOM     23  C   UNL     1      44.462   3.779   9.144  0.00  0.00    +0.000 A 
ATOM     24  N   UNL     1      44.391   2.475   9.494  0.00  0.00    +0.000 NA
ATOM     25  C   UNL     1      45.236   1.618   8.875  0.00  0.00    +0.000 A 
BRANCH  20  27
ATOM     26  N   UNL     1      46.792  -0.324   7.683  0.00  0.00    +0.000 N 
ATOM     27  C   UNL     1      47.070   0.976   7.369  0.00  0.00    +0.000 C 
ATOM     28  O   UNL     1      47.988   1.266   6.607  0.00  0.00    +0.000 OA
ATOM     29  H   UNL     1      47.329  -1.028   7.191  0.00  0.00    +0.000 HD
ATOM     30  H   UNL     1      45.904  -0.607   8.074  0.00  0.00    +0.000 HD
ENDBRANCH  20  27
ENDBRANCH  19  23
ENDBRANCH  18  19
ENDBRANCH   1  18
TORSDOF 7
ENDMDL
MODEL 6
REMARK VINA RESULT:    -7.380      3.645      7.392
REMARK INTER + INTRA:         -11.268
REMARK INTER:                  -9.977
REMARK INTRA:                  -1.291
REMARK UNBOUND:                -1.084
REMARK  Name = 
REMARK  7 active torsions:
REMARK  status: ('A' for Active; 'I' for Inactive)
REMARK    1  A    between atoms: C_2  and  C_4
REMARK    2  A    between atoms: C_7  and  O_8
REMARK    3  A    between atoms: O_8  and  C_9
REMARK    4  A    between atoms: C_9  and  C_10
REMARK    5  A    between atoms: C_10  and  C_13
REMARK    6  A    between atoms: C_17  and  N_18
REMARK    7  A    between atoms: C_21  and  O_22
REMARK                            x       y       z     vdW  Elec       q    Type
REMARK                         _______ _______ _______ _____ _____    ______ ____
ROOT
ATOM      1  C   UNL     1      49.009   8.129  11.976  0.00  0.00    +0.000 C 
ATOM      2  F   UNL     1      49.591   9.366  12.040  0.00  0.00    +0.000 F 
ATOM      3  F   UNL     1      49.470   7.571  10.818  0.00  0.00    +0.000 F 
ENDROOT
BRANCH   1   4
ATOM      4  C   UNL     1      47.489   8.226  11.993  0.00  0.00    +0.000 A 
ATOM      5  C   UNL     1      46.832   9.449  12.173  0.00  0.00    +0.000 A 
ATOM      6  C   UNL     1      45.440   9.510  12.134  0.00  0.00    +0.000 A 
ATOM      7  C   UNL     1      44.688   8.356  11.901  0.00  0.00    +0.000 A 
ATOM      8  C   UNL     1      45.302   7.112  11.707  0.00  0.00    +0.000 A 
ATOM      9  C   UNL     1      46.706   7.076  11.781  0.00  0.00    +0.000 A 
BRANCH   8  10
ATOM     10  N   UNL     1      44.556   5.986  11.395  0.00  0.00    +0.000 N 
ATOM     11  C   UNL     1      45.215   4.747  10.985  0.00  0.00    +0.000 C 
ATOM     12  C   UNL     1      45.079   3.702  12.082  0.00  0.00    +0.000 C 
ATOM     13  C   UNL     1      43.619   3.507  12.483  0.00  0.00    +0.000 C 
ATOM     14  C   UNL     1      42.939   4.831  12.835  0.00  0.00    +0.000 C 
ATOM     15  C   UNL     1      43.138   5.893  11.751  0.00  0.00    +0.000 C 
BRANCH  13  16
ATOM     16  O   UNL     1      42.901   2.833  11.449  0.00  0.00    +0.000 OA
ATOM     17  H   UNL     1      42.678   3.471  10.751  0.00  0.00    +0.000 HD
ENDBRANCH  13  16
ENDBRANCH   8  10
ENDBRANCH   1   4
BRANCH   1  18
ATOM     18  C   UNL     1      49.511   7.293  13.167  0.00  0.00    +0.000 C 
BRANCH  18  19
ATOM     19  O   UNL     1      49.005   7.765  14.438  0.00  0.00    +0.000 OA
BRANCH  19  23
ATOM     20  C   UNL     1      47.947   4.653  16.941  0.00  0.00    +0.000 A 
ATOM     21  C   UNL     1      48.635   5.749  17.465  0.00  0.00    +0.000 A 
ATOM     22  C   UNL     1      49.004   6.798  16.615  0.00  0.00    +0.000 A 
ATOM     23  C   UNL     1      48.668   6.712  15.271  0.00  0.00    +0.000 A 
ATOM     24  N   UNL     1      48.020   5.651  14.740  0.00  0.00    +0.000 NA
ATOM     25  C   UNL     1      47.685   4.643  15.579  0.00  0.00    +0.000 A 
BRANCH  20  27
ATOM     26  N   UNL     1      48.239   3.177  18.842  0.00  0.00    +0.000 N 
ATOM     27  C   UNL     1      47.486   3.508  17.751  0.00  0.00    +0.000 C 
ATOM     28  O   UNL     1      46.444   2.914  17.490  0.00  0.00    +0.000 OA
ATOM     29  H   UNL     1      47.847   2.477  19.460  0.00  0.00    +0.000 HD
ATOM     30  H   UNL     1      48.932   3.802  19.229  0.00  0.00    +0.000 HD
ENDBRANCH  20  27
ENDBRANCH  19  23
ENDBRANCH  18  19
ENDBRANCH   1  18
TORSDOF 7
ENDMDL
MODEL 7
REMARK VINA RESULT:    -7.301      2.213      8.047
REMARK INTER + INTRA:         -11.159
REMARK INTER:                 -10.305
REMARK INTRA:                  -0.854
REMARK UNBOUND:                -1.084
REMARK  Name = 
REMARK  7 active torsions:
REMARK  status: ('A' for Active; 'I' for Inactive)
REMARK    1  A    between atoms: C_2  and  C_4
REMARK    2  A    between atoms: C_7  and  O_8
REMARK    3  A    between atoms: O_8  and  C_9
REMARK    4  A    between atoms: C_9  and  C_10
REMARK    5  A    between atoms: C_10  and  C_13
REMARK    6  A    between atoms: C_17  and  N_18
REMARK    7  A    between atoms: C_21  and  O_22
REMARK                            x       y       z     vdW  Elec       q    Type
REMARK                         _______ _______ _______ _____ _____    ______ ____
ROOT
ATOM      1  C   UNL     1      45.820   6.287  12.472  0.00  0.00    +0.000 C 
ATOM      2  F   UNL     1      45.026   6.990  13.337  0.00  0.00    +0.000 F 
ATOM      3  F   UNL     1      46.097   7.152  11.451  0.00  0.00    +0.000 F 
ENDROOT
BRANCH   1   4
ATOM      4  C   UNL     1      45.123   5.027  11.974  0.00  0.00    +0.000 A 
ATOM      5  C   UNL     1      44.169   4.359  12.750  0.00  0.00    +0.000 A 
ATOM      6  C   UNL     1      43.514   3.236  12.244  0.00  0.00    +0.000 A 
ATOM      7  C   UNL     1      43.791   2.778  10.953  0.00  0.00    +0.000 A 
ATOM      8  C   UNL     1      44.732   3.420  10.138  0.00  0.00    +0.000 A 
ATOM      9  C   UNL     1      45.398   4.531  10.686  0.00  0.00    +0.000 A 
BRANCH   8  10
ATOM     10  N   UNL     1      44.944   3.011   8.831  0.00  0.00    +0.000 N 
ATOM     11  C   UNL     1      45.218   3.989   7.780  0.00  0.00    +0.000 C 
ATOM     12  C   UNL     1      46.669   3.875   7.334  0.00  0.00    +0.000 C 
ATOM     13  C   UNL     1      47.014   2.443   6.933  0.00  0.00    +0.000 C 
ATOM     14  C   UNL     1      46.646   1.438   8.026  0.00  0.00    +0.000 C 
ATOM     15  C   UNL     1      45.204   1.605   8.509  0.00  0.00    +0.000 C 
BRANCH  13  16
ATOM     16  O   UNL     1      46.380   2.101   5.701  0.00  0.00    +0.000 OA
ATOM     17  H   UNL     1      45.420   2.044   5.844  0.00  0.00    +0.000 HD
ENDBRANCH  13  16
ENDBRANCH   8  10
ENDBRANCH   1   4
BRANCH   1  18
ATOM     18  C   UNL     1      47.131   5.930  13.193  0.00  0.00    +0.000 C 
BRANCH  18  19
ATOM     19  O   UNL     1      47.167   4.556  13.646  0.00  0.00    +0.000 OA
BRANCH  19  23
ATOM     20  C   UNL     1      48.379   4.314  17.589  0.00  0.00    +0.000 A 
ATOM     21  C   UNL     1      48.441   5.543  16.928  0.00  0.00    +0.000 A 
ATOM     22  C   UNL     1      48.041   5.622  15.589  0.00  0.00    +0.000 A 
ATOM     23  C   UNL     1      47.593   4.468  14.961  0.00  0.00    +0.000 A 
ATOM     24  N   UNL     1      47.544   3.265  15.576  0.00  0.00    +0.000 NA
ATOM     25  C   UNL     1      47.948   3.211  16.867  0.00  0.00    +0.000 A 
BRANCH  20  27
ATOM     26  N   UNL     1      48.295   2.988  19.617  0.00  0.00    +0.000 N 
ATOM     27  C   UNL     1      48.748   4.123  19.005  0.00  0.00    +0.000 C 
ATOM     28  O   UNL     1      49.474   4.919  19.594  0.00  0.00    +0.000 OA
ATOM     29  H   UNL     1      48.658   2.804  20.544  0.00  0.00    +0.000 HD
ATOM     30  H   UNL     1      47.934   2.202  19.095  0.00  0.00    +0.000 HD
ENDBRANCH  20  27
ENDBRANCH  19  23
ENDBRANCH  18  19
ENDBRANCH   1  18
TORSDOF 7
ENDMDL
MODEL 8
REMARK VINA RESULT:    -6.815      3.834      6.435
REMARK INTER + INTRA:         -10.489
REMARK INTER:                  -9.588
REMARK INTRA:                  -0.901
REMARK UNBOUND:                -1.084
REMARK  Name = 
REMARK  7 active torsions:
REMARK  status: ('A' for Active; 'I' for Inactive)
REMARK    1  A    between atoms: C_2  and  C_4
REMARK    2  A    between atoms: C_7  and  O_8
REMARK    3  A    between atoms: O_8  and  C_9
REMARK    4  A    between atoms: C_9  and  C_10
REMARK    5  A    between atoms: C_10  and  C_13
REMARK    6  A    between atoms: C_17  and  N_18
REMARK    7  A    between atoms: C_21  and  O_22
REMARK                            x       y       z     vdW  Elec       q    Type
REMARK                         _______ _______ _______ _____ _____    ______ ____
ROOT
ATOM      1  C   UNL     1      48.144   2.951  16.851  0.00  0.00    +0.000 C 
ATOM      2  F   UNL     1      47.171   2.483  17.692  0.00  0.00    +0.000 F 
ATOM      3  F   UNL     1      48.657   1.843  16.238  0.00  0.00    +0.000 F 
ENDROOT
BRANCH   1   4
ATOM      4  C   UNL     1      49.214   3.725  17.612  0.00  0.00    +0.000 A 
ATOM      5  C   UNL     1      50.546   3.299  17.644  0.00  0.00    +0.000 A 
ATOM      6  C   UNL     1      51.510   4.057  18.309  0.00  0.00    +0.000 A 
ATOM      7  C   UNL     1      51.157   5.256  18.935  0.00  0.00    +0.000 A 
ATOM      8  C   UNL     1      49.837   5.726  18.920  0.00  0.00    +0.000 A 
ATOM      9  C   UNL     1      48.883   4.925  18.268  0.00  0.00    +0.000 A 
BRANCH   8  10
ATOM     10  N   UNL     1      49.510   6.954  19.472  0.00  0.00    +0.000 N 
ATOM     11  C   UNL     1      50.372   8.116  19.264  0.00  0.00    +0.000 C 
ATOM     12  C   UNL     1      49.686   9.111  18.339  0.00  0.00    +0.000 C 
ATOM     13  C   UNL     1      48.294   9.473  18.850  0.00  0.00    +0.000 C 
ATOM     14  C   UNL     1      47.443   8.232  19.127  0.00  0.00    +0.000 C 
ATOM     15  C   UNL     1      48.170   7.213  20.007  0.00  0.00    +0.000 C 
BRANCH  13  16
ATOM     16  O   UNL     1      48.386  10.290  20.018  0.00  0.00    +0.000 OA
ATOM     17  H   UNL     1      49.028  11.002  19.857  0.00  0.00    +0.000 HD
ENDBRANCH  13  16
ENDBRANCH   8  10
ENDBRANCH   1   4
BRANCH   1  18
ATOM     18  C   UNL     1      47.481   3.846  15.790  0.00  0.00    +0.000 C 
BRANCH  18  19
ATOM     19  O   UNL     1      47.506   3.261  14.467  0.00  0.00    +0.000 OA
BRANCH  19  23
ATOM     20  C   UNL     1      44.668   4.946  11.980  0.00  0.00    +0.000 A 
ATOM     21  C   UNL     1      45.436   5.774  12.803  0.00  0.00    +0.000 A 
ATOM     22  C   UNL     1      46.389   5.202  13.653  0.00  0.00    +0.000 A 
ATOM     23  C   UNL     1      46.540   3.822  13.648  0.00  0.00    +0.000 A 
ATOM     24  N   UNL     1      45.793   3.002  12.875  0.00  0.00    +0.000 NA
ATOM     25  C   UNL     1      44.869   3.577  12.070  0.00  0.00    +0.000 A 
BRANCH  20  27
ATOM     26  N   UNL     1      43.103   6.664  11.292  0.00  0.00    +0.000 N 
ATOM     27  C   UNL     1      43.657   5.444  11.027  0.00  0.00    +0.000 C 
ATOM     28  O   UNL     1      43.366   4.818  10.012  0.00  0.00    +0.000 OA
ATOM     29  H   UNL     1      42.510   7.053  10.569  0.00  0.00    +0.000 HD
ATOM     30  H   UNL     1      43.511   7.310  11.954  0.00  0.00    +0.000 HD
ENDBRANCH  20  27
ENDBRANCH  19  23
ENDBRANCH  18  19
ENDBRANCH   1  18
TORSDOF 7
ENDMDL
MODEL 9
REMARK VINA RESULT:    -6.800      3.323      4.969
REMARK INTER + INTRA:         -10.468
REMARK INTER:                  -9.265
REMARK INTRA:                  -1.203
REMARK UNBOUND:                -1.084
REMARK  Name = 
REMARK  7 active torsions:
REMARK  status: ('A' for Active; 'I' for Inactive)
REMARK    1  A    between atoms: C_2  and  C_4
REMARK    2  A    between atoms: C_7  and  O_8
REMARK    3  A    between atoms: O_8  and  C_9
REMARK    4  A    between atoms: C_9  and  C_10
REMARK    5  A    between atoms: C_10  and  C_13
REMARK    6  A    between atoms: C_17  and  N_18
REMARK    7  A    between atoms: C_21  and  O_22
REMARK                            x       y       z     vdW  Elec       q    Type
REMARK                         _______ _______ _______ _____ _____    ______ ____
ROOT
ATOM      1  C   UNL     1      48.815   7.453  13.017  0.00  0.00    +0.000 C 
ATOM      2  F   UNL     1      48.941   6.105  12.819  0.00  0.00    +0.000 F 
ATOM      3  F   UNL     1      49.894   8.013  12.394  0.00  0.00    +0.000 F 
ENDROOT
BRANCH   1   4
ATOM      4  C   UNL     1      48.774   7.798  14.501  0.00  0.00    +0.000 A 
ATOM      5  C   UNL     1      48.636   9.117  14.945  0.00  0.00    +0.000 A 
ATOM      6  C   UNL     1      48.553   9.393  16.310  0.00  0.00    +0.000 A 
ATOM      7  C   UNL     1      48.592   8.354  17.244  0.00  0.00    +0.000 A 
ATOM      8  C   UNL     1      48.720   7.018  16.844  0.00  0.00    +0.000 A 
ATOM      9  C   UNL     1      48.832   6.774  15.464  0.00  0.00    +0.000 A 
BRANCH   8  10
ATOM     10  N   UNL     1      48.676   5.987  17.770  0.00  0.00    +0.000 N 
ATOM     11  C   UNL     1      47.398   5.399  18.168  0.00  0.00    +0.000 C 
ATOM     12  C   UNL     1      47.280   3.990  17.605  0.00  0.00    +0.000 C 
ATOM     13  C   UNL     1      48.485   3.136  17.990  0.00  0.00    +0.000 C 
ATOM     14  C   UNL     1      49.807   3.814  17.626  0.00  0.00    +0.000 C 
ATOM     15  C   UNL     1      49.887   5.252  18.145  0.00  0.00    +0.000 C 
BRANCH  13  16
ATOM     16  O   UNL     1      48.449   2.819  19.382  0.00  0.00    +0.000 OA
ATOM     17  H   UNL     1      48.250   1.873  19.486  0.00  0.00    +0.000 HD
ENDBRANCH  13  16
ENDBRANCH   8  10
ENDBRANCH   1   4
BRANCH   1  18
ATOM     18  C   UNL     1      47.531   7.930  12.316  0.00  0.00    +0.000 C 
BRANCH  18  19
ATOM     19  O   UNL     1      46.329   7.570  13.038  0.00  0.00    +0.000 OA
BRANCH  19  23
ATOM     20  C   UNL     1      44.614   4.172  11.431  0.00  0.00    +0.000 A 
ATOM     21  C   UNL     1      45.263   5.075  10.587  0.00  0.00    +0.000 A 
ATOM     22  C   UNL     1      45.835   6.232  11.130  0.00  0.00    +0.000 A 
ATOM     23  C   UNL     1      45.736   6.441  12.499  0.00  0.00    +0.000 A 
ATOM     24  N   UNL     1      45.093   5.590  13.330  0.00  0.00    +0.000 NA
ATOM     25  C   UNL     1      44.538   4.485  12.780  0.00  0.00    +0.000 A 
BRANCH  20  27
ATOM     26  N   UNL     1      44.625   2.258   9.943  0.00  0.00    +0.000 N 
ATOM     27  C   UNL     1      44.003   2.910  10.970  0.00  0.00    +0.000 C 
ATOM     28  O   UNL     1      43.012   2.436  11.519  0.00  0.00    +0.000 OA
ATOM     29  H   UNL     1      44.275   1.334   9.721  0.00  0.00    +0.000 HD
ATOM     30  H   UNL     1      45.571   2.476   9.661  0.00  0.00    +0.000 HD
ENDBRANCH  20  27
ENDBRANCH  19  23
ENDBRANCH  18  19
ENDBRANCH   1  18
TORSDOF 7
ENDMDL
