MODEL 1
REMARK VINA RESULT:    -8.466      0.000      0.000
REMARK INTER + INTRA:         -12.358
REMARK INTER:                 -11.436
REMARK INTRA:                  -0.923
REMARK UNBOUND:                -0.923
REMARK  Name = 
REMARK  6 active torsions:
REMARK  status: ('A' for Active; 'I' for Inactive)
REMARK    1  A    between atoms: C_2  and  C_3
REMARK    2  A    between atoms: C_6  and  C_7
REMARK    3  A    between atoms: C_11  and  C_12
REMARK    4  A    between atoms: C_12  and  N_13
REMARK    5  A    between atoms: N_13  and  C_14
REMARK    6  A    between atoms: C_17  and  C_18
REMARK                            x       y       z     vdW  Elec       q    Type
REMARK                         _______ _______ _______ _____ _____    ______ ____
ROOT
ATOM      1  C   UNL     1      43.953   4.976  11.333  0.00  0.00    +0.000 C 
ATOM      2  C   UNL     1      43.420   6.388  11.153  0.00  0.00    +0.000 C 
ATOM      3  C   UNL     1      42.685   5.444  12.043  0.00  0.00    +0.000 C 
ENDROOT
BRANCH   1   8
ATOM      4  C   UNL     1      47.258   5.646  12.847  0.00  0.00    +0.000 A 
ATOM      5  N   UNL     1      47.565   4.559  13.583  0.00  0.00    +0.000 NA
ATOM      6  C   UNL     1      46.634   3.594  13.626  0.00  0.00    +0.000 A 
ATOM      7  C   UNL     1      45.436   3.666  12.953  0.00  0.00    +0.000 A 
ATOM      8  C   UNL     1      45.207   4.801  12.194  0.00  0.00    +0.000 A 
ATOM      9  N   UNL     1      46.108   5.798  12.168  0.00  0.00    +0.000 NA
BRANCH   4  13
ATOM     10  C   UNL     1      50.145   8.747  12.688  0.00  0.00    +0.000 A 
ATOM     11  C   UNL     1      49.200   8.668  11.667  0.00  0.00    +0.000 A 
ATOM     12  C   UNL     1      48.240   7.657  11.703  0.00  0.00    +0.000 A 
ATOM     13  C   UNL     1      48.244   6.744  12.759  0.00  0.00    +0.000 A 
ATOM     14  N   UNL     1      49.169   6.829  13.764  0.00  0.00    +0.000 NA
ATOM     15  C   UNL     1      50.089   7.816  13.708  0.00  0.00    +0.000 A 
BRANCH  10  17
ATOM     16  N   UNL     1      51.965  10.579  12.691  0.00  0.00    +0.000 NA
ATOM     17  C   UNL     1      51.149   9.757  12.688  0.00  0.00    +0.000 C 
ENDBRANCH  10  17
ENDBRANCH   4  13
ENDBRANCH   1   8
BRANCH   1  18
ATOM     18  N   UNL     1      43.732   3.892  10.345  0.00  0.00    +0.000 N 
ATOM     19  H   UNL     1      43.208   3.099  10.721  0.00  0.00    +0.000 HD
BRANCH  18  20
ATOM     20  C   UNL     1      44.707   3.499   9.413  0.00  0.00    +0.000 A 
ATOM     21  C   UNL     1      45.061   2.150   9.303  0.00  0.00    +0.000 A 
ATOM     22  C   UNL     1      45.975   1.738   8.329  0.00  0.00    +0.000 A 
ATOM     23  C   UNL     1      46.499   2.700   7.479  0.00  0.00    +0.000 A 
ATOM     24  N   UNL     1      46.158   4.015   7.520  0.00  0.00    +0.000 NA
ATOM     25  C   UNL     1      45.261   4.362   8.469  0.00  0.00    +0.000 A 
BRANCH  23  26
ATOM     26  C   UNL     1      47.511   2.332   6.440  0.00  0.00    +0.000 C 
ATOM     27  N   UNL     1      47.526   3.148   5.340  0.00  0.00    +0.000 N 
ATOM     28  O   UNL     1      48.274   1.383   6.563  0.00  0.00    +0.000 OA
ATOM     29  H   UNL     1      46.873   3.923   5.292  0.00  0.00    +0.000 HD
ATOM     30  H   UNL     1      48.190   2.985   4.598  0.00  0.00    +0.000 HD
ENDBRANCH  23  26
ENDBRANCH  18  20
ENDBRANCH   1  18
TORSDOF 6
ENDMDL
MODEL 2
REMARK VINA RESULT:    -8.193      2.423      3.720
REMARK INTER + INTRA:         -11.989
REMARK INTER:                 -12.132
REMARK INTRA:                   0.143
REMARK UNBOUND:                -0.923
REMARK  Name = 
REMARK  6 active torsions:
REMARK  status: ('A' for Active; 'I' for Inactive)
REMARK    1  A    between atoms: C_2  and  C_3
REMARK    2  A    between atoms: C_6  and  C_7
REMARK    3  A    between atoms: C_11  and  C_12
REMARK    4  A    between atoms: C_12  and  N_13
REMARK    5  A    between atoms: N_13  and  C_14
REMARK    6  A    between atoms: C_17  and  C_18
REMARK                            x       y       z     vdW  Elec       q    Type
REMARK                         _______ _______ _______ _____ _____    ______ ____
ROOT
ATOM      1  C   UNL     1      43.987   4.843  11.509  0.00  0.00    +0.000 C 
ATOM      2  C   UNL     1      42.843   5.023  12.493  0.00  0.00    +0.000 C 
ATOM      3  C   UNL     1      43.498   3.689  12.380  0.00  0.00    +0.000 C 
ENDROOT
BRANCH   1   8
ATOM      4  C   UNL     1      47.007   5.712  13.454  0.00  0.00    +0.000 A 
ATOM      5  N   UNL     1      47.686   6.614  12.717  0.00  0.00    +0.000 NA
ATOM      6  C   UNL     1      47.162   6.909  11.518  0.00  0.00    +0.000 A 
ATOM      7  C   UNL     1      45.992   6.362  11.045  0.00  0.00    +0.000 A 
ATOM      8  C   UNL     1      45.336   5.466  11.874  0.00  0.00    +0.000 A 
ATOM      9  N   UNL     1      45.863   5.125  13.063  0.00  0.00    +0.000 NA
BRANCH   4  13
ATOM     10  C   UNL     1      48.575   4.764  17.277  0.00  0.00    +0.000 A 
ATOM     11  C   UNL     1      47.596   3.934  16.738  0.00  0.00    +0.000 A 
ATOM     12  C   UNL     1      47.070   4.226  15.480  0.00  0.00    +0.000 A 
ATOM     13  C   UNL     1      47.533   5.346  14.786  0.00  0.00    +0.000 A 
ATOM     14  N   UNL     1      48.500   6.155  15.315  0.00  0.00    +0.000 NA
ATOM     15  C   UNL     1      48.995   5.853  16.535  0.00  0.00    +0.000 A 
BRANCH  10  17
ATOM     16  N   UNL     1      49.592   4.305  19.606  0.00  0.00    +0.000 NA
ATOM     17  C   UNL     1      49.135   4.509  18.562  0.00  0.00    +0.000 C 
ENDBRANCH  10  17
ENDBRANCH   4  13
ENDBRANCH   1   8
BRANCH   1  18
ATOM     18  N   UNL     1      43.781   4.636  10.054  0.00  0.00    +0.000 N 
ATOM     19  H   UNL     1      42.798   4.550   9.790  0.00  0.00    +0.000 HD
BRANCH  18  20
ATOM     20  C   UNL     1      44.620   3.822   9.275  0.00  0.00    +0.000 A 
ATOM     21  C   UNL     1      45.421   4.397   8.281  0.00  0.00    +0.000 A 
ATOM     22  C   UNL     1      46.314   3.608   7.551  0.00  0.00    +0.000 A 
ATOM     23  C   UNL     1      46.387   2.256   7.853  0.00  0.00    +0.000 A 
ATOM     24  N   UNL     1      45.660   1.658   8.834  0.00  0.00    +0.000 NA
ATOM     25  C   UNL     1      44.821   2.465   9.521  0.00  0.00    +0.000 A 
BRANCH  23  26
ATOM     26  C   UNL     1      47.294   1.350   7.083  0.00  0.00    +0.000 C 
ATOM     27  N   UNL     1      48.398   1.961   6.549  0.00  0.00    +0.000 N 
ATOM     28  O   UNL     1      47.077   0.154   6.946  0.00  0.00    +0.000 OA
ATOM     29  H   UNL     1      48.530   2.955   6.697  0.00  0.00    +0.000 HD
ATOM     30  H   UNL     1      49.074   1.421   6.031  0.00  0.00    +0.000 HD
ENDBRANCH  23  26
ENDBRANCH  18  20
ENDBRANCH   1  18
TORSDOF 6
ENDMDL
MODEL 3
REMARK VINA RESULT:    -7.457      3.087      7.343
REMARK INTER + INTRA:         -10.996
REMARK INTER:                 -10.658
REMARK INTRA:                  -0.337
REMARK UNBOUND:                -0.923
REMARK  Name = 
REMARK  6 active torsions:
REMARK  status: ('A' for Active; 'I' for Inactive)
REMARK    1  A    between atoms: C_2  and  C_3
REMARK    2  A    between atoms: C_6  and  C_7
REMARK    3  A    between atoms: C_11  and  C_12
REMARK    4  A    between atoms: C_12  and  N_13
REMARK    5  A    between atoms: N_13  and  C_14
REMARK    6  A    between atoms: C_17  and  C_18
REMARK                            x       y       z     vdW  Elec       q    Type
REMARK                         _______ _______ _______ _____ _____    ______ ____
ROOT
ATOM      1  C   UNL     1      45.868   7.676  12.432  0.00  0.00    +0.000 C 
ATOM      2  C   UNL     1      45.159   8.859  13.069  0.00  0.00    +0.000 C 
ATOM      3  C   UNL     1      45.897   9.061  11.790  0.00  0.00    +0.000 C 
ENDROOT
BRANCH   1   8
ATOM      4  C   UNL     1      44.842   4.963  10.143  0.00  0.00    +0.000 A 
ATOM      5  N   UNL     1      43.526   4.762  10.358  0.00  0.00    +0.000 NA
ATOM      6  C   UNL     1      42.967   5.506  11.323  0.00  0.00    +0.000 A 
ATOM      7  C   UNL     1      43.659   6.444  12.055  0.00  0.00    +0.000 A 
ATOM      8  C   UNL     1      45.000   6.614  11.753  0.00  0.00    +0.000 A 
ATOM      9  N   UNL     1      45.591   5.851  10.817  0.00  0.00    +0.000 NA
BRANCH   4  13
ATOM     10  C   UNL     1      46.830   2.796   7.087  0.00  0.00    +0.000 A 
ATOM     11  C   UNL     1      46.093   2.086   8.032  0.00  0.00    +0.000 A 
ATOM     12  C   UNL     1      45.429   2.780   9.043  0.00  0.00    +0.000 A 
ATOM     13  C   UNL     1      45.516   4.172   9.090  0.00  0.00    +0.000 A 
ATOM     14  N   UNL     1      46.234   4.868   8.156  0.00  0.00    +0.000 NA
ATOM     15  C   UNL     1      46.869   4.174   7.187  0.00  0.00    +0.000 A 
BRANCH  10  17
ATOM     16  N   UNL     1      48.100   1.588   5.191  0.00  0.00    +0.000 NA
ATOM     17  C   UNL     1      47.531   2.128   6.043  0.00  0.00    +0.000 C 
ENDBRANCH  10  17
ENDBRANCH   4  13
ENDBRANCH   1   8
BRANCH   1  18
ATOM     18  N   UNL     1      47.195   7.187  12.882  0.00  0.00    +0.000 N 
ATOM     19  H   UNL     1      47.872   7.090  12.123  0.00  0.00    +0.000 HD
BRANCH  18  20
ATOM     20  C   UNL     1      47.348   6.198  13.869  0.00  0.00    +0.000 A 
ATOM     21  C   UNL     1      48.163   6.444  14.980  0.00  0.00    +0.000 A 
ATOM     22  C   UNL     1      48.264   5.499  16.003  0.00  0.00    +0.000 A 
ATOM     23  C   UNL     1      47.525   4.331  15.887  0.00  0.00    +0.000 A 
ATOM     24  N   UNL     1      46.690   4.063  14.848  0.00  0.00    +0.000 NA
ATOM     25  C   UNL     1      46.616   5.013  13.890  0.00  0.00    +0.000 A 
BRANCH  23  26
ATOM     26  C   UNL     1      47.616   3.262  16.928  0.00  0.00    +0.000 C 
ATOM     27  N   UNL     1      48.878   2.771  17.137  0.00  0.00    +0.000 N 
ATOM     28  O   UNL     1      46.645   2.860  17.555  0.00  0.00    +0.000 OA
ATOM     29  H   UNL     1      49.648   3.144  16.592  0.00  0.00    +0.000 HD
ATOM     30  H   UNL     1      49.036   2.061  17.836  0.00  0.00    +0.000 HD
ENDBRANCH  23  26
ENDBRANCH  18  20
ENDBRANCH   1  18
TORSDOF 6
ENDMDL
MODEL 4
REMARK VINA RESULT:    -7.145      1.235      2.112
REMARK INTER + INTRA:         -10.574
REMARK INTER:                 -10.537
REMARK INTRA:                  -0.037
REMARK UNBOUND:                -0.923
REMARK  Name = 
REMARK  6 active torsions:
REMARK  status: ('A' for Active; 'I' for Inactive)
REMARK    1  A    between atoms: C_2  and  C_3
REMARK    2  A    between atoms: C_6  and  C_7
REMARK    3  A    between atoms: C_11  and  C_12
REMARK    4  A    between atoms: C_12  and  N_13
REMARK    5  A    between atoms: N_13  and  C_14
REMARK    6  A    between atoms: C_17  and  C_18
REMARK                            x       y       z     vdW  Elec       q    Type
REMARK                         _______ _______ _______ _____ _____    ______ ____
ROOT
ATOM      1  C   UNL     1      44.162   4.416  11.665  0.00  0.00    +0.000 C 
ATOM      2  C   UNL     1      43.557   3.888  12.955  0.00  0.00    +0.000 C 
ATOM      3  C   UNL     1      44.917   3.430  12.554  0.00  0.00    +0.000 C 
ENDROOT
BRANCH   1   8
ATOM      4  C   UNL     1      46.346   7.351  12.191  0.00  0.00    +0.000 A 
ATOM      5  N   UNL     1      45.623   8.431  11.833  0.00  0.00    +0.000 NA
ATOM      6  C   UNL     1      44.395   8.184  11.354  0.00  0.00    +0.000 A 
ATOM      7  C   UNL     1      43.863   6.920  11.242  0.00  0.00    +0.000 A 
ATOM      8  C   UNL     1      44.656   5.865  11.659  0.00  0.00    +0.000 A 
ATOM      9  N   UNL     1      45.906   6.084  12.106  0.00  0.00    +0.000 NA
BRANCH   4  13
ATOM     10  C   UNL     1      50.222   7.879  13.828  0.00  0.00    +0.000 A 
ATOM     11  C   UNL     1      49.994   8.292  12.517  0.00  0.00    +0.000 A 
ATOM     12  C   UNL     1      48.725   8.130  11.962  0.00  0.00    +0.000 A 
ATOM     13  C   UNL     1      47.709   7.557  12.728  0.00  0.00    +0.000 A 
ATOM     14  N   UNL     1      47.934   7.158  14.017  0.00  0.00    +0.000 NA
ATOM     15  C   UNL     1      49.171   7.325  14.534  0.00  0.00    +0.000 A 
BRANCH  10  17
ATOM     16  N   UNL     1      52.545   8.128  14.929  0.00  0.00    +0.000 NA
ATOM     17  C   UNL     1      51.504   8.017  14.433  0.00  0.00    +0.000 C 
ENDBRANCH  10  17
ENDBRANCH   4  13
ENDBRANCH   1   8
BRANCH   1  18
ATOM     18  N   UNL     1      43.813   3.882  10.326  0.00  0.00    +0.000 N 
ATOM     19  H   UNL     1      43.004   3.258  10.335  0.00  0.00    +0.000 HD
BRANCH  18  20
ATOM     20  C   UNL     1      44.780   3.497   9.383  0.00  0.00    +0.000 A 
ATOM     21  C   UNL     1      45.130   2.147   9.256  0.00  0.00    +0.000 A 
ATOM     22  C   UNL     1      46.035   1.743   8.272  0.00  0.00    +0.000 A 
ATOM     23  C   UNL     1      46.556   2.712   7.427  0.00  0.00    +0.000 A 
ATOM     24  N   UNL     1      46.218   4.028   7.485  0.00  0.00    +0.000 NA
ATOM     25  C   UNL     1      45.330   4.367   8.444  0.00  0.00    +0.000 A 
BRANCH  23  26
ATOM     26  C   UNL     1      47.559   2.352   6.378  0.00  0.00    +0.000 C 
ATOM     27  N   UNL     1      47.524   3.139   5.257  0.00  0.00    +0.000 N 
ATOM     28  O   UNL     1      48.357   1.434   6.509  0.00  0.00    +0.000 OA
ATOM     29  H   UNL     1      46.843   3.890   5.203  0.00  0.00    +0.000 HD
ATOM     30  H   UNL     1      48.178   2.980   4.506  0.00  0.00    +0.000 HD
ENDBRANCH  23  26
ENDBRANCH  18  20
ENDBRANCH   1  18
TORSDOF 6
ENDMDL
MODEL 5
REMARK VINA RESULT:    -6.840      4.063      6.363
REMARK INTER + INTRA:         -10.162
REMARK INTER:                  -9.516
REMARK INTRA:                  -0.646
REMARK UNBOUND:                -0.923
REMARK  Name = 
REMARK  6 active torsions:
REMARK  status: ('A' for Active; 'I' for Inactive)
REMARK    1  A    between atoms: C_2  and  C_3
REMARK    2  A    between atoms: C_6  and  C_7
REMARK    3  A    between atoms: C_11  and  C_12
REMARK    4  A    between atoms: C_12  and  N_13
REMARK    5  A    between atoms: N_13  and  C_14
REMARK    6  A    between atoms: C_17  and  C_18
REMARK                            x       y       z     vdW  Elec       q    Type
REMARK                         _______ _______ _______ _____ _____    ______ ____
ROOT
ATOM      1  C   UNL     1      48.089   7.372  13.640  0.00  0.00    +0.000 C 
ATOM      2  C   UNL     1      48.988   6.874  12.521  0.00  0.00    +0.000 C 
ATOM      3  C   UNL     1      48.706   8.333  12.627  0.00  0.00    +0.000 C 
ENDROOT
BRANCH   1   8
ATOM      4  C   UNL     1      49.862   6.267  16.688  0.00  0.00    +0.000 A 
ATOM      5  N   UNL     1      49.655   7.223  17.616  0.00  0.00    +0.000 NA
ATOM      6  C   UNL     1      48.953   8.292  17.212  0.00  0.00    +0.000 A 
ATOM      7  C   UNL     1      48.440   8.428  15.943  0.00  0.00    +0.000 A 
ATOM      8  C   UNL     1      48.669   7.389  15.057  0.00  0.00    +0.000 A 
ATOM      9  N   UNL     1      49.404   6.325  15.426  0.00  0.00    +0.000 NA
BRANCH   4  13
ATOM     10  C   UNL     1      51.969   2.745  17.755  0.00  0.00    +0.000 A 
ATOM     11  C   UNL     1      52.649   3.960  17.788  0.00  0.00    +0.000 A 
ATOM     12  C   UNL     1      51.973   5.131  17.444  0.00  0.00    +0.000 A 
ATOM     13  C   UNL     1      50.629   5.062  17.072  0.00  0.00    +0.000 A 
ATOM     14  N   UNL     1      49.962   3.868  17.048  0.00  0.00    +0.000 NA
ATOM     15  C   UNL     1      50.637   2.748  17.385  0.00  0.00    +0.000 A 
BRANCH  10  17
ATOM     16  N   UNL     1      53.151   0.531  18.366  0.00  0.00    +0.000 NA
ATOM     17  C   UNL     1      52.622   1.524  18.090  0.00  0.00    +0.000 C 
ENDBRANCH  10  17
ENDBRANCH   4  13
ENDBRANCH   1   8
BRANCH   1  18
ATOM     18  N   UNL     1      46.608   7.299  13.585  0.00  0.00    +0.000 N 
ATOM     19  H   UNL     1      46.152   7.626  14.439  0.00  0.00    +0.000 HD
BRANCH  18  20
ATOM     20  C   UNL     1      45.919   6.232  12.982  0.00  0.00    +0.000 A 
ATOM     21  C   UNL     1      45.438   6.365  11.674  0.00  0.00    +0.000 A 
ATOM     22  C   UNL     1      44.818   5.286  11.039  0.00  0.00    +0.000 A 
ATOM     23  C   UNL     1      44.712   4.092  11.736  0.00  0.00    +0.000 A 
ATOM     24  N   UNL     1      45.198   3.902  12.992  0.00  0.00    +0.000 NA
ATOM     25  C   UNL     1      45.800   4.969  13.559  0.00  0.00    +0.000 A 
BRANCH  23  26
ATOM     26  C   UNL     1      44.026   2.910  11.128  0.00  0.00    +0.000 C 
ATOM     27  N   UNL     1      44.694   2.336  10.080  0.00  0.00    +0.000 N 
ATOM     28  O   UNL     1      42.956   2.480  11.538  0.00  0.00    +0.000 OA
ATOM     29  H   UNL     1      45.580   2.731   9.784  0.00  0.00    +0.000 HD
ATOM     30  H   UNL     1      44.313   1.521   9.622  0.00  0.00    +0.000 HD
ENDBRANCH  23  26
ENDBRANCH  18  20
ENDBRANCH   1  18
TORSDOF 6
ENDMDL
MODEL 6
REMARK VINA RESULT:    -6.028      4.188      6.797
REMARK INTER + INTRA:          -9.065
REMARK INTER:                  -8.367
REMARK INTRA:                  -0.698
REMARK UNBOUND:                -0.923
REMARK  Name = 
REMARK  6 active torsions:
REMARK  status: ('A' for Active; 'I' for Inactive)
REMARK    1  A    between atoms: C_2  and  C_3
REMARK    2  A    between atoms: C_6  and  C_7
REMARK    3  A    between atoms: C_11  and  C_12
REMARK    4  A    between atoms: C_12  and  N_13
REMARK    5  A    between atoms: N_13  and  C_14
REMARK    6  A    between atoms: C_17  and  C_18
REMARK                            x       y       z     vdW  Elec       q    Type
REMARK                         _______ _______ _______ _____ _____    ______ ____
ROOT
ATOM      1  C   UNL     1      48.649   7.853  14.225  0.00  0.00    +0.000 C 
ATOM      2  C   UNL     1      49.760   7.579  13.226  0.00  0.00    +0.000 C 
ATOM      3  C   UNL     1      49.516   8.981  13.671  0.00  0.00    +0.000 C 
ENDROOT
BRANCH   1   8
ATOM      4  C   UNL     1      49.705   5.848  17.145  0.00  0.00    +0.000 A 
ATOM      5  N   UNL     1      49.273   6.511  18.236  0.00  0.00    +0.000 NA
ATOM      6  C   UNL     1      48.659   7.681  18.010  0.00  0.00    +0.000 A 
ATOM      7  C   UNL     1      48.445   8.195  16.752  0.00  0.00    +0.000 A 
ATOM      8  C   UNL     1      48.891   7.441  15.679  0.00  0.00    +0.000 A 
ATOM      9  N   UNL     1      49.545   6.284  15.883  0.00  0.00    +0.000 NA
BRANCH   4  13
ATOM     10  C   UNL     1      51.763   2.185  17.714  0.00  0.00    +0.000 A 
ATOM     11  C   UNL     1      50.415   2.141  17.366  0.00  0.00    +0.000 A 
ATOM     12  C   UNL     1      49.721   3.335  17.171  0.00  0.00    +0.000 A 
ATOM     13  C   UNL     1      50.390   4.550  17.329  0.00  0.00    +0.000 A 
ATOM     14  N   UNL     1      51.715   4.590  17.663  0.00  0.00    +0.000 NA
ATOM     15  C   UNL     1      52.367   3.421  17.847  0.00  0.00    +0.000 A 
BRANCH  10  17
ATOM     16  N   UNL     1      53.119   0.022  18.107  0.00  0.00    +0.000 NA
ATOM     17  C   UNL     1      52.509   0.991  17.931  0.00  0.00    +0.000 C 
ENDBRANCH  10  17
ENDBRANCH   4  13
ENDBRANCH   1   8
BRANCH   1  18
ATOM     18  N   UNL     1      47.218   7.944  13.844  0.00  0.00    +0.000 N 
ATOM     19  H   UNL     1      46.653   8.480  14.506  0.00  0.00    +0.000 HD
BRANCH  18  20
ATOM     20  C   UNL     1      46.509   6.869  13.280  0.00  0.00    +0.000 A 
ATOM     21  C   UNL     1      46.819   5.557  13.658  0.00  0.00    +0.000 A 
ATOM     22  C   UNL     1      46.073   4.486  13.161  0.00  0.00    +0.000 A 
ATOM     23  C   UNL     1      45.019   4.767  12.304  0.00  0.00    +0.000 A 
ATOM     24  N   UNL     1      44.654   6.025  11.939  0.00  0.00    +0.000 NA
ATOM     25  C   UNL     1      45.397   7.028  12.456  0.00  0.00    +0.000 A 
BRANCH  23  26
ATOM     26  C   UNL     1      44.204   3.665  11.707  0.00  0.00    +0.000 C 
ATOM     27  N   UNL     1      44.133   2.527  12.467  0.00  0.00    +0.000 N 
ATOM     28  O   UNL     1      43.635   3.768  10.629  0.00  0.00    +0.000 OA
ATOM     29  H   UNL     1      44.622   2.497  13.356  0.00  0.00    +0.000 HD
ATOM     30  H   UNL     1      43.588   1.739  12.151  0.00  0.00    +0.000 HD
ENDBRANCH  23  26
ENDBRANCH  18  20
ENDBRANCH   1  18
TORSDOF 6
ENDMDL
