MODEL 1
REMARK VINA RESULT:    -8.277      0.000      0.000
REMARK INTER + INTRA:          -9.275
REMARK INTER:                  -9.728
REMARK INTRA:                   0.453
REMARK UNBOUND:                 0.453
REMARK  Name = 
REMARK  3 active torsions:
REMARK  status: ('A' for Active; 'I' for Inactive)
REMARK    1  A    between atoms: C_2  and  C_4
REMARK    2  A    between atoms: N_8  and  C_9
REMARK    3  A    between atoms: C_9  and  C_10
REMARK                            x       y       z     vdW  Elec       q    Type
REMARK                         _______ _______ _______ _____ _____    ______ ____
ROOT
ATOM      1  C   UNL     1      46.351   2.115   7.869  0.00  0.00    +0.000 A 
ATOM      2  C   UNL     1      46.394   3.406   7.356  0.00  0.00    +0.000 A 
ATOM      3  C   UNL     1      45.676   4.413   8.005  0.00  0.00    +0.000 A 
ATOM      4  C   UNL     1      44.955   4.124   9.165  0.00  0.00    +0.000 A 
ATOM      5  N   UNL     1      44.348   5.220   9.814  0.00  0.00    +0.000 N 
ATOM      6  N   UNL     1      44.885   2.869   9.647  0.00  0.00    +0.000 NA
ATOM      7  C   UNL     1      45.565   1.892   8.989  0.00  0.00    +0.000 A 
ATOM      8  H   UNL     1      43.645   5.632   9.199  0.00  0.00    +0.000 HD
ENDROOT
BRANCH   1  10
ATOM      9  N   UNL     1      46.735  -0.273   7.662  0.00  0.00    +0.000 N 
ATOM     10  C   UNL     1      47.096   0.988   7.273  0.00  0.00    +0.000 C 
ATOM     11  O   UNL     1      47.971   1.169   6.438  0.00  0.00    +0.000 OA
ATOM     12  H   UNL     1      47.174  -1.037   7.161  0.00  0.00    +0.000 HD
ATOM     13  H   UNL     1      45.866  -0.468   8.133  0.00  0.00    +0.000 HD
ENDBRANCH   1  10
BRANCH   5  14
ATOM     14  C   UNL     1      43.907   5.233  11.241  0.00  0.00    +0.000 C 
ATOM     15  C   UNL     1      42.834   4.188  11.563  0.00  0.00    +0.000 C 
ATOM     16  C   UNL     1      42.529   5.640  11.735  0.00  0.00    +0.000 C 
BRANCH  14  17
ATOM     17  C   UNL     1      45.099   5.341  12.242  0.00  0.00    +0.000 A 
ATOM     18  N   UNL     1      45.687   6.556  12.399  0.00  0.00    +0.000 NA
ATOM     19  C   UNL     1      46.754   6.625  13.219  0.00  0.00    +0.000 A 
ATOM     20  C   UNL     1      47.275   5.543  13.884  0.00  0.00    +0.000 A 
ATOM     21  C   UNL     1      46.625   4.355  13.673  0.00  0.00    +0.000 A 
ATOM     22  N   UNL     1      45.552   4.228  12.870  0.00  0.00    +0.000 NA
ENDBRANCH  14  17
ENDBRANCH   5  14
TORSDOF 3
ENDMDL
MODEL 2
REMARK VINA RESULT:    -7.280      2.956      6.350
REMARK INTER + INTRA:          -8.104
REMARK INTER:                  -7.855
REMARK INTRA:                  -0.248
REMARK UNBOUND:                 0.453
REMARK  Name = 
REMARK  3 active torsions:
REMARK  status: ('A' for Active; 'I' for Inactive)
REMARK    1  A    between atoms: C_2  and  C_4
REMARK    2  A    between atoms: N_8  and  C_9
REMARK    3  A    between atoms: C_9  and  C_10
REMARK                            x       y       z     vdW  Elec       q    Type
REMARK                         _______ _______ _______ _____ _____    ______ ____
ROOT
ATOM      1  C   UNL     1      47.456   4.805  15.168  0.00  0.00    +0.000 A 
ATOM      2  C   UNL     1      47.490   6.054  14.557  0.00  0.00    +0.000 A 
ATOM      3  C   UNL     1      46.937   6.195  13.282  0.00  0.00    +0.000 A 
ATOM      4  C   UNL     1      46.335   5.103  12.654  0.00  0.00    +0.000 A 
ATOM      5  N   UNL     1      45.707   5.360  11.418  0.00  0.00    +0.000 N 
ATOM      6  N   UNL     1      46.326   3.885  13.230  0.00  0.00    +0.000 NA
ATOM      7  C   UNL     1      46.896   3.755  14.458  0.00  0.00    +0.000 A 
ATOM      8  H   UNL     1      46.407   5.663  10.738  0.00  0.00    +0.000 HD
ENDROOT
BRANCH   1  10
ATOM      9  N   UNL     1      47.159   4.830  17.577  0.00  0.00    +0.000 N 
ATOM     10  C   UNL     1      47.989   4.560  16.523  0.00  0.00    +0.000 C 
ATOM     11  O   UNL     1      49.107   4.097  16.698  0.00  0.00    +0.000 OA
ATOM     12  H   UNL     1      47.494   4.550  18.492  0.00  0.00    +0.000 HD
ATOM     13  H   UNL     1      46.165   4.958  17.467  0.00  0.00    +0.000 HD
ENDBRANCH   1  10
BRANCH   5  14
ATOM     14  C   UNL     1      44.668   4.491  10.787  0.00  0.00    +0.000 C 
ATOM     15  C   UNL     1      43.296   5.163  10.664  0.00  0.00    +0.000 C 
ATOM     16  C   UNL     1      43.444   3.928  11.490  0.00  0.00    +0.000 C 
BRANCH  14  17
ATOM     17  C   UNL     1      45.193   3.739   9.525  0.00  0.00    +0.000 A 
ATOM     18  N   UNL     1      45.208   2.381   9.557  0.00  0.00    +0.000 NA
ATOM     19  C   UNL     1      45.719   1.742   8.487  0.00  0.00    +0.000 A 
ATOM     20  C   UNL     1      46.228   2.386   7.387  0.00  0.00    +0.000 A 
ATOM     21  C   UNL     1      46.174   3.756   7.432  0.00  0.00    +0.000 A 
ATOM     22  N   UNL     1      45.670   4.446   8.472  0.00  0.00    +0.000 NA
ENDBRANCH  14  17
ENDBRANCH   5  14
TORSDOF 3
ENDMDL
MODEL 3
REMARK VINA RESULT:    -7.236      3.038      6.553
REMARK INTER + INTRA:          -8.051
REMARK INTER:                  -7.850
REMARK INTRA:                  -0.202
REMARK UNBOUND:                 0.453
REMARK  Name = 
REMARK  3 active torsions:
REMARK  status: ('A' for Active; 'I' for Inactive)
REMARK    1  A    between atoms: C_2  and  C_4
REMARK    2  A    between atoms: N_8  and  C_9
REMARK    3  A    between atoms: C_9  and  C_10
REMARK                            x       y       z     vdW  Elec       q    Type
REMARK                         _______ _______ _______ _____ _____    ______ ____
ROOT
ATOM      1  C   UNL     1      47.323   7.936  13.605  0.00  0.00    +0.000 A 
ATOM      2  C   UNL     1      46.329   8.656  12.952  0.00  0.00    +0.000 A 
ATOM      3  C   UNL     1      45.516   7.995  12.029  0.00  0.00    +0.000 A 
ATOM      4  C   UNL     1      45.687   6.629  11.795  0.00  0.00    +0.000 A 
ATOM      5  N   UNL     1      44.755   6.021  10.929  0.00  0.00    +0.000 N 
ATOM      6  N   UNL     1      46.668   5.936  12.403  0.00  0.00    +0.000 NA
ATOM      7  C   UNL     1      47.473   6.598  13.278  0.00  0.00    +0.000 A 
ATOM      8  H   UNL     1      44.841   6.429   9.997  0.00  0.00    +0.000 HD
ENDROOT
BRANCH   1  10
ATOM      9  N   UNL     1      47.622   9.238  15.633  0.00  0.00    +0.000 N 
ATOM     10  C   UNL     1      48.215   8.537  14.618  0.00  0.00    +0.000 C 
ATOM     11  O   UNL     1      49.428   8.383  14.577  0.00  0.00    +0.000 OA
ATOM     12  H   UNL     1      48.235   9.546  16.380  0.00  0.00    +0.000 HD
ATOM     13  H   UNL     1      46.639   9.165  15.841  0.00  0.00    +0.000 HD
ENDBRANCH   1  10
BRANCH   5  14
ATOM     14  C   UNL     1      44.476   4.554  10.864  0.00  0.00    +0.000 C 
ATOM     15  C   UNL     1      43.026   4.189  11.199  0.00  0.00    +0.000 C 
ATOM     16  C   UNL     1      44.136   3.668  12.051  0.00  0.00    +0.000 C 
BRANCH  14  17
ATOM     17  C   UNL     1      45.094   3.876   9.602  0.00  0.00    +0.000 A 
ATOM     18  N   UNL     1      45.153   2.519   9.577  0.00  0.00    +0.000 NA
ATOM     19  C   UNL     1      45.743   1.946   8.510  0.00  0.00    +0.000 A 
ATOM     20  C   UNL     1      46.289   2.654   7.470  0.00  0.00    +0.000 A 
ATOM     21  C   UNL     1      46.187   4.017   7.570  0.00  0.00    +0.000 A 
ATOM     22  N   UNL     1      45.603   4.644   8.609  0.00  0.00    +0.000 NA
ENDBRANCH  14  17
ENDBRANCH   5  14
TORSDOF 3
ENDMDL
MODEL 4
REMARK VINA RESULT:    -7.159      1.518      1.930
REMARK INTER + INTRA:          -7.961
REMARK INTER:                  -7.624
REMARK INTRA:                  -0.337
REMARK UNBOUND:                 0.453
REMARK  Name = 
REMARK  3 active torsions:
REMARK  status: ('A' for Active; 'I' for Inactive)
REMARK    1  A    between atoms: C_2  and  C_4
REMARK    2  A    between atoms: N_8  and  C_9
REMARK    3  A    between atoms: C_9  and  C_10
REMARK                            x       y       z     vdW  Elec       q    Type
REMARK                         _______ _______ _______ _____ _____    ______ ____
ROOT
ATOM      1  C   UNL     1      46.389   3.020   7.502  0.00  0.00    +0.000 A 
ATOM      2  C   UNL     1      45.802   1.994   8.233  0.00  0.00    +0.000 A 
ATOM      3  C   UNL     1      45.214   2.295   9.463  0.00  0.00    +0.000 A 
ATOM      4  C   UNL     1      45.194   3.611   9.928  0.00  0.00    +0.000 A 
ATOM      5  N   UNL     1      44.487   3.842  11.126  0.00  0.00    +0.000 N 
ATOM      6  N   UNL     1      45.788   4.603   9.237  0.00  0.00    +0.000 NA
ATOM      7  C   UNL     1      46.384   4.291   8.055  0.00  0.00    +0.000 A 
ATOM      8  H   UNL     1      44.935   3.332  11.889  0.00  0.00    +0.000 HD
ENDROOT
BRANCH   1  10
ATOM      9  N   UNL     1      48.345   2.505   6.160  0.00  0.00    +0.000 N 
ATOM     10  C   UNL     1      47.012   2.809   6.179  0.00  0.00    +0.000 C 
ATOM     11  O   UNL     1      46.358   2.864   5.146  0.00  0.00    +0.000 OA
ATOM     12  H   UNL     1      48.733   2.252   5.258  0.00  0.00    +0.000 HD
ATOM     13  H   UNL     1      48.845   2.199   6.981  0.00  0.00    +0.000 HD
ENDBRANCH   1  10
BRANCH   5  14
ATOM     14  C   UNL     1      43.976   5.171  11.577  0.00  0.00    +0.000 C 
ATOM     15  C   UNL     1      42.680   5.089  12.390  0.00  0.00    +0.000 C 
ATOM     16  C   UNL     1      42.697   5.835  11.096  0.00  0.00    +0.000 C 
BRANCH  14  17
ATOM     17  C   UNL     1      45.101   6.089  12.149  0.00  0.00    +0.000 A 
ATOM     18  N   UNL     1      45.044   7.416  11.862  0.00  0.00    +0.000 NA
ATOM     19  C   UNL     1      46.052   8.189  12.309  0.00  0.00    +0.000 A 
ATOM     20  C   UNL     1      47.124   7.709  13.018  0.00  0.00    +0.000 A 
ATOM     21  C   UNL     1      47.107   6.361  13.267  0.00  0.00    +0.000 A 
ATOM     22  N   UNL     1      46.123   5.541  12.850  0.00  0.00    +0.000 NA
ENDBRANCH  14  17
ENDBRANCH   5  14
TORSDOF 3
ENDMDL
MODEL 5
REMARK VINA RESULT:    -6.470      4.447      6.743
REMARK INTER + INTRA:          -7.152
REMARK INTER:                  -7.023
REMARK INTRA:                  -0.129
REMARK UNBOUND:                 0.453
REMARK  Name = 
REMARK  3 active torsions:
REMARK  status: ('A' for Active; 'I' for Inactive)
REMARK    1  A    between atoms: C_2  and  C_4
REMARK    2  A    between atoms: N_8  and  C_9
REMARK    3  A    between atoms: C_9  and  C_10
REMARK                            x       y       z     vdW  Elec       q    Type
REMARK                         _______ _______ _______ _____ _____    ______ ____
ROOT
ATOM      1  C   UNL     1      45.988   5.400  12.309  0.00  0.00    +0.000 A 
ATOM      2  C   UNL     1      45.806   4.023  12.270  0.00  0.00    +0.000 A 
ATOM      3  C   UNL     1      46.397   3.237  13.262  0.00  0.00    +0.000 A 
ATOM      4  C   UNL     1      47.131   3.836  14.287  0.00  0.00    +0.000 A 
ATOM      5  N   UNL     1      47.601   2.980  15.304  0.00  0.00    +0.000 N 
ATOM      6  N   UNL     1      47.335   5.167  14.312  0.00  0.00    +0.000 NA
ATOM      7  C   UNL     1      46.779   5.918  13.323  0.00  0.00    +0.000 A 
ATOM      8  H   UNL     1      48.261   2.310  14.906  0.00  0.00    +0.000 HD
ENDROOT
BRANCH   1  10
ATOM      9  N   UNL     1      45.303   5.880  10.030  0.00  0.00    +0.000 N 
ATOM     10  C   UNL     1      45.383   6.319  11.324  0.00  0.00    +0.000 C 
ATOM     11  O   UNL     1      44.934   7.408  11.653  0.00  0.00    +0.000 OA
ATOM     12  H   UNL     1      44.784   6.470   9.390  0.00  0.00    +0.000 HD
ATOM     13  H   UNL     1      45.417   4.911   9.777  0.00  0.00    +0.000 HD
ENDBRANCH   1  10
BRANCH   5  14
ATOM     14  C   UNL     1      48.019   3.419  16.669  0.00  0.00    +0.000 C 
ATOM     15  C   UNL     1      47.013   3.056  17.767  0.00  0.00    +0.000 C 
ATOM     16  C   UNL     1      47.333   4.490  17.500  0.00  0.00    +0.000 C 
BRANCH  14  17
ATOM     17  C   UNL     1      49.519   3.115  16.970  0.00  0.00    +0.000 A 
ATOM     18  N   UNL     1      49.951   1.835  16.814  0.00  0.00    +0.000 NA
ATOM     19  C   UNL     1      51.232   1.572  17.135  0.00  0.00    +0.000 A 
ATOM     20  C   UNL     1      52.107   2.514  17.613  0.00  0.00    +0.000 A 
ATOM     21  C   UNL     1      51.596   3.780  17.740  0.00  0.00    +0.000 A 
ATOM     22  N   UNL     1      50.326   4.102  17.430  0.00  0.00    +0.000 NA
ENDBRANCH  14  17
ENDBRANCH   5  14
TORSDOF 3
ENDMDL
MODEL 6
REMARK VINA RESULT:    -6.275      3.441      5.314
REMARK INTER + INTRA:          -6.923
REMARK INTER:                  -6.555
REMARK INTRA:                  -0.368
REMARK UNBOUND:                 0.453
REMARK  Name = 
REMARK  3 active torsions:
REMARK  status: ('A' for Active; 'I' for Inactive)
REMARK    1  A    between atoms: C_2  and  C_4
REMARK    2  A    between atoms: N_8  and  C_9
REMARK    3  A    between atoms: C_9  and  C_10
REMARK                            x       y       z     vdW  Elec       q    Type
REMARK                         _______ _______ _______ _____ _____    ______ ____
ROOT
ATOM      1  C   UNL     1      44.767   4.479  11.665  0.00  0.00    +0.000 A 
ATOM      2  C   UNL     1      44.369   5.691  11.113  0.00  0.00    +0.000 A 
ATOM      3  C   UNL     1      45.143   6.828  11.358  0.00  0.00    +0.000 A 
ATOM      4  C   UNL     1      46.309   6.732  12.120  0.00  0.00    +0.000 A 
ATOM      5  N   UNL     1      47.084   7.905  12.228  0.00  0.00    +0.000 N 
ATOM      6  N   UNL     1      46.681   5.566  12.682  0.00  0.00    +0.000 NA
ATOM      7  C   UNL     1      45.902   4.473  12.460  0.00  0.00    +0.000 A 
ATOM      8  H   UNL     1      46.547   8.625  12.714  0.00  0.00    +0.000 HD
ENDROOT
BRANCH   1  10
ATOM      9  N   UNL     1      43.718   2.476  12.550  0.00  0.00    +0.000 N 
ATOM     10  C   UNL     1      44.034   3.216  11.443  0.00  0.00    +0.000 C 
ATOM     11  O   UNL     1      43.687   2.864  10.324  0.00  0.00    +0.000 OA
ATOM     12  H   UNL     1      43.118   1.674  12.394  0.00  0.00    +0.000 HD
ATOM     13  H   UNL     1      43.753   2.853  13.484  0.00  0.00    +0.000 HD
ENDBRANCH   1  10
BRANCH   5  14
ATOM     14  C   UNL     1      48.528   7.946  12.608  0.00  0.00    +0.000 C 
ATOM     15  C   UNL     1      49.341   8.987  11.831  0.00  0.00    +0.000 C 
ATOM     16  C   UNL     1      49.688   7.539  11.714  0.00  0.00    +0.000 C 
BRANCH  14  17
ATOM     17  C   UNL     1      48.749   7.900  14.152  0.00  0.00    +0.000 A 
ATOM     18  N   UNL     1      49.378   6.813  14.670  0.00  0.00    +0.000 NA
ATOM     19  C   UNL     1      49.509   6.754  16.010  0.00  0.00    +0.000 A 
ATOM     20  C   UNL     1      49.035   7.718  16.864  0.00  0.00    +0.000 A 
ATOM     21  C   UNL     1      48.415   8.782  16.263  0.00  0.00    +0.000 A 
ATOM     22  N   UNL     1      48.260   8.896  14.930  0.00  0.00    +0.000 NA
ENDBRANCH  14  17
ENDBRANCH   5  14
TORSDOF 3
ENDMDL
MODEL 7
REMARK VINA RESULT:    -6.229      3.776      5.850
REMARK INTER + INTRA:          -6.869
REMARK INTER:                  -6.925
REMARK INTRA:                   0.056
REMARK UNBOUND:                 0.453
REMARK  Name = 
REMARK  3 active torsions:
REMARK  status: ('A' for Active; 'I' for Inactive)
REMARK    1  A    between atoms: C_2  and  C_4
REMARK    2  A    between atoms: N_8  and  C_9
REMARK    3  A    between atoms: C_9  and  C_10
REMARK                            x       y       z     vdW  Elec       q    Type
REMARK                         _______ _______ _______ _____ _____    ______ ____
ROOT
ATOM      1  C   UNL     1      44.388   4.720  12.108  0.00  0.00    +0.000 A 
ATOM      2  C   UNL     1      45.055   3.529  11.848  0.00  0.00    +0.000 A 
ATOM      3  C   UNL     1      46.101   3.145  12.691  0.00  0.00    +0.000 A 
ATOM      4  C   UNL     1      46.442   3.936  13.790  0.00  0.00    +0.000 A 
ATOM      5  N   UNL     1      47.435   3.420  14.647  0.00  0.00    +0.000 N 
ATOM      6  N   UNL     1      45.817   5.105  14.027  0.00  0.00    +0.000 NA
ATOM      7  C   UNL     1      44.821   5.482  13.181  0.00  0.00    +0.000 A 
ATOM      8  H   UNL     1      48.316   3.339  14.137  0.00  0.00    +0.000 HD
ENDROOT
BRANCH   1  10
ATOM      9  N   UNL     1      42.276   5.905  11.940  0.00  0.00    +0.000 N 
ATOM     10  C   UNL     1      43.252   5.199  11.293  0.00  0.00    +0.000 C 
ATOM     11  O   UNL     1      43.204   5.009  10.086  0.00  0.00    +0.000 OA
ATOM     12  H   UNL     1      41.564   6.324  11.352  0.00  0.00    +0.000 HD
ATOM     13  H   UNL     1      42.408   6.299  12.859  0.00  0.00    +0.000 HD
ENDBRANCH   1  10
BRANCH   5  14
ATOM     14  C   UNL     1      47.656   3.852  16.060  0.00  0.00    +0.000 C 
ATOM     15  C   UNL     1      48.281   2.768  16.945  0.00  0.00    +0.000 C 
ATOM     16  C   UNL     1      46.927   3.303  17.275  0.00  0.00    +0.000 C 
BRANCH  14  17
ATOM     17  C   UNL     1      48.274   5.281  16.166  0.00  0.00    +0.000 A 
ATOM     18  N   UNL     1      48.198   5.917  17.365  0.00  0.00    +0.000 NA
ATOM     19  C   UNL     1      48.679   7.173  17.430  0.00  0.00    +0.000 A 
ATOM     20  C   UNL     1      49.223   7.837  16.359  0.00  0.00    +0.000 A 
ATOM     21  C   UNL     1      49.264   7.127  15.187  0.00  0.00    +0.000 A 
ATOM     22  N   UNL     1      48.803   5.868  15.065  0.00  0.00    +0.000 NA
ENDBRANCH  14  17
ENDBRANCH   5  14
TORSDOF 3
ENDMDL
MODEL 8
REMARK VINA RESULT:    -6.052      2.962      6.036
REMARK INTER + INTRA:          -6.660
REMARK INTER:                  -7.103
REMARK INTRA:                   0.443
REMARK UNBOUND:                 0.453
REMARK  Name = 
REMARK  3 active torsions:
REMARK  status: ('A' for Active; 'I' for Inactive)
REMARK    1  A    between atoms: C_2  and  C_4
REMARK    2  A    between atoms: N_8  and  C_9
REMARK    3  A    between atoms: C_9  and  C_10
REMARK                            x       y       z     vdW  Elec       q    Type
REMARK                         _______ _______ _______ _____ _____    ______ ____
ROOT
ATOM      1  C   UNL     1      48.296   7.036  13.168  0.00  0.00    +0.000 A 
ATOM      2  C   UNL     1      48.035   5.924  13.961  0.00  0.00    +0.000 A 
ATOM      3  C   UNL     1      46.798   5.287  13.840  0.00  0.00    +0.000 A 
ATOM      4  C   UNL     1      45.859   5.748  12.915  0.00  0.00    +0.000 A 
ATOM      5  N   UNL     1      44.682   4.983  12.783  0.00  0.00    +0.000 N 
ATOM      6  N   UNL     1      46.096   6.843  12.167  0.00  0.00    +0.000 NA
ATOM      7  C   UNL     1      47.293   7.472  12.317  0.00  0.00    +0.000 A 
ATOM      8  H   UNL     1      44.167   4.997  13.665  0.00  0.00    +0.000 HD
ENDROOT
BRANCH   1  10
ATOM      9  N   UNL     1      50.490   7.465  12.222  0.00  0.00    +0.000 N 
ATOM     10  C   UNL     1      49.582   7.762  13.202  0.00  0.00    +0.000 C 
ATOM     11  O   UNL     1      49.813   8.619  14.043  0.00  0.00    +0.000 OA
ATOM     12  H   UNL     1      51.318   8.049  12.190  0.00  0.00    +0.000 HD
ATOM     13  H   UNL     1      50.239   6.970  11.380  0.00  0.00    +0.000 HD
ENDBRANCH   1  10
BRANCH   5  14
ATOM     14  C   UNL     1      43.761   5.022  11.608  0.00  0.00    +0.000 C 
ATOM     15  C   UNL     1      43.176   6.411  11.329  0.00  0.00    +0.000 C 
ATOM     16  C   UNL     1      42.264   5.277  11.667  0.00  0.00    +0.000 C 
BRANCH  14  17
ATOM     17  C   UNL     1      44.317   4.239  10.378  0.00  0.00    +0.000 A 
ATOM     18  N   UNL     1      43.972   2.931  10.250  0.00  0.00    +0.000 NA
ATOM     19  C   UNL     1      44.507   2.249   9.218  0.00  0.00    +0.000 A 
ATOM     20  C   UNL     1      45.377   2.798   8.311  0.00  0.00    +0.000 A 
ATOM     21  C   UNL     1      45.673   4.122   8.508  0.00  0.00    +0.000 A 
ATOM     22  N   UNL     1      45.165   4.854   9.517  0.00  0.00    +0.000 NA
ENDBRANCH  14  17
ENDBRANCH   5  14
TORSDOF 3
ENDMDL
MODEL 9
REMARK VINA RESULT:    -5.780      2.714      4.195
REMARK INTER + INTRA:          -6.341
REMARK INTER:                  -5.997
REMARK INTRA:                  -0.344
REMARK UNBOUND:                 0.453
REMARK  Name = 
REMARK  3 active torsions:
REMARK  status: ('A' for Active; 'I' for Inactive)
REMARK    1  A    between atoms: C_2  and  C_4
REMARK    2  A    between atoms: N_8  and  C_9
REMARK    3  A    between atoms: C_9  and  C_10
REMARK                            x       y       z     vdW  Elec       q    Type
REMARK                         _______ _______ _______ _____ _____    ______ ____
ROOT
ATOM      1  C   UNL     1      44.603   4.227   9.845  0.00  0.00    +0.000 A 
ATOM      2  C   UNL     1      43.561   4.432  10.742  0.00  0.00    +0.000 A 
ATOM      3  C   UNL     1      43.574   5.581  11.537  0.00  0.00    +0.000 A 
ATOM      4  C   UNL     1      44.603   6.515  11.403  0.00  0.00    +0.000 A 
ATOM      5  N   UNL     1      44.481   7.695  12.165  0.00  0.00    +0.000 N 
ATOM      6  N   UNL     1      45.629   6.304  10.556  0.00  0.00    +0.000 NA
ATOM      7  C   UNL     1      45.620   5.167   9.810  0.00  0.00    +0.000 A 
ATOM      8  H   UNL     1      44.506   7.462  13.159  0.00  0.00    +0.000 HD
ENDROOT
BRANCH   1  10
ATOM      9  N   UNL     1      44.543   1.822   9.515  0.00  0.00    +0.000 N 
ATOM     10  C   UNL     1      44.667   3.059   8.943  0.00  0.00    +0.000 C 
ATOM     11  O   UNL     1      44.784   3.189   7.732  0.00  0.00    +0.000 OA
ATOM     12  H   UNL     1      44.474   1.039   8.875  0.00  0.00    +0.000 HD
ATOM     13  H   UNL     1      44.189   1.689  10.449  0.00  0.00    +0.000 HD
ENDBRANCH   1  10
BRANCH   5  14
ATOM     14  C   UNL     1      45.196   8.976  11.882  0.00  0.00    +0.000 C 
ATOM     15  C   UNL     1      44.343  10.224  12.132  0.00  0.00    +0.000 C 
ATOM     16  C   UNL     1      44.861   9.944  10.760  0.00  0.00    +0.000 C 
BRANCH  14  17
ATOM     17  C   UNL     1      46.648   8.997  12.452  0.00  0.00    +0.000 A 
ATOM     18  N   UNL     1      46.895   8.286  13.584  0.00  0.00    +0.000 NA
ATOM     19  C   UNL     1      48.136   8.360  14.101  0.00  0.00    +0.000 A 
ATOM     20  C   UNL     1      49.145   9.115  13.557  0.00  0.00    +0.000 A 
ATOM     21  C   UNL     1      48.816   9.800  12.417  0.00  0.00    +0.000 A 
ATOM     22  N   UNL     1      47.594   9.759  11.852  0.00  0.00    +0.000 NA
ENDBRANCH  14  17
ENDBRANCH   5  14
TORSDOF 3
ENDMDL
