MODEL 1
REMARK VINA RESULT:    -7.535      0.000      0.000
REMARK INTER + INTRA:         -11.431
REMARK INTER:                 -10.178
REMARK INTRA:                  -1.253
REMARK UNBOUND:                -1.253
REMARK  Name = 
REMARK  7 active torsions:
REMARK  status: ('A' for Active; 'I' for Inactive)
REMARK    1  A    between atoms: C_1  and  C_2
REMARK    2  A    between atoms: C_2  and  N_3
REMARK    3  A    between atoms: C_2  and  C_12
REMARK    4  A    between atoms: C_4  and  C_6
REMARK    5  A    between atoms: C_15  and  C_16
REMARK    6  A    between atoms: C_16  and  N_17
REMARK    7  A    between atoms: C_18  and  C_20
REMARK                            x       y       z     vdW  Elec       q    Type
REMARK                         _______ _______ _______ _____ _____    ______ ____
ROOT
ATOM      1  C   UNL     1      47.735   5.967  14.414  0.00  0.00    +0.000 A 
ATOM      2  C   UNL     1      47.066   4.734  14.432  0.00  0.00    +0.000 A 
ATOM      3  C   UNL     1      47.179   3.872  15.532  0.00  0.00    +0.000 A 
ATOM      4  C   UNL     1      47.962   4.224  16.638  0.00  0.00    +0.000 A 
ATOM      5  C   UNL     1      48.631   5.453  16.623  0.00  0.00    +0.000 A 
ATOM      6  C   UNL     1      48.508   6.317  15.533  0.00  0.00    +0.000 A 
ENDROOT
BRANCH   1   8
ATOM      7  C   UNL     1      49.015   7.037  12.516  0.00  0.00    +0.000 C 
ATOM      8  C   UNL     1      47.656   6.878  13.197  0.00  0.00    +0.000 C 
BRANCH   8   9
ATOM      9  N   UNL     1      46.681   6.340  12.258  0.00  0.00    +0.000 N 
ATOM     10  C   UNL     1      45.430   6.868  12.074  0.00  0.00    +0.000 C 
ATOM     11  O   UNL     1      45.051   7.883  12.664  0.00  0.00    +0.000 OA
ATOM     12  H   UNL     1      46.995   5.590  11.664  0.00  0.00    +0.000 HD
BRANCH  10  13
ATOM     13  C   UNL     1      44.469   6.082  11.132  0.00  0.00    +0.000 C 
ATOM     14  C   UNL     1      44.888   4.675  10.680  0.00  0.00    +0.000 C 
ATOM     15  C   UNL     1      44.805   3.627  11.792  0.00  0.00    +0.000 C 
ATOM     16  C   UNL     1      43.489   3.711  12.557  0.00  0.00    +0.000 C 
ATOM     17  C   UNL     1      43.121   5.145  12.929  0.00  0.00    +0.000 C 
ATOM     18  N   UNL     1      43.124   6.016  11.752  0.00  0.00    +0.000 NA
ATOM     19  H   UNL     1      42.882   6.967  12.049  0.00  0.00    +0.000 HD
ENDBRANCH  10  13
ENDBRANCH   8   9
ENDBRANCH   1   8
BRANCH   4  20
ATOM     20  C   UNL     1      48.146   3.283  17.802  0.00  0.00    +0.000 C 
BRANCH  20  21
ATOM     21  N   UNL     1      49.545   3.026  18.039  0.00  0.00    +0.000 N 
ATOM     22  C   UNL     1      50.272   2.211  17.209  0.00  0.00    +0.000 C 
ATOM     23  O   UNL     1      49.783   1.702  16.205  0.00  0.00    +0.000 OA
ATOM     24  H   UNL     1      49.903   3.244  18.963  0.00  0.00    +0.000 HD
BRANCH  22  25
ATOM     25  C   UNL     1      51.687   2.024  17.553  0.00  0.00    +0.000 A 
ATOM     26  C   UNL     1      52.191   0.735  17.708  0.00  0.00    +0.000 A 
ATOM     27  S   UNL     1      53.854   0.691  18.079  0.00  0.00    +0.000 S 
ATOM     28  C   UNL     1      53.955   2.389  18.089  0.00  0.00    +0.000 A 
ATOM     29  N   UNL     1      55.127   3.018  18.375  0.00  0.00    +0.000 NA
ATOM     30  C   UNL     1      55.054   4.307  18.379  0.00  0.00    +0.000 A 
ATOM     31  N   UNL     1      53.916   5.024  18.113  0.00  0.00    +0.000 N 
ATOM     32  C   UNL     1      52.719   4.433  17.784  0.00  0.00    +0.000 A 
ATOM     33  O   UNL     1      51.734   5.107  17.499  0.00  0.00    +0.000 OA
ATOM     34  C   UNL     1      52.741   2.983  17.789  0.00  0.00    +0.000 A 
ATOM     35  H   UNL     1      53.929   6.033  18.120  0.00  0.00    +0.000 HD
ENDBRANCH  22  25
ENDBRANCH  20  21
ENDBRANCH   4  20
TORSDOF 6
ENDMDL
MODEL 2
REMARK VINA RESULT:    -7.473      3.286      8.898
REMARK INTER + INTRA:         -11.347
REMARK INTER:                  -9.987
REMARK INTRA:                  -1.360
REMARK UNBOUND:                -1.253
REMARK  Name = 
REMARK  7 active torsions:
REMARK  status: ('A' for Active; 'I' for Inactive)
REMARK    1  A    between atoms: C_1  and  C_2
REMARK    2  A    between atoms: C_2  and  N_3
REMARK    3  A    between atoms: C_2  and  C_12
REMARK    4  A    between atoms: C_4  and  C_6
REMARK    5  A    between atoms: C_15  and  C_16
REMARK    6  A    between atoms: C_16  and  N_17
REMARK    7  A    between atoms: C_18  and  C_20
REMARK                            x       y       z     vdW  Elec       q    Type
REMARK                         _______ _______ _______ _____ _____    ______ ____
ROOT
ATOM      1  C   UNL     1      50.032   7.344  15.247  0.00  0.00    +0.000 A 
ATOM      2  C   UNL     1      50.391   8.193  14.189  0.00  0.00    +0.000 A 
ATOM      3  C   UNL     1      49.550   8.348  13.078  0.00  0.00    +0.000 A 
ATOM      4  C   UNL     1      48.334   7.660  13.000  0.00  0.00    +0.000 A 
ATOM      5  C   UNL     1      47.973   6.812  14.054  0.00  0.00    +0.000 A 
ATOM      6  C   UNL     1      48.804   6.667  15.167  0.00  0.00    +0.000 A 
ENDROOT
BRANCH   1   8
ATOM      7  C   UNL     1      51.444   8.459  17.022  0.00  0.00    +0.000 C 
ATOM      8  C   UNL     1      50.970   7.133  16.428  0.00  0.00    +0.000 C 
BRANCH   8   9
ATOM      9  N   UNL     1      50.293   6.339  17.443  0.00  0.00    +0.000 N 
ATOM     10  C   UNL     1      50.595   5.030  17.713  0.00  0.00    +0.000 C 
ATOM     11  O   UNL     1      51.511   4.435  17.140  0.00  0.00    +0.000 OA
ATOM     12  H   UNL     1      49.626   6.823  18.022  0.00  0.00    +0.000 HD
BRANCH  10  13
ATOM     13  C   UNL     1      49.676   4.294  18.735  0.00  0.00    +0.000 C 
ATOM     14  C   UNL     1      48.311   4.918  19.061  0.00  0.00    +0.000 C 
ATOM     15  C   UNL     1      47.298   4.798  17.920  0.00  0.00    +0.000 C 
ATOM     16  C   UNL     1      47.259   3.390  17.339  0.00  0.00    +0.000 C 
ATOM     17  C   UNL     1      48.653   2.824  17.086  0.00  0.00    +0.000 C 
ATOM     18  N   UNL     1      49.481   2.892  18.293  0.00  0.00    +0.000 NA
ATOM     19  H   UNL     1      50.408   2.512  18.075  0.00  0.00    +0.000 HD
ENDBRANCH  10  13
ENDBRANCH   8   9
ENDBRANCH   1   8
BRANCH   4  20
ATOM     20  C   UNL     1      47.447   7.766  11.786  0.00  0.00    +0.000 C 
BRANCH  20  21
ATOM     21  N   UNL     1      46.760   6.522  11.540  0.00  0.00    +0.000 N 
ATOM     22  C   UNL     1      45.395   6.429  11.627  0.00  0.00    +0.000 C 
ATOM     23  O   UNL     1      44.691   7.405  11.873  0.00  0.00    +0.000 OA
ATOM     24  H   UNL     1      47.320   5.675  11.560  0.00  0.00    +0.000 HD
BRANCH  22  25
ATOM     25  C   UNL     1      44.810   5.111  11.356  0.00  0.00    +0.000 A 
ATOM     26  C   UNL     1      44.047   4.483  12.336  0.00  0.00    +0.000 A 
ATOM     27  S   UNL     1      43.419   2.974  11.853  0.00  0.00    +0.000 S 
ATOM     28  C   UNL     1      44.177   3.081  10.334  0.00  0.00    +0.000 A 
ATOM     29  N   UNL     1      44.065   2.076   9.424  0.00  0.00    +0.000 NA
ATOM     30  C   UNL     1      44.716   2.273   8.327  0.00  0.00    +0.000 A 
ATOM     31  N   UNL     1      45.462   3.391   8.053  0.00  0.00    +0.000 N 
ATOM     32  C   UNL     1      45.575   4.447   8.927  0.00  0.00    +0.000 A 
ATOM     33  O   UNL     1      46.206   5.455   8.628  0.00  0.00    +0.000 OA
ATOM     34  C   UNL     1      44.880   4.264  10.188  0.00  0.00    +0.000 A 
ATOM     35  H   UNL     1      45.937   3.490   7.169  0.00  0.00    +0.000 HD
ENDBRANCH  22  25
ENDBRANCH  20  21
ENDBRANCH   4  20
TORSDOF 6
ENDMDL
MODEL 3
REMARK VINA RESULT:    -7.005      3.367      8.646
REMARK INTER + INTRA:         -10.716
REMARK INTER:                  -9.331
REMARK INTRA:                  -1.385
REMARK UNBOUND:                -1.253
REMARK  Name = 
REMARK  7 active torsions:
REMARK  status: ('A' for Active; 'I' for Inactive)
REMARK    1  A    between atoms: C_1  and  C_2
REMARK    2  A    between atoms: C_2  and  N_3
REMARK    3  A    between atoms: C_2  and  C_12
REMARK    4  A    between atoms: C_4  and  C_6
REMARK    5  A    between atoms: C_15  and  C_16
REMARK    6  A    between atoms: C_16  and  N_17
REMARK    7  A    between atoms: C_18  and  C_20
REMARK                            x       y       z     vdW  Elec       q    Type
REMARK                         _______ _______ _______ _____ _____    ______ ____
ROOT
ATOM      1  C   UNL     1      50.349   7.279  15.592  0.00  0.00    +0.000 A 
ATOM      2  C   UNL     1      48.987   6.958  15.489  0.00  0.00    +0.000 A 
ATOM      3  C   UNL     1      48.272   7.234  14.314  0.00  0.00    +0.000 A 
ATOM      4  C   UNL     1      48.902   7.836  13.219  0.00  0.00    +0.000 A 
ATOM      5  C   UNL     1      50.260   8.157  13.319  0.00  0.00    +0.000 A 
ATOM      6  C   UNL     1      50.976   7.871  14.484  0.00  0.00    +0.000 A 
ENDROOT
BRANCH   1   8
ATOM      7  C   UNL     1      51.361   8.324  17.659  0.00  0.00    +0.000 C 
ATOM      8  C   UNL     1      51.111   7.029  16.887  0.00  0.00    +0.000 C 
BRANCH   8   9
ATOM      9  N   UNL     1      50.364   6.088  17.709  0.00  0.00    +0.000 N 
ATOM     10  C   UNL     1      50.614   4.741  17.742  0.00  0.00    +0.000 C 
ATOM     11  O   UNL     1      51.537   4.227  17.105  0.00  0.00    +0.000 OA
ATOM     12  H   UNL     1      49.686   6.481  18.341  0.00  0.00    +0.000 HD
BRANCH  10  13
ATOM     13  C   UNL     1      49.627   3.865  18.572  0.00  0.00    +0.000 C 
ATOM     14  C   UNL     1      48.396   4.546  19.186  0.00  0.00    +0.000 C 
ATOM     15  C   UNL     1      47.333   4.931  18.154  0.00  0.00    +0.000 C 
ATOM     16  C   UNL     1      47.043   3.792  17.183  0.00  0.00    +0.000 C 
ATOM     17  C   UNL     1      48.317   3.139  16.653  0.00  0.00    +0.000 C 
ATOM     18  N   UNL     1      49.189   2.712  17.749  0.00  0.00    +0.000 NA
ATOM     19  H   UNL     1      50.033   2.289  17.349  0.00  0.00    +0.000 HD
ENDBRANCH  10  13
ENDBRANCH   8   9
ENDBRANCH   1   8
BRANCH   4  20
ATOM     20  C   UNL     1      48.136   8.197  11.972  0.00  0.00    +0.000 C 
BRANCH  20  21
ATOM     21  N   UNL     1      47.480   7.037  11.418  0.00  0.00    +0.000 N 
ATOM     22  C   UNL     1      46.112   6.950  11.357  0.00  0.00    +0.000 C 
ATOM     23  O   UNL     1      45.386   7.869  11.726  0.00  0.00    +0.000 OA
ATOM     24  H   UNL     1      48.038   6.195  11.321  0.00  0.00    +0.000 HD
BRANCH  22  25
ATOM     25  C   UNL     1      45.561   5.722  10.773  0.00  0.00    +0.000 A 
ATOM     26  C   UNL     1      45.745   5.464   9.417  0.00  0.00    +0.000 A 
ATOM     27  S   UNL     1      45.068   3.986   8.905  0.00  0.00    +0.000 S 
ATOM     28  C   UNL     1      44.465   3.657  10.461  0.00  0.00    +0.000 A 
ATOM     29  N   UNL     1      43.742   2.531  10.707  0.00  0.00    +0.000 NA
ATOM     30  C   UNL     1      43.320   2.422  11.922  0.00  0.00    +0.000 A 
ATOM     31  N   UNL     1      43.563   3.334  12.916  0.00  0.00    +0.000 N 
ATOM     32  C   UNL     1      44.318   4.468  12.723  0.00  0.00    +0.000 A 
ATOM     33  O   UNL     1      44.561   5.235  13.649  0.00  0.00    +0.000 OA
ATOM     34  C   UNL     1      44.797   4.650  11.367  0.00  0.00    +0.000 A 
ATOM     35  H   UNL     1      43.214   3.183  13.851  0.00  0.00    +0.000 HD
ENDBRANCH  22  25
ENDBRANCH  20  21
ENDBRANCH   4  20
TORSDOF 6
ENDMDL
MODEL 4
REMARK VINA RESULT:    -6.854      3.093      9.082
REMARK INTER + INTRA:         -10.512
REMARK INTER:                  -9.373
REMARK INTRA:                  -1.139
REMARK UNBOUND:                -1.253
REMARK  Name = 
REMARK  7 active torsions:
REMARK  status: ('A' for Active; 'I' for Inactive)
REMARK    1  A    between atoms: C_1  and  C_2
REMARK    2  A    between atoms: C_2  and  N_3
REMARK    3  A    between atoms: C_2  and  C_12
REMARK    4  A    between atoms: C_4  and  C_6
REMARK    5  A    between atoms: C_15  and  C_16
REMARK    6  A    between atoms: C_16  and  N_17
REMARK    7  A    between atoms: C_18  and  C_20
REMARK                            x       y       z     vdW  Elec       q    Type
REMARK                         _______ _______ _______ _____ _____    ______ ____
ROOT
ATOM      1  C   UNL     1      51.394   3.564  17.795  0.00  0.00    +0.000 A 
ATOM      2  C   UNL     1      50.811   2.377  17.326  0.00  0.00    +0.000 A 
ATOM      3  C   UNL     1      49.444   2.321  17.020  0.00  0.00    +0.000 A 
ATOM      4  C   UNL     1      48.630   3.449  17.176  0.00  0.00    +0.000 A 
ATOM      5  C   UNL     1      49.208   4.635  17.643  0.00  0.00    +0.000 A 
ATOM      6  C   UNL     1      50.572   4.694  17.936  0.00  0.00    +0.000 A 
ENDROOT
BRANCH   1   8
ATOM      7  C   UNL     1      53.550   2.258  17.974  0.00  0.00    +0.000 C 
ATOM      8  C   UNL     1      52.867   3.610  18.178  0.00  0.00    +0.000 C 
BRANCH   8   9
ATOM      9  N   UNL     1      53.536   4.637  17.392  0.00  0.00    +0.000 N 
ATOM     10  C   UNL     1      54.263   5.661  17.940  0.00  0.00    +0.000 C 
ATOM     11  O   UNL     1      54.448   5.760  19.155  0.00  0.00    +0.000 OA
ATOM     12  H   UNL     1      53.518   4.522  16.393  0.00  0.00    +0.000 HD
BRANCH  10  13
ATOM     13  C   UNL     1      54.793   6.748  16.956  0.00  0.00    +0.000 C 
ATOM     14  C   UNL     1      54.172   6.820  15.554  0.00  0.00    +0.000 C 
ATOM     15  C   UNL     1      52.746   7.375  15.546  0.00  0.00    +0.000 C 
ATOM     16  C   UNL     1      52.622   8.638  16.389  0.00  0.00    +0.000 C 
ATOM     17  C   UNL     1      53.302   8.502  17.748  0.00  0.00    +0.000 C 
ATOM     18  N   UNL     1      54.697   8.079  17.603  0.00  0.00    +0.000 NA
ATOM     19  H   UNL     1      55.111   7.991  18.537  0.00  0.00    +0.000 HD
ENDBRANCH  10  13
ENDBRANCH   8   9
ENDBRANCH   1   8
BRANCH   4  20
ATOM     20  C   UNL     1      47.147   3.390  16.912  0.00  0.00    +0.000 C 
BRANCH  20  21
ATOM     21  N   UNL     1      46.760   4.375  15.932  0.00  0.00    +0.000 N 
ATOM     22  C   UNL     1      46.878   4.131  14.588  0.00  0.00    +0.000 C 
ATOM     23  O   UNL     1      47.274   3.052  14.155  0.00  0.00    +0.000 OA
ATOM     24  H   UNL     1      46.650   5.331  16.257  0.00  0.00    +0.000 HD
BRANCH  22  25
ATOM     25  C   UNL     1      46.453   5.209  13.687  0.00  0.00    +0.000 A 
ATOM     26  C   UNL     1      47.304   6.287  13.456  0.00  0.00    +0.000 A 
ATOM     27  S   UNL     1      46.672   7.436  12.367  0.00  0.00    +0.000 S 
ATOM     28  C   UNL     1      45.222   6.562  12.197  0.00  0.00    +0.000 A 
ATOM     29  N   UNL     1      44.216   7.025  11.408  0.00  0.00    +0.000 NA
ATOM     30  C   UNL     1      43.162   6.280  11.395  0.00  0.00    +0.000 A 
ATOM     31  N   UNL     1      43.027   5.108  12.094  0.00  0.00    +0.000 N 
ATOM     32  C   UNL     1      44.030   4.583  12.875  0.00  0.00    +0.000 A 
ATOM     33  O   UNL     1      43.895   3.505  13.443  0.00  0.00    +0.000 OA
ATOM     34  C   UNL     1      45.229   5.396  12.943  0.00  0.00    +0.000 A 
ATOM     35  H   UNL     1      42.179   4.565  12.030  0.00  0.00    +0.000 HD
ENDBRANCH  22  25
ENDBRANCH  20  21
ENDBRANCH   4  20
TORSDOF 6
ENDMDL
MODEL 5
REMARK VINA RESULT:    -6.384      3.120      9.662
REMARK INTER + INTRA:          -9.877
REMARK INTER:                  -8.768
REMARK INTRA:                  -1.108
REMARK UNBOUND:                -1.253
REMARK  Name = 
REMARK  7 active torsions:
REMARK  status: ('A' for Active; 'I' for Inactive)
REMARK    1  A    between atoms: C_1  and  C_2
REMARK    2  A    between atoms: C_2  and  N_3
REMARK    3  A    between atoms: C_2  and  C_12
REMARK    4  A    between atoms: C_4  and  C_6
REMARK    5  A    between atoms: C_15  and  C_16
REMARK    6  A    between atoms: C_16  and  N_17
REMARK    7  A    between atoms: C_18  and  C_20
REMARK                            x       y       z     vdW  Elec       q    Type
REMARK                         _______ _______ _______ _____ _____    ______ ____
ROOT
ATOM      1  C   UNL     1      50.298   5.704  18.947  0.00  0.00    +0.000 A 
ATOM      2  C   UNL     1      48.989   6.208  18.877  0.00  0.00    +0.000 A 
ATOM      3  C   UNL     1      47.999   5.532  18.150  0.00  0.00    +0.000 A 
ATOM      4  C   UNL     1      48.294   4.339  17.479  0.00  0.00    +0.000 A 
ATOM      5  C   UNL     1      49.597   3.835  17.547  0.00  0.00    +0.000 A 
ATOM      6  C   UNL     1      50.581   4.501  18.282  0.00  0.00    +0.000 A 
ENDROOT
BRANCH   1   8
ATOM      7  C   UNL     1      50.890   6.998  21.036  0.00  0.00    +0.000 C 
ATOM      8  C   UNL     1      51.386   6.466  19.692  0.00  0.00    +0.000 C 
BRANCH   8   9
ATOM      9  N   UNL     1      52.535   5.593  19.887  0.00  0.00    +0.000 N 
ATOM     10  C   UNL     1      53.800   5.893  19.455  0.00  0.00    +0.000 C 
ATOM     11  O   UNL     1      54.071   6.963  18.904  0.00  0.00    +0.000 OA
ATOM     12  H   UNL     1      52.384   4.769  20.445  0.00  0.00    +0.000 HD
BRANCH  10  13
ATOM     13  C   UNL     1      54.880   4.782  19.627  0.00  0.00    +0.000 C 
ATOM     14  C   UNL     1      54.424   3.395  20.101  0.00  0.00    +0.000 C 
ATOM     15  C   UNL     1      53.651   2.610  19.038  0.00  0.00    +0.000 C 
ATOM     16  C   UNL     1      54.349   2.649  17.683  0.00  0.00    +0.000 C 
ATOM     17  C   UNL     1      54.812   4.053  17.305  0.00  0.00    +0.000 C 
ATOM     18  N   UNL     1      55.640   4.641  18.360  0.00  0.00    +0.000 NA
ATOM     19  H   UNL     1      55.919   5.584  18.070  0.00  0.00    +0.000 HD
ENDBRANCH  10  13
ENDBRANCH   8   9
ENDBRANCH   1   8
BRANCH   4  20
ATOM     20  C   UNL     1      47.258   3.633  16.641  0.00  0.00    +0.000 C 
BRANCH  20  21
ATOM     21  N   UNL     1      46.662   4.538  15.689  0.00  0.00    +0.000 N 
ATOM     22  C   UNL     1      46.733   4.304  14.340  0.00  0.00    +0.000 C 
ATOM     23  O   UNL     1      47.264   3.296  13.882  0.00  0.00    +0.000 OA
ATOM     24  H   UNL     1      46.425   5.467  16.022  0.00  0.00    +0.000 HD
BRANCH  22  25
ATOM     25  C   UNL     1      46.089   5.295  13.470  0.00  0.00    +0.000 A 
ATOM     26  C   UNL     1      46.739   6.496  13.199  0.00  0.00    +0.000 A 
ATOM     27  S   UNL     1      45.871   7.524  12.152  0.00  0.00    +0.000 S 
ATOM     28  C   UNL     1      44.576   6.425  12.056  0.00  0.00    +0.000 A 
ATOM     29  N   UNL     1      43.466   6.715  11.324  0.00  0.00    +0.000 NA
ATOM     30  C   UNL     1      42.549   5.808  11.364  0.00  0.00    +0.000 A 
ATOM     31  N   UNL     1      42.645   4.631  12.062  0.00  0.00    +0.000 N 
ATOM     32  C   UNL     1      43.760   4.280  12.785  0.00  0.00    +0.000 A 
ATOM     33  O   UNL     1      43.834   3.195  13.353  0.00  0.00    +0.000 OA
ATOM     34  C   UNL     1      44.813   5.277  12.793  0.00  0.00    +0.000 A 
ATOM     35  H   UNL     1      41.895   3.957  12.041  0.00  0.00    +0.000 HD
ENDBRANCH  22  25
ENDBRANCH  20  21
ENDBRANCH   4  20
TORSDOF 6
ENDMDL
MODEL 6
REMARK VINA RESULT:    -6.351      3.389      8.774
REMARK INTER + INTRA:          -9.832
REMARK INTER:                  -8.628
REMARK INTRA:                  -1.204
REMARK UNBOUND:                -1.253
REMARK  Name = 
REMARK  7 active torsions:
REMARK  status: ('A' for Active; 'I' for Inactive)
REMARK    1  A    between atoms: C_1  and  C_2
REMARK    2  A    between atoms: C_2  and  N_3
REMARK    3  A    between atoms: C_2  and  C_12
REMARK    4  A    between atoms: C_4  and  C_6
REMARK    5  A    between atoms: C_15  and  C_16
REMARK    6  A    between atoms: C_16  and  N_17
REMARK    7  A    between atoms: C_18  and  C_20
REMARK                            x       y       z     vdW  Elec       q    Type
REMARK                         _______ _______ _______ _____ _____    ______ ____
ROOT
ATOM      1  C   UNL     1      50.451   4.927  19.156  0.00  0.00    +0.000 A 
ATOM      2  C   UNL     1      49.139   5.362  19.400  0.00  0.00    +0.000 A 
ATOM      3  C   UNL     1      48.063   4.842  18.667  0.00  0.00    +0.000 A 
ATOM      4  C   UNL     1      48.274   3.877  17.675  0.00  0.00    +0.000 A 
ATOM      5  C   UNL     1      49.581   3.441  17.430  0.00  0.00    +0.000 A 
ATOM      6  C   UNL     1      50.652   3.949  18.169  0.00  0.00    +0.000 A 
ENDROOT
BRANCH   1   8
ATOM      7  C   UNL     1      52.556   4.456  20.474  0.00  0.00    +0.000 C 
ATOM      8  C   UNL     1      51.625   5.531  19.915  0.00  0.00    +0.000 C 
BRANCH   8   9
ATOM      9  N   UNL     1      52.359   6.425  19.030  0.00  0.00    +0.000 N 
ATOM     10  C   UNL     1      52.111   7.768  18.928  0.00  0.00    +0.000 C 
ATOM     11  O   UNL     1      51.267   8.337  19.626  0.00  0.00    +0.000 OA
ATOM     12  H   UNL     1      53.142   6.027  18.537  0.00  0.00    +0.000 HD
BRANCH  10  13
ATOM     13  C   UNL     1      52.898   8.545  17.829  0.00  0.00    +0.000 C 
ATOM     14  C   UNL     1      53.735   7.735  16.829  0.00  0.00    +0.000 C 
ATOM     15  C   UNL     1      52.891   6.965  15.811  0.00  0.00    +0.000 C 
ATOM     16  C   UNL     1      51.795   7.834  15.205  0.00  0.00    +0.000 C 
ATOM     17  C   UNL     1      51.041   8.641  16.259  0.00  0.00    +0.000 C 
ATOM     18  N   UNL     1      51.962   9.423  17.087  0.00  0.00    +0.000 NA
ATOM     19  H   UNL     1      51.415   9.939  17.784  0.00  0.00    +0.000 HD
ENDBRANCH  10  13
ENDBRANCH   8   9
ENDBRANCH   1   8
BRANCH   4  20
ATOM     20  C   UNL     1      47.138   3.353  16.835  0.00  0.00    +0.000 C 
BRANCH  20  21
ATOM     21  N   UNL     1      46.719   4.336  15.866  0.00  0.00    +0.000 N 
ATOM     22  C   UNL     1      46.852   4.114  14.519  0.00  0.00    +0.000 C 
ATOM     23  O   UNL     1      47.290   3.056  14.075  0.00  0.00    +0.000 OA
ATOM     24  H   UNL     1      46.572   5.282  16.203  0.00  0.00    +0.000 HD
BRANCH  22  25
ATOM     25  C   UNL     1      46.391   5.187  13.631  0.00  0.00    +0.000 A 
ATOM     26  C   UNL     1      47.224   6.275  13.379  0.00  0.00    +0.000 A 
ATOM     27  S   UNL     1      46.551   7.417  12.307  0.00  0.00    +0.000 S 
ATOM     28  C   UNL     1      45.108   6.527  12.174  0.00  0.00    +0.000 A 
ATOM     29  N   UNL     1      44.076   6.978  11.411  0.00  0.00    +0.000 NA
ATOM     30  C   UNL     1      43.031   6.221  11.424  0.00  0.00    +0.000 A 
ATOM     31  N   UNL     1      42.928   5.047  12.125  0.00  0.00    +0.000 N 
ATOM     32  C   UNL     1      43.956   4.534  12.880  0.00  0.00    +0.000 A 
ATOM     33  O   UNL     1      43.849   3.453  13.450  0.00  0.00    +0.000 OA
ATOM     34  C   UNL     1      45.148   5.360  12.918  0.00  0.00    +0.000 A 
ATOM     35  H   UNL     1      42.085   4.494  12.082  0.00  0.00    +0.000 HD
ENDBRANCH  22  25
ENDBRANCH  20  21
ENDBRANCH   4  20
TORSDOF 6
ENDMDL
MODEL 7
REMARK VINA RESULT:    -6.125      3.334      9.488
REMARK INTER + INTRA:          -9.527
REMARK INTER:                  -8.455
REMARK INTRA:                  -1.072
REMARK UNBOUND:                -1.253
REMARK  Name = 
REMARK  7 active torsions:
REMARK  status: ('A' for Active; 'I' for Inactive)
REMARK    1  A    between atoms: C_1  and  C_2
REMARK    2  A    between atoms: C_2  and  N_3
REMARK    3  A    between atoms: C_2  and  C_12
REMARK    4  A    between atoms: C_4  and  C_6
REMARK    5  A    between atoms: C_15  and  C_16
REMARK    6  A    between atoms: C_16  and  N_17
REMARK    7  A    between atoms: C_18  and  C_20
REMARK                            x       y       z     vdW  Elec       q    Type
REMARK                         _______ _______ _______ _____ _____    ______ ____
ROOT
ATOM      1  C   UNL     1      49.739   7.951  15.114  0.00  0.00    +0.000 A 
ATOM      2  C   UNL     1      49.619   9.089  14.303  0.00  0.00    +0.000 A 
ATOM      3  C   UNL     1      48.668   9.138  13.273  0.00  0.00    +0.000 A 
ATOM      4  C   UNL     1      47.819   8.052  13.032  0.00  0.00    +0.000 A 
ATOM      5  C   UNL     1      47.937   6.915  13.840  0.00  0.00    +0.000 A 
ATOM      6  C   UNL     1      48.874   6.871  14.874  0.00  0.00    +0.000 A 
ENDROOT
BRANCH   1   8
ATOM      7  C   UNL     1      50.749   9.080  17.137  0.00  0.00    +0.000 C 
ATOM      8  C   UNL     1      50.807   7.877  16.197  0.00  0.00    +0.000 C 
BRANCH   8   9
ATOM      9  N   UNL     1      50.644   6.641  16.949  0.00  0.00    +0.000 N 
ATOM     10  C   UNL     1      51.621   5.688  17.071  0.00  0.00    +0.000 C 
ATOM     11  O   UNL     1      52.746   5.834  16.585  0.00  0.00    +0.000 OA
ATOM     12  H   UNL     1      49.787   6.540  17.468  0.00  0.00    +0.000 HD
BRANCH  10  13
ATOM     13  C   UNL     1      51.225   4.366  17.796  0.00  0.00    +0.000 C 
ATOM     14  C   UNL     1      52.319   3.314  18.030  0.00  0.00    +0.000 C 
ATOM     15  C   UNL     1      53.328   3.714  19.109  0.00  0.00    +0.000 C 
ATOM     16  C   UNL     1      52.641   4.244  20.363  0.00  0.00    +0.000 C 
ATOM     17  C   UNL     1      51.538   5.249  20.043  0.00  0.00    +0.000 C 
ATOM     18  N   UNL     1      50.576   4.694  19.088  0.00  0.00    +0.000 NA
ATOM     19  H   UNL     1      49.861   5.403  18.895  0.00  0.00    +0.000 HD
ENDBRANCH  10  13
ENDBRANCH   8   9
ENDBRANCH   1   8
BRANCH   4  20
ATOM     20  C   UNL     1      46.834   8.062  11.890  0.00  0.00    +0.000 C 
BRANCH  20  21
ATOM     21  N   UNL     1      46.323   6.737  11.640  0.00  0.00    +0.000 N 
ATOM     22  C   UNL     1      44.983   6.510  11.460  0.00  0.00    +0.000 C 
ATOM     23  O   UNL     1      44.163   7.424  11.457  0.00  0.00    +0.000 OA
ATOM     24  H   UNL     1      46.936   5.958  11.859  0.00  0.00    +0.000 HD
BRANCH  22  25
ATOM     25  C   UNL     1      44.583   5.120  11.213  0.00  0.00    +0.000 A 
ATOM     26  C   UNL     1      43.793   4.456  12.148  0.00  0.00    +0.000 A 
ATOM     27  S   UNL     1      43.395   2.861  11.698  0.00  0.00    +0.000 S 
ATOM     28  C   UNL     1      44.296   2.981  10.260  0.00  0.00    +0.000 A 
ATOM     29  N   UNL     1      44.396   1.925   9.408  0.00  0.00    +0.000 NA
ATOM     30  C   UNL     1      45.135   2.143   8.372  0.00  0.00    +0.000 A 
ATOM     31  N   UNL     1      45.776   3.326   8.107  0.00  0.00    +0.000 N 
ATOM     32  C   UNL     1      45.675   4.430   8.920  0.00  0.00    +0.000 A 
ATOM     33  O   UNL     1      46.218   5.490   8.625  0.00  0.00    +0.000 OA
ATOM     34  C   UNL     1      44.874   4.230  10.113  0.00  0.00    +0.000 A 
ATOM     35  H   UNL     1      46.330   3.436   7.271  0.00  0.00    +0.000 HD
ENDBRANCH  22  25
ENDBRANCH  20  21
ENDBRANCH   4  20
TORSDOF 6
ENDMDL
MODEL 8
REMARK VINA RESULT:    -5.289      3.665      9.669
REMARK INTER + INTRA:          -8.398
REMARK INTER:                  -8.130
REMARK INTRA:                  -0.268
REMARK UNBOUND:                -1.253
REMARK  Name = 
REMARK  7 active torsions:
REMARK  status: ('A' for Active; 'I' for Inactive)
REMARK    1  A    between atoms: C_1  and  C_2
REMARK    2  A    between atoms: C_2  and  N_3
REMARK    3  A    between atoms: C_2  and  C_12
REMARK    4  A    between atoms: C_4  and  C_6
REMARK    5  A    between atoms: C_15  and  C_16
REMARK    6  A    between atoms: C_16  and  N_17
REMARK    7  A    between atoms: C_18  and  C_20
REMARK                            x       y       z     vdW  Elec       q    Type
REMARK                         _______ _______ _______ _____ _____    ______ ____
ROOT
ATOM      1  C   UNL     1      50.285   5.362  19.202  0.00  0.00    +0.000 A 
ATOM      2  C   UNL     1      50.468   4.054  18.729  0.00  0.00    +0.000 A 
ATOM      3  C   UNL     1      49.520   3.457  17.885  0.00  0.00    +0.000 A 
ATOM      4  C   UNL     1      48.370   4.154  17.496  0.00  0.00    +0.000 A 
ATOM      5  C   UNL     1      48.185   5.459  17.966  0.00  0.00    +0.000 A 
ATOM      6  C   UNL     1      49.135   6.058  18.796  0.00  0.00    +0.000 A 
ENDROOT
BRANCH   1   8
ATOM      7  C   UNL     1      52.389   5.008  20.556  0.00  0.00    +0.000 C 
ATOM      8  C   UNL     1      51.286   5.990  20.161  0.00  0.00    +0.000 C 
BRANCH   8   9
ATOM      9  N   UNL     1      51.865   7.175  19.543  0.00  0.00    +0.000 N 
ATOM     10  C   UNL     1      52.747   7.134  18.496  0.00  0.00    +0.000 C 
ATOM     11  O   UNL     1      53.082   6.075  17.959  0.00  0.00    +0.000 OA
ATOM     12  H   UNL     1      51.521   8.064  19.866  0.00  0.00    +0.000 HD
BRANCH  10  13
ATOM     13  C   UNL     1      53.372   8.492  18.052  0.00  0.00    +0.000 C 
ATOM     14  C   UNL     1      52.929   9.766  18.784  0.00  0.00    +0.000 C 
ATOM     15  C   UNL     1      53.477   9.873  20.209  0.00  0.00    +0.000 C 
ATOM     16  C   UNL     1      54.967   9.559  20.271  0.00  0.00    +0.000 C 
ATOM     17  C   UNL     1      55.333   8.305  19.482  0.00  0.00    +0.000 C 
ATOM     18  N   UNL     1      54.850   8.387  18.102  0.00  0.00    +0.000 NA
ATOM     19  H   UNL     1      55.108   7.523  17.613  0.00  0.00    +0.000 HD
ENDBRANCH  10  13
ENDBRANCH   8   9
ENDBRANCH   1   8
BRANCH   4  20
ATOM     20  C   UNL     1      47.311   3.506  16.641  0.00  0.00    +0.000 C 
BRANCH  20  21
ATOM     21  N   UNL     1      46.757   4.453  15.704  0.00  0.00    +0.000 N 
ATOM     22  C   UNL     1      46.779   4.218  14.353  0.00  0.00    +0.000 C 
ATOM     23  O   UNL     1      47.227   3.176  13.882  0.00  0.00    +0.000 OA
ATOM     24  H   UNL     1      46.594   5.395  16.044  0.00  0.00    +0.000 HD
BRANCH  22  25
ATOM     25  C   UNL     1      46.186   5.254  13.500  0.00  0.00    +0.000 A 
ATOM     26  C   UNL     1      46.881   6.439  13.275  0.00  0.00    +0.000 A 
ATOM     27  S   UNL     1      46.067   7.523  12.241  0.00  0.00    +0.000 S 
ATOM     28  C   UNL     1      44.738   6.472  12.090  0.00  0.00    +0.000 A 
ATOM     29  N   UNL     1      43.654   6.820  11.347  0.00  0.00    +0.000 NA
ATOM     30  C   UNL     1      42.706   5.943  11.345  0.00  0.00    +0.000 A 
ATOM     31  N   UNL     1      42.749   4.746  12.011  0.00  0.00    +0.000 N 
ATOM     32  C   UNL     1      43.838   4.337  12.744  0.00  0.00    +0.000 A 
ATOM     33  O   UNL     1      43.864   3.236  13.283  0.00  0.00    +0.000 OA
ATOM     34  C   UNL     1      44.923   5.298  12.800  0.00  0.00    +0.000 A 
ATOM     35  H   UNL     1      41.977   4.098  11.958  0.00  0.00    +0.000 HD
ENDBRANCH  22  25
ENDBRANCH  20  21
ENDBRANCH   4  20
TORSDOF 6
ENDMDL
MODEL 9
REMARK VINA RESULT:    -5.223      3.424      8.258
REMARK INTER + INTRA:          -8.308
REMARK INTER:                  -7.350
REMARK INTRA:                  -0.958
REMARK UNBOUND:                -1.253
REMARK  Name = 
REMARK  7 active torsions:
REMARK  status: ('A' for Active; 'I' for Inactive)
REMARK    1  A    between atoms: C_1  and  C_2
REMARK    2  A    between atoms: C_2  and  N_3
REMARK    3  A    between atoms: C_2  and  C_12
REMARK    4  A    between atoms: C_4  and  C_6
REMARK    5  A    between atoms: C_15  and  C_16
REMARK    6  A    between atoms: C_16  and  N_17
REMARK    7  A    between atoms: C_18  and  C_20
REMARK                            x       y       z     vdW  Elec       q    Type
REMARK                         _______ _______ _______ _____ _____    ______ ____
ROOT
ATOM      1  C   UNL     1      51.706   4.553  18.446  0.00  0.00    +0.000 A 
ATOM      2  C   UNL     1      51.365   3.391  17.736  0.00  0.00    +0.000 A 
ATOM      3  C   UNL     1      50.037   3.144  17.360  0.00  0.00    +0.000 A 
ATOM      4  C   UNL     1      49.022   4.051  17.685  0.00  0.00    +0.000 A 
ATOM      5  C   UNL     1      49.358   5.210  18.393  0.00  0.00    +0.000 A 
ATOM      6  C   UNL     1      50.683   5.463  18.756  0.00  0.00    +0.000 A 
ENDROOT
BRANCH   1   8
ATOM      7  C   UNL     1      54.108   3.782  18.293  0.00  0.00    +0.000 C 
ATOM      8  C   UNL     1      53.139   4.795  18.901  0.00  0.00    +0.000 C 
BRANCH   8   9
ATOM      9  N   UNL     1      53.534   6.149  18.542  0.00  0.00    +0.000 N 
ATOM     10  C   UNL     1      53.688   6.580  17.251  0.00  0.00    +0.000 C 
ATOM     11  O   UNL     1      53.451   5.854  16.282  0.00  0.00    +0.000 OA
ATOM     12  H   UNL     1      53.614   6.810  19.297  0.00  0.00    +0.000 HD
BRANCH  10  13
ATOM     13  C   UNL     1      54.252   8.021  17.055  0.00  0.00    +0.000 C 
ATOM     14  C   UNL     1      54.378   8.559  15.622  0.00  0.00    +0.000 C 
ATOM     15  C   UNL     1      53.033   8.897  14.977  0.00  0.00    +0.000 C 
ATOM     16  C   UNL     1      52.140   9.706  15.911  0.00  0.00    +0.000 C 
ATOM     17  C   UNL     1      52.103   9.132  17.324  0.00  0.00    +0.000 C 
ATOM     18  N   UNL     1      53.454   8.971  17.867  0.00  0.00    +0.000 NA
ATOM     19  H   UNL     1      53.382   8.576  18.810  0.00  0.00    +0.000 HD
ENDBRANCH  10  13
ENDBRANCH   8   9
ENDBRANCH   1   8
BRANCH   4  20
ATOM     20  C   UNL     1      47.580   3.771  17.344  0.00  0.00    +0.000 C 
BRANCH  20  21
ATOM     21  N   UNL     1      47.134   4.617  16.264  0.00  0.00    +0.000 N 
ATOM     22  C   UNL     1      47.148   4.183  14.964  0.00  0.00    +0.000 C 
ATOM     23  O   UNL     1      47.496   3.045  14.662  0.00  0.00    +0.000 OA
ATOM     24  H   UNL     1      47.061   5.611  16.457  0.00  0.00    +0.000 HD
BRANCH  22  25
ATOM     25  C   UNL     1      46.671   5.133  13.952  0.00  0.00    +0.000 A 
ATOM     26  C   UNL     1      45.474   4.883  13.286  0.00  0.00    +0.000 A 
ATOM     27  S   UNL     1      45.049   6.094  12.165  0.00  0.00    +0.000 S 
ATOM     28  C   UNL     1      46.467   6.975  12.492  0.00  0.00    +0.000 A 
ATOM     29  N   UNL     1      46.740   8.132  11.831  0.00  0.00    +0.000 NA
ATOM     30  C   UNL     1      47.863   8.680  12.155  0.00  0.00    +0.000 A 
ATOM     31  N   UNL     1      48.734   8.180  13.089  0.00  0.00    +0.000 N 
ATOM     32  C   UNL     1      48.483   7.035  13.807  0.00  0.00    +0.000 A 
ATOM     33  O   UNL     1      49.259   6.645  14.674  0.00  0.00    +0.000 OA
ATOM     34  C   UNL     1      47.243   6.366  13.464  0.00  0.00    +0.000 A 
ATOM     35  H   UNL     1      49.591   8.665  13.305  0.00  0.00    +0.000 HD
ENDBRANCH  22  25
ENDBRANCH  20  21
ENDBRANCH   4  20
TORSDOF 6
ENDMDL
