MODEL 1
REMARK VINA RESULT:    -7.456      0.000      0.000
REMARK INTER + INTRA:         -11.233
REMARK INTER:                 -10.289
REMARK INTRA:                  -0.945
REMARK UNBOUND:                -0.945
REMARK  Name = 
REMARK  7 active torsions:
REMARK  status: ('A' for Active; 'I' for Inactive)
REMARK    1  A    between atoms: C_2  and  C_19
REMARK    2  A    between atoms: N_3  and  C_4
REMARK    3  A    between atoms: C_4  and  C_5
REMARK    4  A    between atoms: C_8  and  C_9
REMARK    5  A    between atoms: C_9  and  N_10
REMARK    6  A    between atoms: N_10  and  C_11
REMARK    7  A    between atoms: C_14  and  O_15
REMARK                            x       y       z     vdW  Elec       q    Type
REMARK                         _______ _______ _______ _____ _____    ______ ____
ROOT
ATOM      1  C   UNL     1      47.180   3.372  16.784  0.00  0.00    +0.000 C 
ENDROOT
BRANCH   1   2
ATOM      2  C   UNL     1      48.649   3.446  17.109  0.00  0.00    +0.000 A 
ATOM      3  C   UNL     1      49.234   4.665  17.478  0.00  0.00    +0.000 A 
ATOM      4  C   UNL     1      50.587   4.729  17.823  0.00  0.00    +0.000 A 
ATOM      5  C   UNL     1      51.386   3.579  17.794  0.00  0.00    +0.000 A 
ATOM      6  C   UNL     1      50.805   2.367  17.391  0.00  0.00    +0.000 A 
ATOM      7  C   UNL     1      49.454   2.303  17.042  0.00  0.00    +0.000 A 
BRANCH   5   8
ATOM      8  C   UNL     1      52.848   3.636  18.176  0.00  0.00    +0.000 C 
BRANCH   8   9
ATOM      9  N   UNL     1      53.234   2.482  18.991  0.00  0.00    +0.000 NA
ATOM     10  H   UNL     1      52.446   1.838  19.006  0.00  0.00    +0.000 HD
BRANCH   9  11
ATOM     11  C   UNL     1      54.453   1.815  18.512  0.00  0.00    +0.000 C 
ATOM     12  C   UNL     1      55.057   0.974  19.663  0.00  0.00    +0.000 C 
ATOM     13  C   UNL     1      55.063  -0.486  19.196  0.00  0.00    +0.000 C 
ATOM     14  C   UNL     1      54.047  -0.537  18.067  0.00  0.00    +0.000 C 
ATOM     15  C   UNL     1      54.252   0.799  17.374  0.00  0.00    +0.000 C 
BRANCH  14  16
ATOM     16  O   UNL     1      52.717  -0.650  18.557  0.00  0.00    +0.000 OA
ATOM     17  H   UNL     1      52.141  -0.062  18.041  0.00  0.00    +0.000 HD
ENDBRANCH  14  16
ENDBRANCH   9  11
ENDBRANCH   8   9
ENDBRANCH   5   8
ENDBRANCH   1   2
BRANCH   1  20
ATOM     18  O   UNL     1      47.223   3.115  13.987  0.00  0.00    +0.000 OA
ATOM     19  C   UNL     1      46.798   4.154  14.481  0.00  0.00    +0.000 C 
ATOM     20  N   UNL     1      46.794   4.380  15.832  0.00  0.00    +0.000 N 
ATOM     21  H   UNL     1      46.291   5.179  16.203  0.00  0.00    +0.000 HD
BRANCH  19  22
ATOM     22  C   UNL     1      46.306   5.250  13.638  0.00  0.00    +0.000 A 
ATOM     23  C   UNL     1      47.121   6.346  13.389  0.00  0.00    +0.000 A 
ATOM     24  S   UNL     1      46.408   7.505  12.358  0.00  0.00    +0.000 S 
ATOM     25  C   UNL     1      45.003   6.562  12.183  0.00  0.00    +0.000 A 
ATOM     26  N   UNL     1      43.986   6.964  11.368  0.00  0.00    +0.000 NA
ATOM     27  C   UNL     1      43.003   6.135  11.297  0.00  0.00    +0.000 A 
ATOM     28  N   UNL     1      42.927   4.950  11.981  0.00  0.00    +0.000 N 
ATOM     29  C   UNL     1      43.879   4.551  12.888  0.00  0.00    +0.000 A 
ATOM     30  O   UNL     1      43.703   3.574  13.608  0.00  0.00    +0.000 OA
ATOM     31  C   UNL     1      45.051   5.408  12.943  0.00  0.00    +0.000 A 
ATOM     32  H   UNL     1      42.105   4.367  11.915  0.00  0.00    +0.000 HD
ENDBRANCH  19  22
ENDBRANCH   1  20
TORSDOF 7
ENDMDL
MODEL 2
REMARK VINA RESULT:    -7.095      4.145      9.055
REMARK INTER + INTRA:         -10.736
REMARK INTER:                  -8.975
REMARK INTRA:                  -1.761
REMARK UNBOUND:                -0.945
REMARK  Name = 
REMARK  7 active torsions:
REMARK  status: ('A' for Active; 'I' for Inactive)
REMARK    1  A    between atoms: C_2  and  C_19
REMARK    2  A    between atoms: N_3  and  C_4
REMARK    3  A    between atoms: C_4  and  C_5
REMARK    4  A    between atoms: C_8  and  C_9
REMARK    5  A    between atoms: C_9  and  N_10
REMARK    6  A    between atoms: N_10  and  C_11
REMARK    7  A    between atoms: C_14  and  O_15
REMARK                            x       y       z     vdW  Elec       q    Type
REMARK                         _______ _______ _______ _____ _____    ______ ____
ROOT
ATOM      1  C   UNL     1      49.243   8.328  13.892  0.00  0.00    +0.000 C 
ENDROOT
BRANCH   1   2
ATOM      2  C   UNL     1      47.969   8.049  13.136  0.00  0.00    +0.000 A 
ATOM      3  C   UNL     1      47.910   7.002  12.207  0.00  0.00    +0.000 A 
ATOM      4  C   UNL     1      46.718   6.712  11.536  0.00  0.00    +0.000 A 
ATOM      5  C   UNL     1      45.565   7.472  11.772  0.00  0.00    +0.000 A 
ATOM      6  C   UNL     1      45.637   8.541  12.677  0.00  0.00    +0.000 A 
ATOM      7  C   UNL     1      46.829   8.834  13.344  0.00  0.00    +0.000 A 
BRANCH   5   8
ATOM      8  C   UNL     1      44.268   7.159  11.060  0.00  0.00    +0.000 C 
BRANCH   8   9
ATOM      9  N   UNL     1      44.276   5.805  10.502  0.00  0.00    +0.000 NA
ATOM     10  H   UNL     1      45.172   5.382  10.734  0.00  0.00    +0.000 HD
BRANCH   9  11
ATOM     11  C   UNL     1      43.160   4.975  10.976  0.00  0.00    +0.000 C 
ATOM     12  C   UNL     1      43.536   3.481  10.821  0.00  0.00    +0.000 C 
ATOM     13  C   UNL     1      43.512   2.864  12.224  0.00  0.00    +0.000 C 
ATOM     14  C   UNL     1      43.629   4.048  13.171  0.00  0.00    +0.000 C 
ATOM     15  C   UNL     1      42.812   5.118  12.469  0.00  0.00    +0.000 C 
BRANCH  14  16
ATOM     16  O   UNL     1      44.979   4.467  13.328  0.00  0.00    +0.000 OA
ATOM     17  H   UNL     1      44.987   5.377  13.670  0.00  0.00    +0.000 HD
ENDBRANCH  14  16
ENDBRANCH   9  11
ENDBRANCH   8   9
ENDBRANCH   5   8
ENDBRANCH   1   2
BRANCH   1  20
ATOM     18  O   UNL     1      48.364   8.679  16.536  0.00  0.00    +0.000 OA
ATOM     19  C   UNL     1      48.924   7.631  16.231  0.00  0.00    +0.000 C 
ATOM     20  N   UNL     1      49.430   7.404  14.978  0.00  0.00    +0.000 N 
ATOM     21  H   UNL     1      49.739   6.471  14.726  0.00  0.00    +0.000 HD
BRANCH  19  22
ATOM     22  C   UNL     1      49.128   6.563  17.217  0.00  0.00    +0.000 A 
ATOM     23  C   UNL     1      49.894   6.809  18.348  0.00  0.00    +0.000 A 
ATOM     24  S   UNL     1      49.994   5.473  19.407  0.00  0.00    +0.000 S 
ATOM     25  C   UNL     1      48.986   4.537  18.405  0.00  0.00    +0.000 A 
ATOM     26  N   UNL     1      48.621   3.274  18.764  0.00  0.00    +0.000 NA
ATOM     27  C   UNL     1      47.823   2.696  17.934  0.00  0.00    +0.000 A 
ATOM     28  N   UNL     1      47.372   3.252  16.765  0.00  0.00    +0.000 N 
ATOM     29  C   UNL     1      47.792   4.480  16.314  0.00  0.00    +0.000 A 
ATOM     30  O   UNL     1      47.507   4.877  15.189  0.00  0.00    +0.000 OA
ATOM     31  C   UNL     1      48.626   5.210  17.253  0.00  0.00    +0.000 A 
ATOM     32  H   UNL     1      46.784   2.725  16.136  0.00  0.00    +0.000 HD
ENDBRANCH  19  22
ENDBRANCH   1  20
TORSDOF 7
ENDMDL
MODEL 3
REMARK VINA RESULT:    -7.014      3.114      9.556
REMARK INTER + INTRA:         -10.625
REMARK INTER:                  -9.512
REMARK INTRA:                  -1.113
REMARK UNBOUND:                -0.945
REMARK  Name = 
REMARK  7 active torsions:
REMARK  status: ('A' for Active; 'I' for Inactive)
REMARK    1  A    between atoms: C_2  and  C_19
REMARK    2  A    between atoms: N_3  and  C_4
REMARK    3  A    between atoms: C_4  and  C_5
REMARK    4  A    between atoms: C_8  and  C_9
REMARK    5  A    between atoms: C_9  and  N_10
REMARK    6  A    between atoms: N_10  and  C_11
REMARK    7  A    between atoms: C_14  and  O_15
REMARK                            x       y       z     vdW  Elec       q    Type
REMARK                         _______ _______ _______ _____ _____    ______ ____
ROOT
ATOM      1  C   UNL     1      49.344   6.135  17.674  0.00  0.00    +0.000 C 
ENDROOT
BRANCH   1   2
ATOM      2  C   UNL     1      48.608   5.857  16.389  0.00  0.00    +0.000 A 
ATOM      3  C   UNL     1      47.791   4.725  16.269  0.00  0.00    +0.000 A 
ATOM      4  C   UNL     1      47.073   4.487  15.094  0.00  0.00    +0.000 A 
ATOM      5  C   UNL     1      47.166   5.370  14.011  0.00  0.00    +0.000 A 
ATOM      6  C   UNL     1      48.011   6.484  14.121  0.00  0.00    +0.000 A 
ATOM      7  C   UNL     1      48.733   6.720  15.293  0.00  0.00    +0.000 A 
BRANCH   5   8
ATOM      8  C   UNL     1      46.383   5.128  12.739  0.00  0.00    +0.000 C 
BRANCH   8   9
ATOM      9  N   UNL     1      44.980   5.517  12.892  0.00  0.00    +0.000 NA
ATOM     10  H   UNL     1      44.961   6.482  13.214  0.00  0.00    +0.000 HD
BRANCH   9  11
ATOM     11  C   UNL     1      44.194   5.354  11.661  0.00  0.00    +0.000 C 
ATOM     12  C   UNL     1      45.037   4.576  10.621  0.00  0.00    +0.000 C 
ATOM     13  C   UNL     1      44.273   3.286  10.300  0.00  0.00    +0.000 C 
ATOM     14  C   UNL     1      43.323   3.095  11.472  0.00  0.00    +0.000 C 
ATOM     15  C   UNL     1      42.908   4.520  11.798  0.00  0.00    +0.000 C 
BRANCH  14  16
ATOM     16  O   UNL     1      43.971   2.492  12.585  0.00  0.00    +0.000 OA
ATOM     17  H   UNL     1      44.856   2.200  12.312  0.00  0.00    +0.000 HD
ENDBRANCH  14  16
ENDBRANCH   9  11
ENDBRANCH   8   9
ENDBRANCH   5   8
ENDBRANCH   1   2
BRANCH   1  20
ATOM     18  O   UNL     1      51.966   6.139  16.665  0.00  0.00    +0.000 OA
ATOM     19  C   UNL     1      51.629   5.249  17.439  0.00  0.00    +0.000 C 
ATOM     20  N   UNL     1      50.355   5.144  17.933  0.00  0.00    +0.000 N 
ATOM     21  H   UNL     1      50.165   4.495  18.688  0.00  0.00    +0.000 HD
BRANCH  19  22
ATOM     22  C   UNL     1      52.573   4.203  17.851  0.00  0.00    +0.000 A 
ATOM     23  C   UNL     1      53.807   4.559  18.376  0.00  0.00    +0.000 A 
ATOM     24  S   UNL     1      54.762   3.221  18.840  0.00  0.00    +0.000 S 
ATOM     25  C   UNL     1      53.540   2.127  18.387  0.00  0.00    +0.000 A 
ATOM     26  N   UNL     1      53.697   0.785  18.575  0.00  0.00    +0.000 NA
ATOM     27  C   UNL     1      52.678   0.078  18.228  0.00  0.00    +0.000 A 
ATOM     28  N   UNL     1      51.524   0.580  17.687  0.00  0.00    +0.000 N 
ATOM     29  C   UNL     1      51.359   1.911  17.388  0.00  0.00    +0.000 A 
ATOM     30  O   UNL     1      50.388   2.306  16.751  0.00  0.00    +0.000 OA
ATOM     31  C   UNL     1      52.445   2.765  17.838  0.00  0.00    +0.000 A 
ATOM     32  H   UNL     1      50.780  -0.036  17.393  0.00  0.00    +0.000 HD
ENDBRANCH  19  22
ENDBRANCH   1  20
TORSDOF 7
ENDMDL
MODEL 4
REMARK VINA RESULT:    -6.999      1.560      2.323
REMARK INTER + INTRA:         -10.603
REMARK INTER:                  -9.675
REMARK INTRA:                  -0.928
REMARK UNBOUND:                -0.945
REMARK  Name = 
REMARK  7 active torsions:
REMARK  status: ('A' for Active; 'I' for Inactive)
REMARK    1  A    between atoms: C_2  and  C_19
REMARK    2  A    between atoms: N_3  and  C_4
REMARK    3  A    between atoms: C_4  and  C_5
REMARK    4  A    between atoms: C_8  and  C_9
REMARK    5  A    between atoms: C_9  and  N_10
REMARK    6  A    between atoms: N_10  and  C_11
REMARK    7  A    between atoms: C_14  and  O_15
REMARK                            x       y       z     vdW  Elec       q    Type
REMARK                         _______ _______ _______ _____ _____    ______ ____
ROOT
ATOM      1  C   UNL     1      49.051   6.873  16.581  0.00  0.00    +0.000 C 
ENDROOT
BRANCH   1   2
ATOM      2  C   UNL     1      49.692   5.555  16.932  0.00  0.00    +0.000 A 
ATOM      3  C   UNL     1      48.913   4.397  17.054  0.00  0.00    +0.000 A 
ATOM      4  C   UNL     1      49.509   3.164  17.337  0.00  0.00    +0.000 A 
ATOM      5  C   UNL     1      50.895   3.067  17.514  0.00  0.00    +0.000 A 
ATOM      6  C   UNL     1      51.669   4.235  17.426  0.00  0.00    +0.000 A 
ATOM      7  C   UNL     1      51.072   5.467  17.148  0.00  0.00    +0.000 A 
BRANCH   5   8
ATOM      8  C   UNL     1      51.551   1.737  17.808  0.00  0.00    +0.000 C 
BRANCH   8   9
ATOM      9  N   UNL     1      52.711   1.894  18.688  0.00  0.00    +0.000 NA
ATOM     10  H   UNL     1      52.538   1.345  19.527  0.00  0.00    +0.000 HD
BRANCH   9  11
ATOM     11  C   UNL     1      53.978   1.507  18.054  0.00  0.00    +0.000 C 
ATOM     12  C   UNL     1      54.995   1.110  19.151  0.00  0.00    +0.000 C 
ATOM     13  C   UNL     1      55.374  -0.355  18.903  0.00  0.00    +0.000 C 
ATOM     14  C   UNL     1      54.249  -0.906  18.042  0.00  0.00    +0.000 C 
ATOM     15  C   UNL     1      53.914   0.270  17.140  0.00  0.00    +0.000 C 
BRANCH  14  16
ATOM     16  O   UNL     1      53.120  -1.280  18.822  0.00  0.00    +0.000 OA
ATOM     17  H   UNL     1      53.236  -2.197  19.121  0.00  0.00    +0.000 HD
ENDBRANCH  14  16
ENDBRANCH   9  11
ENDBRANCH   8   9
ENDBRANCH   5   8
ENDBRANCH   1   2
BRANCH   1  20
ATOM     18  O   UNL     1      49.411   6.860  13.795  0.00  0.00    +0.000 OA
ATOM     19  C   UNL     1      48.287   6.671  14.250  0.00  0.00    +0.000 C 
ATOM     20  N   UNL     1      48.018   6.715  15.592  0.00  0.00    +0.000 N 
ATOM     21  H   UNL     1      47.117   6.397  15.932  0.00  0.00    +0.000 HD
BRANCH  19  22
ATOM     22  C   UNL     1      47.141   6.427  13.366  0.00  0.00    +0.000 A 
ATOM     23  C   UNL     1      46.599   7.478  12.639  0.00  0.00    +0.000 A 
ATOM     24  S   UNL     1      45.301   7.012  11.632  0.00  0.00    +0.000 S 
ATOM     25  C   UNL     1      45.448   5.385  12.109  0.00  0.00    +0.000 A 
ATOM     26  N   UNL     1      44.649   4.422  11.567  0.00  0.00    +0.000 NA
ATOM     27  C   UNL     1      44.896   3.229  11.987  0.00  0.00    +0.000 A 
ATOM     28  N   UNL     1      45.851   2.908  12.915  0.00  0.00    +0.000 N 
ATOM     29  C   UNL     1      46.611   3.855  13.560  0.00  0.00    +0.000 A 
ATOM     30  O   UNL     1      47.334   3.556  14.505  0.00  0.00    +0.000 OA
ATOM     31  C   UNL     1      46.432   5.208  13.063  0.00  0.00    +0.000 A 
ATOM     32  H   UNL     1      45.962   1.957  13.235  0.00  0.00    +0.000 HD
ENDBRANCH  19  22
ENDBRANCH   1  20
TORSDOF 7
ENDMDL
MODEL 5
REMARK VINA RESULT:    -6.951      3.216     10.922
REMARK INTER + INTRA:         -10.537
REMARK INTER:                  -9.705
REMARK INTRA:                  -0.832
REMARK UNBOUND:                -0.945
REMARK  Name = 
REMARK  7 active torsions:
REMARK  status: ('A' for Active; 'I' for Inactive)
REMARK    1  A    between atoms: C_2  and  C_19
REMARK    2  A    between atoms: N_3  and  C_4
REMARK    3  A    between atoms: C_4  and  C_5
REMARK    4  A    between atoms: C_8  and  C_9
REMARK    5  A    between atoms: C_9  and  N_10
REMARK    6  A    between atoms: N_10  and  C_11
REMARK    7  A    between atoms: C_14  and  O_15
REMARK                            x       y       z     vdW  Elec       q    Type
REMARK                         _______ _______ _______ _____ _____    ______ ____
ROOT
ATOM      1  C   UNL     1      46.437   4.316  14.141  0.00  0.00    +0.000 C 
ENDROOT
BRANCH   1   2
ATOM      2  C   UNL     1      45.919   5.536  13.424  0.00  0.00    +0.000 A 
ATOM      3  C   UNL     1      46.722   6.676  13.291  0.00  0.00    +0.000 A 
ATOM      4  C   UNL     1      46.262   7.794  12.589  0.00  0.00    +0.000 A 
ATOM      5  C   UNL     1      44.984   7.798  12.017  0.00  0.00    +0.000 A 
ATOM      6  C   UNL     1      44.168   6.669  12.181  0.00  0.00    +0.000 A 
ATOM      7  C   UNL     1      44.626   5.554  12.886  0.00  0.00    +0.000 A 
BRANCH   5   8
ATOM      8  C   UNL     1      44.481   8.998  11.245  0.00  0.00    +0.000 C 
BRANCH   8   9
ATOM      9  N   UNL     1      43.980  10.041  12.144  0.00  0.00    +0.000 NA
ATOM     10  H   UNL     1      44.768  10.381  12.690  0.00  0.00    +0.000 HD
BRANCH   9  11
ATOM     11  C   UNL     1      43.309  11.142  11.439  0.00  0.00    +0.000 C 
ATOM     12  C   UNL     1      43.162  10.772   9.943  0.00  0.00    +0.000 C 
ATOM     13  C   UNL     1      41.662  10.752   9.630  0.00  0.00    +0.000 C 
ATOM     14  C   UNL     1      40.985  10.602  10.984  0.00  0.00    +0.000 C 
ATOM     15  C   UNL     1      41.869  11.441  11.891  0.00  0.00    +0.000 C 
BRANCH  14  16
ATOM     16  O   UNL     1      40.962   9.248  11.416  0.00  0.00    +0.000 OA
ATOM     17  H   UNL     1      40.069   8.890  11.279  0.00  0.00    +0.000 HD
ENDBRANCH  14  16
ENDBRANCH   9  11
ENDBRANCH   8   9
ENDBRANCH   5   8
ENDBRANCH   1   2
BRANCH   1  20
ATOM     18  O   UNL     1      46.699   3.386  16.779  0.00  0.00    +0.000 OA
ATOM     19  C   UNL     1      47.575   4.108  16.314  0.00  0.00    +0.000 C 
ATOM     20  N   UNL     1      47.496   4.647  15.057  0.00  0.00    +0.000 N 
ATOM     21  H   UNL     1      48.309   5.102  14.657  0.00  0.00    +0.000 HD
BRANCH  19  22
ATOM     22  C   UNL     1      48.754   4.479  17.106  0.00  0.00    +0.000 A 
ATOM     23  C   UNL     1      48.804   5.721  17.723  0.00  0.00    +0.000 A 
ATOM     24  S   UNL     1      50.225   5.971  18.637  0.00  0.00    +0.000 S 
ATOM     25  C   UNL     1      50.800   4.414  18.265  0.00  0.00    +0.000 A 
ATOM     26  N   UNL     1      51.974   3.958  18.787  0.00  0.00    +0.000 NA
ATOM     27  C   UNL     1      52.268   2.748  18.457  0.00  0.00    +0.000 A 
ATOM     28  N   UNL     1      51.510   1.955  17.635  0.00  0.00    +0.000 N 
ATOM     29  C   UNL     1      50.373   2.404  17.008  0.00  0.00    +0.000 A 
ATOM     30  O   UNL     1      49.812   1.732  16.149  0.00  0.00    +0.000 OA
ATOM     31  C   UNL     1      49.951   3.734  17.412  0.00  0.00    +0.000 A 
ATOM     32  H   UNL     1      51.823   1.030  17.380  0.00  0.00    +0.000 HD
ENDBRANCH  19  22
ENDBRANCH   1  20
TORSDOF 7
ENDMDL
MODEL 6
REMARK VINA RESULT:    -6.911      3.158      4.658
REMARK INTER + INTRA:         -10.482
REMARK INTER:                  -9.294
REMARK INTRA:                  -1.188
REMARK UNBOUND:                -0.945
REMARK  Name = 
REMARK  7 active torsions:
REMARK  status: ('A' for Active; 'I' for Inactive)
REMARK    1  A    between atoms: C_2  and  C_19
REMARK    2  A    between atoms: N_3  and  C_4
REMARK    3  A    between atoms: C_4  and  C_5
REMARK    4  A    between atoms: C_8  and  C_9
REMARK    5  A    between atoms: C_9  and  N_10
REMARK    6  A    between atoms: N_10  and  C_11
REMARK    7  A    between atoms: C_14  and  O_15
REMARK                            x       y       z     vdW  Elec       q    Type
REMARK                         _______ _______ _______ _____ _____    ______ ____
ROOT
ATOM      1  C   UNL     1      48.235   7.977  12.161  0.00  0.00    +0.000 C 
ENDROOT
BRANCH   1   2
ATOM      2  C   UNL     1      48.879   7.598  13.469  0.00  0.00    +0.000 A 
ATOM      3  C   UNL     1      48.132   6.963  14.470  0.00  0.00    +0.000 A 
ATOM      4  C   UNL     1      48.736   6.570  15.668  0.00  0.00    +0.000 A 
ATOM      5  C   UNL     1      50.096   6.815  15.894  0.00  0.00    +0.000 A 
ATOM      6  C   UNL     1      50.834   7.483  14.905  0.00  0.00    +0.000 A 
ATOM      7  C   UNL     1      50.229   7.879  13.710  0.00  0.00    +0.000 A 
BRANCH   5   8
ATOM      8  C   UNL     1      50.762   6.384  17.182  0.00  0.00    +0.000 C 
BRANCH   8   9
ATOM      9  N   UNL     1      51.393   5.069  17.045  0.00  0.00    +0.000 NA
ATOM     10  H   UNL     1      52.400   5.213  17.017  0.00  0.00    +0.000 HD
BRANCH   9  11
ATOM     11  C   UNL     1      51.020   4.132  18.112  0.00  0.00    +0.000 C 
ATOM     12  C   UNL     1      49.741   4.647  18.817  0.00  0.00    +0.000 C 
ATOM     13  C   UNL     1      48.662   3.575  18.627  0.00  0.00    +0.000 C 
ATOM     14  C   UNL     1      49.140   2.748  17.444  0.00  0.00    +0.000 C 
ATOM     15  C   UNL     1      50.644   2.712  17.650  0.00  0.00    +0.000 C 
BRANCH  14  16
ATOM     16  O   UNL     1      48.816   3.362  16.203  0.00  0.00    +0.000 OA
ATOM     17  H   UNL     1      49.162   4.270  16.203  0.00  0.00    +0.000 HD
ENDBRANCH  14  16
ENDBRANCH   9  11
ENDBRANCH   8   9
ENDBRANCH   5   8
ENDBRANCH   1   2
BRANCH   1  20
ATOM     18  O   UNL     1      45.447   7.812  11.857  0.00  0.00    +0.000 OA
ATOM     19  C   UNL     1      46.146   6.898  11.431  0.00  0.00    +0.000 C 
ATOM     20  N   UNL     1      47.507   6.877  11.588  0.00  0.00    +0.000 N 
ATOM     21  H   UNL     1      48.056   6.189  11.084  0.00  0.00    +0.000 HD
BRANCH  19  22
ATOM     22  C   UNL     1      45.551   5.737  10.759  0.00  0.00    +0.000 A 
ATOM     23  C   UNL     1      45.800   5.520   9.411  0.00  0.00    +0.000 A 
ATOM     24  S   UNL     1      45.066   4.104   8.802  0.00  0.00    +0.000 S 
ATOM     25  C   UNL     1      44.423   3.718  10.329  0.00  0.00    +0.000 A 
ATOM     26  N   UNL     1      43.712   2.570  10.519  0.00  0.00    +0.000 NA
ATOM     27  C   UNL     1      43.321   2.383  11.733  0.00  0.00    +0.000 A 
ATOM     28  N   UNL     1      43.554   3.244  12.772  0.00  0.00    +0.000 N 
ATOM     29  C   UNL     1      44.179   4.457  12.609  0.00  0.00    +0.000 A 
ATOM     30  O   UNL     1      44.222   5.280  13.518  0.00  0.00    +0.000 OA
ATOM     31  C   UNL     1      44.714   4.681  11.277  0.00  0.00    +0.000 A 
ATOM     32  H   UNL     1      43.179   3.059  13.691  0.00  0.00    +0.000 HD
ENDBRANCH  19  22
ENDBRANCH   1  20
TORSDOF 7
ENDMDL
MODEL 7
REMARK VINA RESULT:    -6.833      4.104      9.388
REMARK INTER + INTRA:         -10.374
REMARK INTER:                  -9.644
REMARK INTRA:                  -0.730
REMARK UNBOUND:                -0.945
REMARK  Name = 
REMARK  7 active torsions:
REMARK  status: ('A' for Active; 'I' for Inactive)
REMARK    1  A    between atoms: C_2  and  C_19
REMARK    2  A    between atoms: N_3  and  C_4
REMARK    3  A    between atoms: C_4  and  C_5
REMARK    4  A    between atoms: C_8  and  C_9
REMARK    5  A    between atoms: C_9  and  N_10
REMARK    6  A    between atoms: N_10  and  C_11
REMARK    7  A    between atoms: C_14  and  O_15
REMARK                            x       y       z     vdW  Elec       q    Type
REMARK                         _______ _______ _______ _____ _____    ______ ____
ROOT
ATOM      1  C   UNL     1      47.838   8.024  13.698  0.00  0.00    +0.000 C 
ENDROOT
BRANCH   1   2
ATOM      2  C   UNL     1      46.629   7.421  13.032  0.00  0.00    +0.000 A 
ATOM      3  C   UNL     1      46.209   6.125  13.361  0.00  0.00    +0.000 A 
ATOM      4  C   UNL     1      45.063   5.578  12.777  0.00  0.00    +0.000 A 
ATOM      5  C   UNL     1      44.320   6.311  11.843  0.00  0.00    +0.000 A 
ATOM      6  C   UNL     1      44.762   7.595  11.489  0.00  0.00    +0.000 A 
ATOM      7  C   UNL     1      45.910   8.140  12.069  0.00  0.00    +0.000 A 
BRANCH   5   8
ATOM      8  C   UNL     1      43.072   5.733  11.215  0.00  0.00    +0.000 C 
BRANCH   8   9
ATOM      9  N   UNL     1      43.390   4.932  10.031  0.00  0.00    +0.000 NA
ATOM     10  H   UNL     1      43.303   5.537   9.217  0.00  0.00    +0.000 HD
BRANCH   9  11
ATOM     11  C   UNL     1      44.721   4.312  10.090  0.00  0.00    +0.000 C 
ATOM     12  C   UNL     1      44.561   2.777  10.215  0.00  0.00    +0.000 C 
ATOM     13  C   UNL     1      45.232   2.155   8.985  0.00  0.00    +0.000 C 
ATOM     14  C   UNL     1      45.303   3.284   7.969  0.00  0.00    +0.000 C 
ATOM     15  C   UNL     1      45.596   4.495   8.837  0.00  0.00    +0.000 C 
BRANCH  14  16
ATOM     16  O   UNL     1      44.073   3.448   7.274  0.00  0.00    +0.000 OA
ATOM     17  H   UNL     1      44.051   4.337   6.882  0.00  0.00    +0.000 HD
ENDBRANCH  14  16
ENDBRANCH   9  11
ENDBRANCH   8   9
ENDBRANCH   5   8
ENDBRANCH   1   2
BRANCH   1  20
ATOM     18  O   UNL     1      50.410   7.383  14.627  0.00  0.00    +0.000 OA
ATOM     19  C   UNL     1      49.442   7.126  15.335  0.00  0.00    +0.000 C 
ATOM     20  N   UNL     1      48.153   7.357  14.933  0.00  0.00    +0.000 N 
ATOM     21  H   UNL     1      47.399   7.280  15.607  0.00  0.00    +0.000 HD
BRANCH  19  22
ATOM     22  C   UNL     1      49.610   6.505  16.654  0.00  0.00    +0.000 A 
ATOM     23  C   UNL     1      50.375   7.142  17.622  0.00  0.00    +0.000 A 
ATOM     24  S   UNL     1      50.430   6.303  19.108  0.00  0.00    +0.000 S 
ATOM     25  C   UNL     1      49.404   5.081  18.516  0.00  0.00    +0.000 A 
ATOM     26  N   UNL     1      49.001   4.056  19.319  0.00  0.00    +0.000 NA
ATOM     27  C   UNL     1      48.193   3.226  18.755  0.00  0.00    +0.000 A 
ATOM     28  N   UNL     1      47.766   3.310  17.455  0.00  0.00    +0.000 N 
ATOM     29  C   UNL     1      48.223   4.267  16.581  0.00  0.00    +0.000 A 
ATOM     30  O   UNL     1      47.957   4.216  15.385  0.00  0.00    +0.000 OA
ATOM     31  C   UNL     1      49.070   5.278  17.189  0.00  0.00    +0.000 A 
ATOM     32  H   UNL     1      47.168   2.599  17.062  0.00  0.00    +0.000 HD
ENDBRANCH  19  22
ENDBRANCH   1  20
TORSDOF 7
ENDMDL
MODEL 8
REMARK VINA RESULT:    -6.826      2.369      3.249
REMARK INTER + INTRA:         -10.364
REMARK INTER:                  -9.215
REMARK INTRA:                  -1.149
REMARK UNBOUND:                -0.945
REMARK  Name = 
REMARK  7 active torsions:
REMARK  status: ('A' for Active; 'I' for Inactive)
REMARK    1  A    between atoms: C_2  and  C_19
REMARK    2  A    between atoms: N_3  and  C_4
REMARK    3  A    between atoms: C_4  and  C_5
REMARK    4  A    between atoms: C_8  and  C_9
REMARK    5  A    between atoms: C_9  and  N_10
REMARK    6  A    between atoms: N_10  and  C_11
REMARK    7  A    between atoms: C_14  and  O_15
REMARK                            x       y       z     vdW  Elec       q    Type
REMARK                         _______ _______ _______ _____ _____    ______ ____
ROOT
ATOM      1  C   UNL     1      47.216   3.459  16.765  0.00  0.00    +0.000 C 
ENDROOT
BRANCH   1   2
ATOM      2  C   UNL     1      48.673   3.607  17.121  0.00  0.00    +0.000 A 
ATOM      3  C   UNL     1      49.520   2.491  17.120  0.00  0.00    +0.000 A 
ATOM      4  C   UNL     1      50.881   2.631  17.407  0.00  0.00    +0.000 A 
ATOM      5  C   UNL     1      51.420   3.887  17.712  0.00  0.00    +0.000 A 
ATOM      6  C   UNL     1      50.562   4.997  17.746  0.00  0.00    +0.000 A 
ATOM      7  C   UNL     1      49.201   4.856  17.464  0.00  0.00    +0.000 A 
BRANCH   5   8
ATOM      8  C   UNL     1      52.893   4.050  18.013  0.00  0.00    +0.000 C 
BRANCH   8   9
ATOM      9  N   UNL     1      53.202   5.412  18.455  0.00  0.00    +0.000 NA
ATOM     10  H   UNL     1      53.216   5.409  19.472  0.00  0.00    +0.000 HD
BRANCH   9  11
ATOM     11  C   UNL     1      54.464   5.928  17.908  0.00  0.00    +0.000 C 
ATOM     12  C   UNL     1      54.952   4.986  16.781  0.00  0.00    +0.000 C 
ATOM     13  C   UNL     1      55.008   5.818  15.494  0.00  0.00    +0.000 C 
ATOM     14  C   UNL     1      54.110   7.014  15.765  0.00  0.00    +0.000 C 
ATOM     15  C   UNL     1      54.380   7.307  17.231  0.00  0.00    +0.000 C 
BRANCH  14  16
ATOM     16  O   UNL     1      52.738   6.701  15.559  0.00  0.00    +0.000 OA
ATOM     17  H   UNL     1      52.462   7.054  14.697  0.00  0.00    +0.000 HD
ENDBRANCH  14  16
ENDBRANCH   9  11
ENDBRANCH   8   9
ENDBRANCH   5   8
ENDBRANCH   1   2
BRANCH   1  20
ATOM     18  O   UNL     1      47.234   3.148  13.973  0.00  0.00    +0.000 OA
ATOM     19  C   UNL     1      46.795   4.189  14.452  0.00  0.00    +0.000 C 
ATOM     20  N   UNL     1      46.802   4.441  15.798  0.00  0.00    +0.000 N 
ATOM     21  H   UNL     1      46.288   5.237  16.159  0.00  0.00    +0.000 HD
BRANCH  19  22
ATOM     22  C   UNL     1      46.274   5.259  13.593  0.00  0.00    +0.000 A 
ATOM     23  C   UNL     1      47.065   6.366  13.318  0.00  0.00    +0.000 A 
ATOM     24  S   UNL     1      46.320   7.492  12.272  0.00  0.00    +0.000 S 
ATOM     25  C   UNL     1      44.933   6.517  12.126  0.00  0.00    +0.000 A 
ATOM     26  N   UNL     1      43.902   6.884  11.313  0.00  0.00    +0.000 NA
ATOM     27  C   UNL     1      42.935   6.034  11.265  0.00  0.00    +0.000 A 
ATOM     28  N   UNL     1      42.889   4.860  11.970  0.00  0.00    +0.000 N 
ATOM     29  C   UNL     1      43.856   4.497  12.876  0.00  0.00    +0.000 A 
ATOM     30  O   UNL     1      43.706   3.530  13.616  0.00  0.00    +0.000 OA
ATOM     31  C   UNL     1      45.010   5.379  12.906  0.00  0.00    +0.000 A 
ATOM     32  H   UNL     1      42.079   4.261  11.922  0.00  0.00    +0.000 HD
ENDBRANCH  19  22
ENDBRANCH   1  20
TORSDOF 7
ENDMDL
MODEL 9
REMARK VINA RESULT:    -6.597      6.724      7.446
REMARK INTER + INTRA:         -10.049
REMARK INTER:                  -9.028
REMARK INTRA:                  -1.021
REMARK UNBOUND:                -0.945
REMARK  Name = 
REMARK  7 active torsions:
REMARK  status: ('A' for Active; 'I' for Inactive)
REMARK    1  A    between atoms: C_2  and  C_19
REMARK    2  A    between atoms: N_3  and  C_4
REMARK    3  A    between atoms: C_4  and  C_5
REMARK    4  A    between atoms: C_8  and  C_9
REMARK    5  A    between atoms: C_9  and  N_10
REMARK    6  A    between atoms: N_10  and  C_11
REMARK    7  A    between atoms: C_14  and  O_15
REMARK                            x       y       z     vdW  Elec       q    Type
REMARK                         _______ _______ _______ _____ _____    ______ ____
ROOT
ATOM      1  C   UNL     1      46.256   8.400  11.911  0.00  0.00    +0.000 C 
ENDROOT
BRANCH   1   2
ATOM      2  C   UNL     1      47.753   8.556  11.983  0.00  0.00    +0.000 A 
ATOM      3  C   UNL     1      48.580   7.429  12.067  0.00  0.00    +0.000 A 
ATOM      4  C   UNL     1      49.971   7.567  12.090  0.00  0.00    +0.000 A 
ATOM      5  C   UNL     1      50.562   8.836  12.042  0.00  0.00    +0.000 A 
ATOM      6  C   UNL     1      49.730   9.964  11.994  0.00  0.00    +0.000 A 
ATOM      7  C   UNL     1      48.340   9.826  11.975  0.00  0.00    +0.000 A 
BRANCH   5   8
ATOM      8  C   UNL     1      52.066   8.996  12.055  0.00  0.00    +0.000 C 
BRANCH   8   9
ATOM      9  N   UNL     1      52.738   7.767  11.627  0.00  0.00    +0.000 NA
ATOM     10  H   UNL     1      52.090   6.996  11.769  0.00  0.00    +0.000 HD
BRANCH   9  11
ATOM     11  C   UNL     1      53.208   7.816  10.236  0.00  0.00    +0.000 C 
ATOM     12  C   UNL     1      54.754   7.752  10.219  0.00  0.00    +0.000 C 
ATOM     13  C   UNL     1      55.142   6.490   9.439  0.00  0.00    +0.000 C 
ATOM     14  C   UNL     1      53.897   5.619   9.466  0.00  0.00    +0.000 C 
ATOM     15  C   UNL     1      52.776   6.637   9.346  0.00  0.00    +0.000 C 
BRANCH  14  16
ATOM     16  O   UNL     1      53.787   4.891  10.683  0.00  0.00    +0.000 OA
ATOM     17  H   UNL     1      54.661   4.850  11.104  0.00  0.00    +0.000 HD
ENDBRANCH  14  16
ENDBRANCH   9  11
ENDBRANCH   8   9
ENDBRANCH   5   8
ENDBRANCH   1   2
BRANCH   1  20
ATOM     18  O   UNL     1      43.667   7.449  11.375  0.00  0.00    +0.000 OA
ATOM     19  C   UNL     1      44.591   6.645  11.453  0.00  0.00    +0.000 C 
ATOM     20  N   UNL     1      45.871   7.021  11.765  0.00  0.00    +0.000 N 
ATOM     21  H   UNL     1      46.627   6.353  11.662  0.00  0.00    +0.000 HD
BRANCH  19  22
ATOM     22  C   UNL     1      44.366   5.207  11.260  0.00  0.00    +0.000 A 
ATOM     23  C   UNL     1      43.622   4.497  12.193  0.00  0.00    +0.000 A 
ATOM     24  S   UNL     1      43.423   2.849  11.793  0.00  0.00    +0.000 S 
ATOM     25  C   UNL     1      44.293   3.042  10.344  0.00  0.00    +0.000 A 
ATOM     26  N   UNL     1      44.453   2.000   9.479  0.00  0.00    +0.000 NA
ATOM     27  C   UNL     1      45.095   2.297   8.403  0.00  0.00    +0.000 A 
ATOM     28  N   UNL     1      45.614   3.533   8.116  0.00  0.00    +0.000 N 
ATOM     29  C   UNL     1      45.564   4.584   8.999  0.00  0.00    +0.000 A 
ATOM     30  O   UNL     1      46.183   5.623   8.789  0.00  0.00    +0.000 OA
ATOM     31  C   UNL     1      44.777   4.328  10.193  0.00  0.00    +0.000 A 
ATOM     32  H   UNL     1      46.148   3.685   7.273  0.00  0.00    +0.000 HD
ENDBRANCH  19  22
ENDBRANCH   1  20
TORSDOF 7
ENDMDL
