MODEL 1
REMARK VINA RESULT:    -7.024      0.000      0.000
REMARK INTER + INTRA:         -11.400
REMARK INTER:                 -10.308
REMARK INTRA:                  -1.092
REMARK UNBOUND:                -1.092
REMARK  Name = 
REMARK  9 active torsions:
REMARK  status: ('A' for Active; 'I' for Inactive)
REMARK    1  A    between atoms: C_1  and  O_2
REMARK    2  A    between atoms: O_2  and  C_3
REMARK    3  A    between atoms: C_10  and  C_11
REMARK    4  A    between atoms: N_13  and  C_14
REMARK    5  A    between atoms: C_14  and  C_15
REMARK    6  A    between atoms: C_18  and  N_19
REMARK    7  A    between atoms: N_19  and  C_20
REMARK    8  A    between atoms: C_20  and  C_21
REMARK    9  A    between atoms: C_21  and  N_22
REMARK                            x       y       z     vdW  Elec       q    Type
REMARK                         _______ _______ _______ _____ _____    ______ ____
ROOT
ATOM      1  C   UNL     1      47.748   8.584  14.140  0.00  0.00    +0.000 C 
ENDROOT
BRANCH   1   2
ATOM      2  C   UNL     1      46.857   7.937  13.113  0.00  0.00    +0.000 A 
ATOM      3  C   UNL     1      47.334   6.896  12.311  0.00  0.00    +0.000 A 
ATOM      4  C   UNL     1      46.502   6.286  11.365  0.00  0.00    +0.000 A 
ATOM      5  C   UNL     1      45.175   6.696  11.202  0.00  0.00    +0.000 A 
ATOM      6  C   UNL     1      44.732   7.792  11.952  0.00  0.00    +0.000 A 
ATOM      7  C   UNL     1      45.555   8.400  12.904  0.00  0.00    +0.000 A 
BRANCH   5   8
ATOM      8  N   UNL     1      44.270   6.114  10.308  0.00  0.00    +0.000 N 
ATOM      9  H   UNL     1      44.607   6.231   9.353  0.00  0.00    +0.000 HD
BRANCH   8  10
ATOM     10  C   UNL     1      43.768   4.757  10.551  0.00  0.00    +0.000 C 
BRANCH  10  11
ATOM     11  C   UNL     1      44.804   3.681  10.135  0.00  0.00    +0.000 C 
BRANCH  11  12
ATOM     12  N   UNL     1      44.447   2.988   8.885  0.00  0.00    +0.000 NA
ATOM     13  C   UNL     1      44.913   1.589   8.803  0.00  0.00    +0.000 C 
ATOM     14  C   UNL     1      46.324   1.360   8.231  0.00  0.00    +0.000 C 
ATOM     15  O   UNL     1      46.553   2.100   7.028  0.00  0.00    +0.000 OA
ATOM     16  C   UNL     1      46.335   3.493   7.268  0.00  0.00    +0.000 C 
ATOM     17  C   UNL     1      44.879   3.739   7.687  0.00  0.00    +0.000 C 
ENDBRANCH  11  12
ENDBRANCH  10  11
ENDBRANCH   8  10
ENDBRANCH   5   8
ENDBRANCH   1   2
BRANCH   1  20
ATOM     18  C   UNL     1      49.210   6.982  15.293  0.00  0.00    +0.000 C 
ATOM     19  O   UNL     1      50.086   7.115  14.440  0.00  0.00    +0.000 OA
ATOM     20  N   UNL     1      48.029   7.667  15.213  0.00  0.00    +0.000 N 
ATOM     21  H   UNL     1      47.286   7.480  15.872  0.00  0.00    +0.000 HD
BRANCH  18  29
ATOM     22  C   UNL     1      47.445   4.274  16.497  0.00  0.00    +0.000 A 
ATOM     23  N   UNL     1      46.936   3.240  17.195  0.00  0.00    +0.000 NA
ATOM     24  C   UNL     1      47.561   2.875  18.317  0.00  0.00    +0.000 A 
ATOM     25  N   UNL     1      48.656   3.421  18.840  0.00  0.00    +0.000 NA
ATOM     26  C   UNL     1      49.133   4.443  18.112  0.00  0.00    +0.000 A 
ATOM     27  S   UNL     1      50.533   5.255  18.624  0.00  0.00    +0.000 S 
ATOM     28  C   UNL     1      50.462   6.317  17.300  0.00  0.00    +0.000 A 
ATOM     29  C   UNL     1      49.387   6.086  16.451  0.00  0.00    +0.000 A 
ATOM     30  C   UNL     1      48.602   4.953  16.927  0.00  0.00    +0.000 A 
BRANCH  22  32
ATOM     31  C   UNL     1      47.114   3.709  14.247  0.00  0.00    +0.000 C 
ATOM     32  O   UNL     1      46.832   4.617  15.308  0.00  0.00    +0.000 OA
ENDBRANCH  22  32
ENDBRANCH  18  29
ENDBRANCH   1  20
TORSDOF 8
ENDMDL
MODEL 2
REMARK VINA RESULT:    -6.686      1.664      1.998
REMARK INTER + INTRA:         -10.905
REMARK INTER:                 -10.083
REMARK INTRA:                  -0.823
REMARK UNBOUND:                -1.092
REMARK  Name = 
REMARK  9 active torsions:
REMARK  status: ('A' for Active; 'I' for Inactive)
REMARK    1  A    between atoms: C_1  and  O_2
REMARK    2  A    between atoms: O_2  and  C_3
REMARK    3  A    between atoms: C_10  and  C_11
REMARK    4  A    between atoms: N_13  and  C_14
REMARK    5  A    between atoms: C_14  and  C_15
REMARK    6  A    between atoms: C_18  and  N_19
REMARK    7  A    between atoms: N_19  and  C_20
REMARK    8  A    between atoms: C_20  and  C_21
REMARK    9  A    between atoms: C_21  and  N_22
REMARK                            x       y       z     vdW  Elec       q    Type
REMARK                         _______ _______ _______ _____ _____    ______ ____
ROOT
ATOM      1  C   UNL     1      47.980   7.470  13.684  0.00  0.00    +0.000 C 
ENDROOT
BRANCH   1   2
ATOM      2  C   UNL     1      46.746   6.758  13.198  0.00  0.00    +0.000 A 
ATOM      3  C   UNL     1      45.867   7.383  12.308  0.00  0.00    +0.000 A 
ATOM      4  C   UNL     1      44.726   6.717  11.845  0.00  0.00    +0.000 A 
ATOM      5  C   UNL     1      44.438   5.411  12.256  0.00  0.00    +0.000 A 
ATOM      6  C   UNL     1      45.279   4.825  13.209  0.00  0.00    +0.000 A 
ATOM      7  C   UNL     1      46.425   5.481  13.668  0.00  0.00    +0.000 A 
BRANCH   5   8
ATOM      8  N   UNL     1      43.343   4.664  11.812  0.00  0.00    +0.000 N 
ATOM      9  H   UNL     1      42.846   5.181  11.087  0.00  0.00    +0.000 HD
BRANCH   8  10
ATOM     10  C   UNL     1      43.512   3.251  11.458  0.00  0.00    +0.000 C 
BRANCH  10  11
ATOM     11  C   UNL     1      44.758   3.029  10.562  0.00  0.00    +0.000 C 
BRANCH  11  12
ATOM     12  N   UNL     1      44.415   2.704   9.167  0.00  0.00    +0.000 NA
ATOM     13  C   UNL     1      44.996   1.439   8.671  0.00  0.00    +0.000 C 
ATOM     14  C   UNL     1      46.399   1.521   8.041  0.00  0.00    +0.000 C 
ATOM     15  O   UNL     1      46.518   2.599   7.108  0.00  0.00    +0.000 OA
ATOM     16  C   UNL     1      46.191   3.834   7.751  0.00  0.00    +0.000 C 
ATOM     17  C   UNL     1      44.736   3.809   8.240  0.00  0.00    +0.000 C 
ENDBRANCH  11  12
ENDBRANCH  10  11
ENDBRANCH   8  10
ENDBRANCH   5   8
ENDBRANCH   1   2
BRANCH   1  20
ATOM     18  C   UNL     1      49.156   7.032  15.796  0.00  0.00    +0.000 C 
ATOM     19  O   UNL     1      50.159   6.647  15.197  0.00  0.00    +0.000 OA
ATOM     20  N   UNL     1      48.041   7.448  15.122  0.00  0.00    +0.000 N 
ATOM     21  H   UNL     1      47.196   7.676  15.627  0.00  0.00    +0.000 HD
BRANCH  18  29
ATOM     22  C   UNL     1      48.915   4.607  18.236  0.00  0.00    +0.000 A 
ATOM     23  N   UNL     1      48.787   3.887  19.368  0.00  0.00    +0.000 NA
ATOM     24  C   UNL     1      48.727   4.549  20.527  0.00  0.00    +0.000 A 
ATOM     25  N   UNL     1      48.785   5.866  20.702  0.00  0.00    +0.000 NA
ATOM     26  C   UNL     1      48.918   6.545  19.551  0.00  0.00    +0.000 A 
ATOM     27  S   UNL     1      49.018   8.239  19.584  0.00  0.00    +0.000 S 
ATOM     28  C   UNL     1      49.139   8.315  17.891  0.00  0.00    +0.000 A 
ATOM     29  C   UNL     1      49.103   7.074  17.269  0.00  0.00    +0.000 A 
ATOM     30  C   UNL     1      48.989   6.014  18.264  0.00  0.00    +0.000 A 
BRANCH  22  32
ATOM     31  C   UNL     1      47.775   3.556  16.479  0.00  0.00    +0.000 C 
ATOM     32  O   UNL     1      49.031   3.921  17.043  0.00  0.00    +0.000 OA
ENDBRANCH  22  32
ENDBRANCH  18  29
ENDBRANCH   1  20
TORSDOF 8
ENDMDL
MODEL 3
REMARK VINA RESULT:    -6.671      2.497      3.252
REMARK INTER + INTRA:         -10.882
REMARK INTER:                  -9.717
REMARK INTRA:                  -1.165
REMARK UNBOUND:                -1.092
REMARK  Name = 
REMARK  9 active torsions:
REMARK  status: ('A' for Active; 'I' for Inactive)
REMARK    1  A    between atoms: C_1  and  O_2
REMARK    2  A    between atoms: O_2  and  C_3
REMARK    3  A    between atoms: C_10  and  C_11
REMARK    4  A    between atoms: N_13  and  C_14
REMARK    5  A    between atoms: C_14  and  C_15
REMARK    6  A    between atoms: C_18  and  N_19
REMARK    7  A    between atoms: N_19  and  C_20
REMARK    8  A    between atoms: C_20  and  C_21
REMARK    9  A    between atoms: C_21  and  N_22
REMARK                            x       y       z     vdW  Elec       q    Type
REMARK                         _______ _______ _______ _____ _____    ______ ____
ROOT
ATOM      1  C   UNL     1      48.455   6.560  14.200  0.00  0.00    +0.000 C 
ENDROOT
BRANCH   1   2
ATOM      2  C   UNL     1      47.242   6.127  13.423  0.00  0.00    +0.000 A 
ATOM      3  C   UNL     1      46.933   6.721  12.195  0.00  0.00    +0.000 A 
ATOM      4  C   UNL     1      45.811   6.309  11.465  0.00  0.00    +0.000 A 
ATOM      5  C   UNL     1      44.976   5.294  11.940  0.00  0.00    +0.000 A 
ATOM      6  C   UNL     1      45.246   4.763  13.206  0.00  0.00    +0.000 A 
ATOM      7  C   UNL     1      46.369   5.163  13.937  0.00  0.00    +0.000 A 
BRANCH   5   8
ATOM      8  N   UNL     1      43.861   4.800  11.256  0.00  0.00    +0.000 N 
ATOM      9  H   UNL     1      43.659   5.396  10.453  0.00  0.00    +0.000 HD
BRANCH   8  10
ATOM     10  C   UNL     1      43.779   3.376  10.915  0.00  0.00    +0.000 C 
BRANCH  10  11
ATOM     11  C   UNL     1      45.045   2.894  10.160  0.00  0.00    +0.000 C 
BRANCH  11  12
ATOM     12  N   UNL     1      44.764   2.450   8.783  0.00  0.00    +0.000 NA
ATOM     13  C   UNL     1      45.487   1.230   8.371  0.00  0.00    +0.000 C 
ATOM     14  C   UNL     1      46.883   1.428   7.752  0.00  0.00    +0.000 C 
ATOM     15  O   UNL     1      46.899   2.455   6.757  0.00  0.00    +0.000 OA
ATOM     16  C   UNL     1      46.429   3.683   7.320  0.00  0.00    +0.000 C 
ATOM     17  C   UNL     1      44.978   3.528   7.795  0.00  0.00    +0.000 C 
ENDBRANCH  11  12
ENDBRANCH  10  11
ENDBRANCH   8  10
ENDBRANCH   5   8
ENDBRANCH   1   2
BRANCH   1  20
ATOM     18  C   UNL     1      48.962   6.182  16.574  0.00  0.00    +0.000 C 
ATOM     19  O   UNL     1      50.008   5.598  16.293  0.00  0.00    +0.000 OA
ATOM     20  N   UNL     1      48.141   6.679  15.599  0.00  0.00    +0.000 N 
ATOM     21  H   UNL     1      47.244   7.077  15.843  0.00  0.00    +0.000 HD
BRANCH  18  29
ATOM     22  C   UNL     1      47.759   8.898  18.328  0.00  0.00    +0.000 A 
ATOM     23  N   UNL     1      47.320   9.783  19.244  0.00  0.00    +0.000 NA
ATOM     24  C   UNL     1      47.167   9.359  20.501  0.00  0.00    +0.000 A 
ATOM     25  N   UNL     1      47.397   8.135  20.968  0.00  0.00    +0.000 NA
ATOM     26  C   UNL     1      47.826   7.283  20.023  0.00  0.00    +0.000 A 
ATOM     27  S   UNL     1      48.161   5.671  20.437  0.00  0.00    +0.000 S 
ATOM     28  C   UNL     1      48.624   5.305  18.844  0.00  0.00    +0.000 A 
ATOM     29  C   UNL     1      48.540   6.383  17.972  0.00  0.00    +0.000 A 
ATOM     30  C   UNL     1      48.045   7.562  18.674  0.00  0.00    +0.000 A 
BRANCH  22  32
ATOM     31  C   UNL     1      49.074  10.026  16.751  0.00  0.00    +0.000 C 
ATOM     32  O   UNL     1      47.866   9.321  17.018  0.00  0.00    +0.000 OA
ENDBRANCH  22  32
ENDBRANCH  18  29
ENDBRANCH   1  20
TORSDOF 8
ENDMDL
MODEL 4
REMARK VINA RESULT:    -6.625      3.049      4.868
REMARK INTER + INTRA:         -10.816
REMARK INTER:                  -9.727
REMARK INTRA:                  -1.089
REMARK UNBOUND:                -1.092
REMARK  Name = 
REMARK  9 active torsions:
REMARK  status: ('A' for Active; 'I' for Inactive)
REMARK    1  A    between atoms: C_1  and  O_2
REMARK    2  A    between atoms: O_2  and  C_3
REMARK    3  A    between atoms: C_10  and  C_11
REMARK    4  A    between atoms: N_13  and  C_14
REMARK    5  A    between atoms: C_14  and  C_15
REMARK    6  A    between atoms: C_18  and  N_19
REMARK    7  A    between atoms: N_19  and  C_20
REMARK    8  A    between atoms: C_20  and  C_21
REMARK    9  A    between atoms: C_21  and  N_22
REMARK                            x       y       z     vdW  Elec       q    Type
REMARK                         _______ _______ _______ _____ _____    ______ ____
ROOT
ATOM      1  C   UNL     1      47.716   3.473  17.326  0.00  0.00    +0.000 C 
ENDROOT
BRANCH   1   2
ATOM      2  C   UNL     1      47.599   4.318  16.086  0.00  0.00    +0.000 A 
ATOM      3  C   UNL     1      48.246   5.555  16.003  0.00  0.00    +0.000 A 
ATOM      4  C   UNL     1      48.148   6.335  14.844  0.00  0.00    +0.000 A 
ATOM      5  C   UNL     1      47.406   5.898  13.742  0.00  0.00    +0.000 A 
ATOM      6  C   UNL     1      46.697   4.698  13.866  0.00  0.00    +0.000 A 
ATOM      7  C   UNL     1      46.797   3.910  15.016  0.00  0.00    +0.000 A 
BRANCH   5   8
ATOM      8  N   UNL     1      47.290   6.598  12.537  0.00  0.00    +0.000 N 
ATOM      9  H   UNL     1      48.007   6.282  11.886  0.00  0.00    +0.000 HD
BRANCH   8  10
ATOM     10  C   UNL     1      45.981   6.732  11.888  0.00  0.00    +0.000 C 
BRANCH  10  11
ATOM     11  C   UNL     1      45.769   5.651  10.797  0.00  0.00    +0.000 C 
BRANCH  11  12
ATOM     12  N   UNL     1      44.348   5.371  10.528  0.00  0.00    +0.000 NA
ATOM     13  C   UNL     1      43.524   5.163  11.736  0.00  0.00    +0.000 C 
ATOM     14  C   UNL     1      43.443   3.725  12.280  0.00  0.00    +0.000 C 
ATOM     15  O   UNL     1      43.186   2.765  11.251  0.00  0.00    +0.000 OA
ATOM     16  C   UNL     1      44.194   2.856  10.241  0.00  0.00    +0.000 C 
ATOM     17  C   UNL     1      44.168   4.245   9.588  0.00  0.00    +0.000 C 
ENDBRANCH  11  12
ENDBRANCH  10  11
ENDBRANCH   8  10
ENDBRANCH   5   8
ENDBRANCH   1   2
BRANCH   1  20
ATOM     18  C   UNL     1      49.884   2.366  17.000  0.00  0.00    +0.000 C 
ATOM     19  O   UNL     1      49.436   1.682  16.081  0.00  0.00    +0.000 OA
ATOM     20  N   UNL     1      49.099   3.266  17.666  0.00  0.00    +0.000 N 
ATOM     21  H   UNL     1      49.458   3.755  18.475  0.00  0.00    +0.000 HD
BRANCH  18  29
ATOM     22  C   UNL     1      52.320   4.683  17.772  0.00  0.00    +0.000 A 
ATOM     23  N   UNL     1      53.446   5.355  18.082  0.00  0.00    +0.000 NA
ATOM     24  C   UNL     1      54.545   4.645  18.350  0.00  0.00    +0.000 A 
ATOM     25  N   UNL     1      54.662   3.319  18.354  0.00  0.00    +0.000 NA
ATOM     26  C   UNL     1      53.517   2.689  18.046  0.00  0.00    +0.000 A 
ATOM     27  S   UNL     1      53.478   0.993  18.011  0.00  0.00    +0.000 S 
ATOM     28  C   UNL     1      51.839   0.989  17.564  0.00  0.00    +0.000 A 
ATOM     29  C   UNL     1      51.291   2.258  17.429  0.00  0.00    +0.000 A 
ATOM     30  C   UNL     1      52.291   3.275  17.735  0.00  0.00    +0.000 A 
BRANCH  22  32
ATOM     31  C   UNL     1      50.867   6.323  18.603  0.00  0.00    +0.000 C 
ATOM     32  O   UNL     1      51.171   5.415  17.548  0.00  0.00    +0.000 OA
ENDBRANCH  22  32
ENDBRANCH  18  29
ENDBRANCH   1  20
TORSDOF 8
ENDMDL
MODEL 5
REMARK VINA RESULT:    -6.435      4.353      9.189
REMARK INTER + INTRA:         -10.536
REMARK INTER:                  -9.521
REMARK INTRA:                  -1.016
REMARK UNBOUND:                -1.092
REMARK  Name = 
REMARK  9 active torsions:
REMARK  status: ('A' for Active; 'I' for Inactive)
REMARK    1  A    between atoms: C_1  and  O_2
REMARK    2  A    between atoms: O_2  and  C_3
REMARK    3  A    between atoms: C_10  and  C_11
REMARK    4  A    between atoms: N_13  and  C_14
REMARK    5  A    between atoms: C_14  and  C_15
REMARK    6  A    between atoms: C_18  and  N_19
REMARK    7  A    between atoms: N_19  and  C_20
REMARK    8  A    between atoms: C_20  and  C_21
REMARK    9  A    between atoms: C_21  and  N_22
REMARK                            x       y       z     vdW  Elec       q    Type
REMARK                         _______ _______ _______ _____ _____    ______ ____
ROOT
ATOM      1  C   UNL     1      47.156   3.365  16.957  0.00  0.00    +0.000 C 
ENDROOT
BRANCH   1   2
ATOM      2  C   UNL     1      48.569   3.432  17.470  0.00  0.00    +0.000 A 
ATOM      3  C   UNL     1      48.961   4.448  18.347  0.00  0.00    +0.000 A 
ATOM      4  C   UNL     1      50.273   4.503  18.834  0.00  0.00    +0.000 A 
ATOM      5  C   UNL     1      51.221   3.545  18.462  0.00  0.00    +0.000 A 
ATOM      6  C   UNL     1      50.841   2.581  17.521  0.00  0.00    +0.000 A 
ATOM      7  C   UNL     1      49.532   2.514  17.037  0.00  0.00    +0.000 A 
BRANCH   5   8
ATOM      8  N   UNL     1      52.537   3.508  18.933  0.00  0.00    +0.000 N 
ATOM      9  H   UNL     1      52.544   3.218  19.910  0.00  0.00    +0.000 HD
BRANCH   8  10
ATOM     10  C   UNL     1      53.577   2.829  18.153  0.00  0.00    +0.000 C 
BRANCH  10  11
ATOM     11  C   UNL     1      54.240   1.681  18.957  0.00  0.00    +0.000 C 
BRANCH  11  12
ATOM     12  N   UNL     1      53.765   0.346  18.557  0.00  0.00    +0.000 NA
ATOM     13  C   UNL     1      54.588  -0.775  19.056  0.00  0.00    +0.000 C 
ATOM     14  C   UNL     1      55.774  -1.210  18.175  0.00  0.00    +0.000 C 
ATOM     15  O   UNL     1      55.411  -1.349  16.799  0.00  0.00    +0.000 OA
ATOM     16  C   UNL     1      54.860  -0.120  16.317  0.00  0.00    +0.000 C 
ATOM     17  C   UNL     1      53.585   0.232  17.094  0.00  0.00    +0.000 C 
ENDBRANCH  11  12
ENDBRANCH  10  11
ENDBRANCH   8  10
ENDBRANCH   5   8
ENDBRANCH   1   2
BRANCH   1  20
ATOM     18  C   UNL     1      46.982   4.238  14.668  0.00  0.00    +0.000 C 
ATOM     19  O   UNL     1      47.275   3.142  14.191  0.00  0.00    +0.000 OA
ATOM     20  N   UNL     1      46.909   4.428  16.020  0.00  0.00    +0.000 N 
ATOM     21  H   UNL     1      46.754   5.354  16.396  0.00  0.00    +0.000 HD
BRANCH  18  29
ATOM     22  C   UNL     1      44.290   5.124  12.702  0.00  0.00    +0.000 A 
ATOM     23  N   UNL     1      43.414   5.686  11.846  0.00  0.00    +0.000 NA
ATOM     24  C   UNL     1      43.759   6.837  11.263  0.00  0.00    +0.000 A 
ATOM     25  N   UNL     1      44.891   7.515  11.434  0.00  0.00    +0.000 NA
ATOM     26  C   UNL     1      45.732   6.925  12.299  0.00  0.00    +0.000 A 
ATOM     27  S   UNL     1      47.224   7.656  12.647  0.00  0.00    +0.000 S 
ATOM     28  C   UNL     1      47.653   6.395  13.702  0.00  0.00    +0.000 A 
ATOM     29  C   UNL     1      46.689   5.401  13.810  0.00  0.00    +0.000 A 
ATOM     30  C   UNL     1      45.532   5.728  12.984  0.00  0.00    +0.000 A 
BRANCH  22  32
ATOM     31  C   UNL     1      43.672   2.878  12.456  0.00  0.00    +0.000 C 
ATOM     32  O   UNL     1      43.911   3.963  13.347  0.00  0.00    +0.000 OA
ENDBRANCH  22  32
ENDBRANCH  18  29
ENDBRANCH   1  20
TORSDOF 8
ENDMDL
MODEL 6
REMARK VINA RESULT:    -6.368      3.243      8.785
REMARK INTER + INTRA:         -10.437
REMARK INTER:                  -9.310
REMARK INTRA:                  -1.128
REMARK UNBOUND:                -1.092
REMARK  Name = 
REMARK  9 active torsions:
REMARK  status: ('A' for Active; 'I' for Inactive)
REMARK    1  A    between atoms: C_1  and  O_2
REMARK    2  A    between atoms: O_2  and  C_3
REMARK    3  A    between atoms: C_10  and  C_11
REMARK    4  A    between atoms: N_13  and  C_14
REMARK    5  A    between atoms: C_14  and  C_15
REMARK    6  A    between atoms: C_18  and  N_19
REMARK    7  A    between atoms: N_19  and  C_20
REMARK    8  A    between atoms: C_20  and  C_21
REMARK    9  A    between atoms: C_21  and  N_22
REMARK                            x       y       z     vdW  Elec       q    Type
REMARK                         _______ _______ _______ _____ _____    ______ ____
ROOT
ATOM      1  C   UNL     1      47.258   3.421  17.007  0.00  0.00    +0.000 C 
ENDROOT
BRANCH   1   2
ATOM      2  C   UNL     1      48.732   3.243  17.252  0.00  0.00    +0.000 A 
ATOM      3  C   UNL     1      49.375   2.054  16.892  0.00  0.00    +0.000 A 
ATOM      4  C   UNL     1      50.749   1.893  17.108  0.00  0.00    +0.000 A 
ATOM      5  C   UNL     1      51.513   2.915  17.681  0.00  0.00    +0.000 A 
ATOM      6  C   UNL     1      50.846   4.068  18.112  0.00  0.00    +0.000 A 
ATOM      7  C   UNL     1      49.476   4.239  17.892  0.00  0.00    +0.000 A 
BRANCH   5   8
ATOM      8  N   UNL     1      52.893   2.848  17.894  0.00  0.00    +0.000 N 
ATOM      9  H   UNL     1      53.346   2.428  17.083  0.00  0.00    +0.000 HD
BRANCH   8  10
ATOM     10  C   UNL     1      53.620   4.026  18.379  0.00  0.00    +0.000 C 
BRANCH  10  11
ATOM     11  C   UNL     1      54.645   4.538  17.333  0.00  0.00    +0.000 C 
BRANCH  11  12
ATOM     12  N   UNL     1      54.716   6.007  17.265  0.00  0.00    +0.000 NA
ATOM     13  C   UNL     1      53.407   6.689  17.329  0.00  0.00    +0.000 C 
ATOM     14  C   UNL     1      52.676   6.915  15.993  0.00  0.00    +0.000 C 
ATOM     15  O   UNL     1      53.538   7.445  14.981  0.00  0.00    +0.000 OA
ATOM     16  C   UNL     1      54.657   6.574  14.793  0.00  0.00    +0.000 C 
ATOM     17  C   UNL     1      55.477   6.476  16.087  0.00  0.00    +0.000 C 
ENDBRANCH  11  12
ENDBRANCH  10  11
ENDBRANCH   8  10
ENDBRANCH   5   8
ENDBRANCH   1   2
BRANCH   1  20
ATOM     18  C   UNL     1      47.060   4.275  14.713  0.00  0.00    +0.000 C 
ATOM     19  O   UNL     1      47.299   3.163  14.242  0.00  0.00    +0.000 OA
ATOM     20  N   UNL     1      47.028   4.483  16.064  0.00  0.00    +0.000 N 
ATOM     21  H   UNL     1      46.919   5.418  16.433  0.00  0.00    +0.000 HD
BRANCH  18  29
ATOM     22  C   UNL     1      44.409   5.178  12.699  0.00  0.00    +0.000 A 
ATOM     23  N   UNL     1      43.553   5.744  11.826  0.00  0.00    +0.000 NA
ATOM     24  C   UNL     1      43.916   6.892  11.248  0.00  0.00    +0.000 A 
ATOM     25  N   UNL     1      45.049   7.563  11.439  0.00  0.00    +0.000 NA
ATOM     26  C   UNL     1      45.871   6.968  12.319  0.00  0.00    +0.000 A 
ATOM     27  S   UNL     1      47.361   7.689  12.693  0.00  0.00    +0.000 S 
ATOM     28  C   UNL     1      47.763   6.426  13.756  0.00  0.00    +0.000 A 
ATOM     29  C   UNL     1      46.790   5.439  13.849  0.00  0.00    +0.000 A 
ATOM     30  C   UNL     1      45.650   5.773  13.002  0.00  0.00    +0.000 A 
BRANCH  22  32
ATOM     31  C   UNL     1      43.659   2.973  12.438  0.00  0.00    +0.000 C 
ATOM     32  O   UNL     1      44.011   4.020  13.338  0.00  0.00    +0.000 OA
ENDBRANCH  22  32
ENDBRANCH  18  29
ENDBRANCH   1  20
TORSDOF 8
ENDMDL
MODEL 7
REMARK VINA RESULT:    -6.199      2.126      3.927
REMARK INTER + INTRA:         -10.190
REMARK INTER:                  -9.091
REMARK INTRA:                  -1.098
REMARK UNBOUND:                -1.092
REMARK  Name = 
REMARK  9 active torsions:
REMARK  status: ('A' for Active; 'I' for Inactive)
REMARK    1  A    between atoms: C_1  and  O_2
REMARK    2  A    between atoms: O_2  and  C_3
REMARK    3  A    between atoms: C_10  and  C_11
REMARK    4  A    between atoms: N_13  and  C_14
REMARK    5  A    between atoms: C_14  and  C_15
REMARK    6  A    between atoms: C_18  and  N_19
REMARK    7  A    between atoms: N_19  and  C_20
REMARK    8  A    between atoms: C_20  and  C_21
REMARK    9  A    between atoms: C_21  and  N_22
REMARK                            x       y       z     vdW  Elec       q    Type
REMARK                         _______ _______ _______ _____ _____    ______ ____
ROOT
ATOM      1  C   UNL     1      47.075   4.510  14.787  0.00  0.00    +0.000 C 
ENDROOT
BRANCH   1   2
ATOM      2  C   UNL     1      46.401   4.675  13.451  0.00  0.00    +0.000 A 
ATOM      3  C   UNL     1      45.625   3.643  12.913  0.00  0.00    +0.000 A 
ATOM      4  C   UNL     1      44.987   3.801  11.676  0.00  0.00    +0.000 A 
ATOM      5  C   UNL     1      45.105   4.992  10.952  0.00  0.00    +0.000 A 
ATOM      6  C   UNL     1      45.949   5.986  11.460  0.00  0.00    +0.000 A 
ATOM      7  C   UNL     1      46.581   5.839  12.698  0.00  0.00    +0.000 A 
BRANCH   5   8
ATOM      8  N   UNL     1      44.471   5.242   9.731  0.00  0.00    +0.000 N 
ATOM      9  H   UNL     1      44.809   6.121   9.342  0.00  0.00    +0.000 HD
BRANCH   8  10
ATOM     10  C   UNL     1      44.391   4.187   8.715  0.00  0.00    +0.000 C 
BRANCH  10  11
ATOM     11  C   UNL     1      45.788   3.837   8.142  0.00  0.00    +0.000 C 
BRANCH  11  12
ATOM     12  N   UNL     1      45.740   2.802   7.094  0.00  0.00    +0.000 NA
ATOM     13  C   UNL     1      46.074   1.441   7.559  0.00  0.00    +0.000 C 
ATOM     14  C   UNL     1      47.562   1.044   7.528  0.00  0.00    +0.000 C 
ATOM     15  O   UNL     1      48.194   1.387   6.292  0.00  0.00    +0.000 OA
ATOM     16  C   UNL     1      48.050   2.789   6.047  0.00  0.00    +0.000 C 
ATOM     17  C   UNL     1      46.566   3.157   5.920  0.00  0.00    +0.000 C 
ENDBRANCH  11  12
ENDBRANCH  10  11
ENDBRANCH   8  10
ENDBRANCH   5   8
ENDBRANCH   1   2
BRANCH   1  20
ATOM     18  C   UNL     1      48.640   5.819  16.154  0.00  0.00    +0.000 C 
ATOM     19  O   UNL     1      49.098   4.800  16.668  0.00  0.00    +0.000 OA
ATOM     20  N   UNL     1      47.638   5.760  15.224  0.00  0.00    +0.000 N 
ATOM     21  H   UNL     1      47.213   6.609  14.879  0.00  0.00    +0.000 HD
BRANCH  18  29
ATOM     22  C   UNL     1      50.143   8.345  14.348  0.00  0.00    +0.000 A 
ATOM     23  N   UNL     1      50.770   9.452  13.905  0.00  0.00    +0.000 NA
ATOM     24  C   UNL     1      51.055  10.407  14.793  0.00  0.00    +0.000 A 
ATOM     25  N   UNL     1      50.782  10.400  16.095  0.00  0.00    +0.000 NA
ATOM     26  C   UNL     1      50.152   9.283  16.494  0.00  0.00    +0.000 A 
ATOM     27  S   UNL     1      49.717   9.103  18.124  0.00  0.00    +0.000 S 
ATOM     28  C   UNL     1      49.052   7.567  17.830  0.00  0.00    +0.000 A 
ATOM     29  C   UNL     1      49.147   7.158  16.506  0.00  0.00    +0.000 A 
ATOM     30  C   UNL     1      49.789   8.193  15.703  0.00  0.00    +0.000 A 
BRANCH  22  32
ATOM     31  C   UNL     1      49.435   7.922  12.154  0.00  0.00    +0.000 C 
ATOM     32  O   UNL     1      49.799   7.381  13.421  0.00  0.00    +0.000 OA
ENDBRANCH  22  32
ENDBRANCH  18  29
ENDBRANCH   1  20
TORSDOF 8
ENDMDL
MODEL 8
REMARK VINA RESULT:    -5.978      2.270      2.979
REMARK INTER + INTRA:          -9.866
REMARK INTER:                  -9.031
REMARK INTRA:                  -0.835
REMARK UNBOUND:                -1.092
REMARK  Name = 
REMARK  9 active torsions:
REMARK  status: ('A' for Active; 'I' for Inactive)
REMARK    1  A    between atoms: C_1  and  O_2
REMARK    2  A    between atoms: O_2  and  C_3
REMARK    3  A    between atoms: C_10  and  C_11
REMARK    4  A    between atoms: N_13  and  C_14
REMARK    5  A    between atoms: C_14  and  C_15
REMARK    6  A    between atoms: C_18  and  N_19
REMARK    7  A    between atoms: N_19  and  C_20
REMARK    8  A    between atoms: C_20  and  C_21
REMARK    9  A    between atoms: C_21  and  N_22
REMARK                            x       y       z     vdW  Elec       q    Type
REMARK                         _______ _______ _______ _____ _____    ______ ____
ROOT
ATOM      1  C   UNL     1      49.013   8.919  14.280  0.00  0.00    +0.000 C 
ENDROOT
BRANCH   1   2
ATOM      2  C   UNL     1      47.996   8.327  13.342  0.00  0.00    +0.000 A 
ATOM      3  C   UNL     1      46.721   8.888  13.228  0.00  0.00    +0.000 A 
ATOM      4  C   UNL     1      45.778   8.345  12.346  0.00  0.00    +0.000 A 
ATOM      5  C   UNL     1      46.089   7.235  11.555  0.00  0.00    +0.000 A 
ATOM      6  C   UNL     1      47.338   6.631  11.736  0.00  0.00    +0.000 A 
ATOM      7  C   UNL     1      48.287   7.173  12.608  0.00  0.00    +0.000 A 
BRANCH   5   8
ATOM      8  N   UNL     1      45.219   6.658  10.624  0.00  0.00    +0.000 N 
ATOM      9  H   UNL     1      45.234   7.198   9.760  0.00  0.00    +0.000 HD
BRANCH   8  10
ATOM     10  C   UNL     1      45.269   5.214  10.369  0.00  0.00    +0.000 C 
BRANCH  10  11
ATOM     11  C   UNL     1      43.941   4.693   9.762  0.00  0.00    +0.000 C 
BRANCH  11  12
ATOM     12  N   UNL     1      43.057   4.064  10.759  0.00  0.00    +0.000 NA
ATOM     13  C   UNL     1      42.626   4.962  11.851  0.00  0.00    +0.000 C 
ATOM     14  C   UNL     1      43.543   5.041  13.085  0.00  0.00    +0.000 C 
ATOM     15  O   UNL     1      43.952   3.750  13.546  0.00  0.00    +0.000 OA
ATOM     16  C   UNL     1      44.605   3.042  12.488  0.00  0.00    +0.000 C 
ATOM     17  C   UNL     1      43.637   2.825  11.317  0.00  0.00    +0.000 C 
ENDBRANCH  11  12
ENDBRANCH  10  11
ENDBRANCH   8  10
ENDBRANCH   5   8
ENDBRANCH   1   2
BRANCH   1  20
ATOM     18  C   UNL     1      48.574   8.390  16.638  0.00  0.00    +0.000 C 
ATOM     19  O   UNL     1      47.882   9.399  16.771  0.00  0.00    +0.000 OA
ATOM     20  N   UNL     1      49.169   8.088  15.445  0.00  0.00    +0.000 N 
ATOM     21  H   UNL     1      49.805   7.305  15.377  0.00  0.00    +0.000 HD
BRANCH  18  29
ATOM     22  C   UNL     1      48.346   4.961  16.939  0.00  0.00    +0.000 A 
ATOM     23  N   UNL     1      48.297   3.676  17.340  0.00  0.00    +0.000 NA
ATOM     24  C   UNL     1      48.564   3.410  18.622  0.00  0.00    +0.000 A 
ATOM     25  N   UNL     1      48.885   4.283  19.572  0.00  0.00    +0.000 NA
ATOM     26  C   UNL     1      48.929   5.550  19.130  0.00  0.00    +0.000 A 
ATOM     27  S   UNL     1      49.332   6.800  20.205  0.00  0.00    +0.000 S 
ATOM     28  C   UNL     1      49.159   7.972  18.987  0.00  0.00    +0.000 A 
ATOM     29  C   UNL     1      48.793   7.450  17.753  0.00  0.00    +0.000 A 
ATOM     30  C   UNL     1      48.673   5.999  17.834  0.00  0.00    +0.000 A 
BRANCH  22  32
ATOM     31  C   UNL     1      47.076   4.449  15.037  0.00  0.00    +0.000 C 
ATOM     32  O   UNL     1      48.124   5.231  15.603  0.00  0.00    +0.000 OA
ENDBRANCH  22  32
ENDBRANCH  18  29
ENDBRANCH   1  20
TORSDOF 8
ENDMDL
MODEL 9
REMARK VINA RESULT:    -5.756      3.488      8.007
REMARK INTER + INTRA:          -9.539
REMARK INTER:                  -8.126
REMARK INTRA:                  -1.413
REMARK UNBOUND:                -1.092
REMARK  Name = 
REMARK  9 active torsions:
REMARK  status: ('A' for Active; 'I' for Inactive)
REMARK    1  A    between atoms: C_1  and  O_2
REMARK    2  A    between atoms: O_2  and  C_3
REMARK    3  A    between atoms: C_10  and  C_11
REMARK    4  A    between atoms: N_13  and  C_14
REMARK    5  A    between atoms: C_14  and  C_15
REMARK    6  A    between atoms: C_18  and  N_19
REMARK    7  A    between atoms: N_19  and  C_20
REMARK    8  A    between atoms: C_20  and  C_21
REMARK    9  A    between atoms: C_21  and  N_22
REMARK                            x       y       z     vdW  Elec       q    Type
REMARK                         _______ _______ _______ _____ _____    ______ ____
ROOT
ATOM      1  C   UNL     1      48.395   9.481  16.057  0.00  0.00    +0.000 C 
ENDROOT
BRANCH   1   2
ATOM      2  C   UNL     1      48.992   8.596  17.118  0.00  0.00    +0.000 A 
ATOM      3  C   UNL     1      48.174   7.952  18.051  0.00  0.00    +0.000 A 
ATOM      4  C   UNL     1      48.729   7.119  19.031  0.00  0.00    +0.000 A 
ATOM      5  C   UNL     1      50.109   6.906  19.098  0.00  0.00    +0.000 A 
ATOM      6  C   UNL     1      50.925   7.618  18.212  0.00  0.00    +0.000 A 
ATOM      7  C   UNL     1      50.378   8.445  17.226  0.00  0.00    +0.000 A 
BRANCH   5   8
ATOM      8  N   UNL     1      50.736   6.061  20.019  0.00  0.00    +0.000 N 
ATOM      9  H   UNL     1      50.118   5.284  20.249  0.00  0.00    +0.000 HD
BRANCH   8  10
ATOM     10  C   UNL     1      52.114   5.615  19.787  0.00  0.00    +0.000 C 
BRANCH  10  11
ATOM     11  C   UNL     1      52.181   4.097  19.478  0.00  0.00    +0.000 C 
BRANCH  11  12
ATOM     12  N   UNL     1      52.269   3.804  18.036  0.00  0.00    +0.000 NA
ATOM     13  C   UNL     1      50.966   3.626  17.364  0.00  0.00    +0.000 C 
ATOM     14  C   UNL     1      50.378   2.203  17.359  0.00  0.00    +0.000 C 
ATOM     15  O   UNL     1      51.342   1.214  16.988  0.00  0.00    +0.000 OA
ATOM     16  C   UNL     1      52.468   1.282  17.867  0.00  0.00    +0.000 C 
ATOM     17  C   UNL     1      53.150   2.652  17.753  0.00  0.00    +0.000 C 
ENDBRANCH  11  12
ENDBRANCH  10  11
ENDBRANCH   8  10
ENDBRANCH   5   8
ENDBRANCH   1   2
BRANCH   1  20
ATOM     18  C   UNL     1      47.912   8.248  13.988  0.00  0.00    +0.000 C 
ATOM     19  O   UNL     1      49.046   8.456  13.558  0.00  0.00    +0.000 OA
ATOM     20  N   UNL     1      47.515   8.724  15.207  0.00  0.00    +0.000 N 
ATOM     21  H   UNL     1      46.554   8.620  15.506  0.00  0.00    +0.000 HD
BRANCH  18  29
ATOM     22  C   UNL     1      47.002   4.921  13.963  0.00  0.00    +0.000 A 
ATOM     23  N   UNL     1      46.489   3.699  13.720  0.00  0.00    +0.000 NA
ATOM     24  C   UNL     1      45.567   3.587  12.760  0.00  0.00    +0.000 A 
ATOM     25  N   UNL     1      45.078   4.562  11.999  0.00  0.00    +0.000 NA
ATOM     26  C   UNL     1      45.610   5.763  12.277  0.00  0.00    +0.000 A 
ATOM     27  S   UNL     1      45.098   7.128  11.409  0.00  0.00    +0.000 S 
ATOM     28  C   UNL     1      46.162   8.137  12.268  0.00  0.00    +0.000 A 
ATOM     29  C   UNL     1      46.924   7.470  13.218  0.00  0.00    +0.000 A 
ATOM     30  C   UNL     1      46.581   6.053  13.236  0.00  0.00    +0.000 A 
BRANCH  22  32
ATOM     31  C   UNL     1      47.559   4.303  16.153  0.00  0.00    +0.000 C 
ATOM     32  O   UNL     1      47.914   5.047  14.992  0.00  0.00    +0.000 OA
ENDBRANCH  22  32
ENDBRANCH  18  29
ENDBRANCH   1  20
TORSDOF 8
ENDMDL
