MODEL 1
REMARK VINA RESULT:    -8.581      0.000      0.000
REMARK INTER + INTRA:         -14.182
REMARK INTER:                 -12.845
REMARK INTRA:                  -1.337
REMARK UNBOUND:                -1.337
REMARK  Name = 
REMARK  9 active torsions:
REMARK  status: ('A' for Active; 'I' for Inactive)
REMARK    1  A    between atoms: N_1  and  C_2
REMARK    2  A    between atoms: C_2  and  C_3
REMARK    3  A    between atoms: C_3  and  C_4
REMARK    4  A    between atoms: C_3  and  N_25
REMARK    5  A    between atoms: C_4  and  C_5
REMARK    6  A    between atoms: C_8  and  C_9
REMARK    7  A    between atoms: C_9  and  N_10
REMARK    8  A    between atoms: C_11  and  C_13
REMARK    9  A    between atoms: C_30  and  C_31
REMARK                            x       y       z     vdW  Elec       q    Type
REMARK                         _______ _______ _______ _____ _____    ______ ____
ROOT
ATOM      1  C   UNL     1      47.072   5.793  13.326  0.00  0.00    +0.000 A 
ATOM      2  C   UNL     1      47.818   6.281  14.405  0.00  0.00    +0.000 A 
ATOM      3  C   UNL     1      47.987   5.525  15.572  0.00  0.00    +0.000 A 
ATOM      4  C   UNL     1      47.392   4.268  15.709  0.00  0.00    +0.000 A 
ATOM      5  C   UNL     1      46.636   3.771  14.642  0.00  0.00    +0.000 A 
ATOM      6  C   UNL     1      46.490   4.519  13.462  0.00  0.00    +0.000 A 
ENDROOT
BRANCH   1   7
ATOM      7  C   UNL     1      46.824   6.576  12.043  0.00  0.00    +0.000 C 
BRANCH   7   8
ATOM      8  C   UNL     1      45.435   6.477  11.325  0.00  0.00    +0.000 C 
BRANCH   8   9
ATOM      9  N   UNL     1      45.662   6.063   9.927  0.00  0.00    +0.000 N 
ATOM     10  C   UNL     1      45.581   4.781   9.434  0.00  0.00    +0.000 A 
ATOM     11  C   UNL     1      44.886   3.756  10.049  0.00  0.00    +0.000 A 
ATOM     12  C   UNL     1      44.815   2.492   9.467  0.00  0.00    +0.000 A 
ATOM     13  C   UNL     1      45.449   2.271   8.260  0.00  0.00    +0.000 A 
ATOM     14  C   UNL     1      46.126   3.331   7.661  0.00  0.00    +0.000 A 
ATOM     15  N   UNL     1      46.203   4.572   8.250  0.00  0.00    +0.000 NA
ATOM     16  H   UNL     1      46.322   6.596   9.370  0.00  0.00    +0.000 HD
BRANCH  14  17
ATOM     17  C   UNL     1      46.768   3.102   6.295  0.00  0.00    +0.000 C 
ATOM     18  F   UNL     1      46.126   2.144   5.554  0.00  0.00    +0.000 F 
ATOM     19  F   UNL     1      46.771   4.215   5.505  0.00  0.00    +0.000 F 
ATOM     20  F   UNL     1      48.063   2.683   6.366  0.00  0.00    +0.000 F 
ENDBRANCH  14  17
ENDBRANCH   8   9
BRANCH   8  21
ATOM     21  C   UNL     1      44.724   7.873  11.389  0.00  0.00    +0.000 C 
BRANCH  21  22
ATOM     22  N   UNL     1      43.304   7.908  11.011  0.00  0.00    +0.000 NA
ATOM     23  H   UNL     1      43.036   6.998  10.639  0.00  0.00    +0.000 HD
ATOM     24  H   UNL     1      43.159   8.578  10.258  0.00  0.00    +0.000 HD
ENDBRANCH  21  22
ENDBRANCH   8  21
ENDBRANCH   7   8
ENDBRANCH   1   7
BRANCH   4  25
ATOM     25  C   UNL     1      47.517   3.512  17.008  0.00  0.00    +0.000 C 
BRANCH  25  26
ATOM     26  N   UNL     1      48.904   3.363  17.395  0.00  0.00    +0.000 N 
ATOM     27  C   UNL     1      49.696   2.393  16.838  0.00  0.00    +0.000 C 
ATOM     28  O   UNL     1      49.279   1.648  15.955  0.00  0.00    +0.000 OA
ATOM     29  H   UNL     1      49.198   3.833  18.245  0.00  0.00    +0.000 HD
BRANCH  27  30
ATOM     30  C   UNL     1      51.088   2.315  17.304  0.00  0.00    +0.000 A 
ATOM     31  C   UNL     1      51.674   1.071  17.501  0.00  0.00    +0.000 A 
ATOM     32  S   UNL     1      53.295   1.147  18.025  0.00  0.00    +0.000 S 
ATOM     33  C   UNL     1      53.263   2.846  18.049  0.00  0.00    +0.000 A 
ATOM     34  N   UNL     1      54.351   3.559  18.448  0.00  0.00    +0.000 NA
ATOM     35  C   UNL     1      54.175   4.839  18.457  0.00  0.00    +0.000 A 
ATOM     36  N   UNL     1      53.016   5.469  18.090  0.00  0.00    +0.000 N 
ATOM     37  C   UNL     1      51.907   4.792  17.641  0.00  0.00    +0.000 A 
ATOM     38  O   UNL     1      50.905   5.394  17.261  0.00  0.00    +0.000 OA
ATOM     39  C   UNL     1      52.037   3.350  17.640  0.00  0.00    +0.000 A 
ATOM     40  H   UNL     1      52.951   6.476  18.100  0.00  0.00    +0.000 HD
ENDBRANCH  27  30
ENDBRANCH  25  26
ENDBRANCH   4  25
TORSDOF 9
ENDMDL
MODEL 2
REMARK VINA RESULT:    -8.283      1.267      2.024
REMARK INTER + INTRA:         -13.735
REMARK INTER:                 -12.402
REMARK INTRA:                  -1.333
REMARK UNBOUND:                -1.337
REMARK  Name = 
REMARK  9 active torsions:
REMARK  status: ('A' for Active; 'I' for Inactive)
REMARK    1  A    between atoms: N_1  and  C_2
REMARK    2  A    between atoms: C_2  and  C_3
REMARK    3  A    between atoms: C_3  and  C_4
REMARK    4  A    between atoms: C_3  and  N_25
REMARK    5  A    between atoms: C_4  and  C_5
REMARK    6  A    between atoms: C_8  and  C_9
REMARK    7  A    between atoms: C_9  and  N_10
REMARK    8  A    between atoms: C_11  and  C_13
REMARK    9  A    between atoms: C_30  and  C_31
REMARK                            x       y       z     vdW  Elec       q    Type
REMARK                         _______ _______ _______ _____ _____    ______ ____
ROOT
ATOM      1  C   UNL     1      47.007   6.124  13.343  0.00  0.00    +0.000 A 
ATOM      2  C   UNL     1      47.960   6.650  14.221  0.00  0.00    +0.000 A 
ATOM      3  C   UNL     1      48.336   5.963  15.382  0.00  0.00    +0.000 A 
ATOM      4  C   UNL     1      47.751   4.738  15.716  0.00  0.00    +0.000 A 
ATOM      5  C   UNL     1      46.791   4.203  14.851  0.00  0.00    +0.000 A 
ATOM      6  C   UNL     1      46.433   4.882  13.674  0.00  0.00    +0.000 A 
ENDROOT
BRANCH   1   7
ATOM      7  C   UNL     1      46.531   6.835  12.081  0.00  0.00    +0.000 C 
BRANCH   7   8
ATOM      8  C   UNL     1      45.204   6.380  11.384  0.00  0.00    +0.000 C 
BRANCH   8   9
ATOM      9  N   UNL     1      45.522   5.964  10.005  0.00  0.00    +0.000 N 
ATOM     10  C   UNL     1      45.447   4.686   9.502  0.00  0.00    +0.000 A 
ATOM     11  C   UNL     1      44.686   3.676  10.060  0.00  0.00    +0.000 A 
ATOM     12  C   UNL     1      44.628   2.415   9.469  0.00  0.00    +0.000 A 
ATOM     13  C   UNL     1      45.343   2.182   8.311  0.00  0.00    +0.000 A 
ATOM     14  C   UNL     1      46.086   3.228   7.767  0.00  0.00    +0.000 A 
ATOM     15  N   UNL     1      46.149   4.465   8.365  0.00  0.00    +0.000 NA
ATOM     16  H   UNL     1      46.233   6.483   9.499  0.00  0.00    +0.000 HD
BRANCH  14  17
ATOM     17  C   UNL     1      46.821   2.987   6.450  0.00  0.00    +0.000 C 
ATOM     18  F   UNL     1      46.376   1.876   5.783  0.00  0.00    +0.000 F 
ATOM     19  F   UNL     1      46.682   4.011   5.558  0.00  0.00    +0.000 F 
ATOM     20  F   UNL     1      48.161   2.793   6.602  0.00  0.00    +0.000 F 
ENDBRANCH  14  17
ENDBRANCH   8   9
BRANCH   8  21
ATOM     21  C   UNL     1      44.186   7.572  11.391  0.00  0.00    +0.000 C 
BRANCH  21  22
ATOM     22  N   UNL     1      42.787   7.248  11.081  0.00  0.00    +0.000 NA
ATOM     23  H   UNL     1      42.537   7.669  10.187  0.00  0.00    +0.000 HD
ATOM     24  H   UNL     1      42.169   7.665  11.774  0.00  0.00    +0.000 HD
ENDBRANCH  21  22
ENDBRANCH   8  21
ENDBRANCH   7   8
ENDBRANCH   1   7
BRANCH   4  25
ATOM     25  C   UNL     1      48.110   4.060  17.014  0.00  0.00    +0.000 C 
BRANCH  25  26
ATOM     26  N   UNL     1      49.524   3.756  17.071  0.00  0.00    +0.000 N 
ATOM     27  C   UNL     1      50.308   4.216  18.098  0.00  0.00    +0.000 C 
ATOM     28  O   UNL     1      49.835   4.856  19.033  0.00  0.00    +0.000 OA
ATOM     29  H   UNL     1      49.954   3.403  16.223  0.00  0.00    +0.000 HD
BRANCH  27  30
ATOM     30  C   UNL     1      51.735   3.864  18.061  0.00  0.00    +0.000 A 
ATOM     31  C   UNL     1      52.688   4.852  18.270  0.00  0.00    +0.000 A 
ATOM     32  S   UNL     1      54.295   4.284  18.215  0.00  0.00    +0.000 S 
ATOM     33  C   UNL     1      53.779   2.702  17.866  0.00  0.00    +0.000 A 
ATOM     34  N   UNL     1      54.681   1.703  17.661  0.00  0.00    +0.000 NA
ATOM     35  C   UNL     1      54.153   0.562  17.365  0.00  0.00    +0.000 A 
ATOM     36  N   UNL     1      52.807   0.327  17.271  0.00  0.00    +0.000 N 
ATOM     37  C   UNL     1      51.859   1.294  17.511  0.00  0.00    +0.000 A 
ATOM     38  O   UNL     1      50.659   1.032  17.477  0.00  0.00    +0.000 OA
ATOM     39  C   UNL     1      52.396   2.604  17.816  0.00  0.00    +0.000 A 
ATOM     40  H   UNL     1      52.457  -0.595  17.056  0.00  0.00    +0.000 HD
ENDBRANCH  27  30
ENDBRANCH  25  26
ENDBRANCH   4  25
TORSDOF 9
ENDMDL
MODEL 3
REMARK VINA RESULT:    -8.212      1.629      2.185
REMARK INTER + INTRA:         -13.630
REMARK INTER:                 -12.219
REMARK INTRA:                  -1.411
REMARK UNBOUND:                -1.337
REMARK  Name = 
REMARK  9 active torsions:
REMARK  status: ('A' for Active; 'I' for Inactive)
REMARK    1  A    between atoms: N_1  and  C_2
REMARK    2  A    between atoms: C_2  and  C_3
REMARK    3  A    between atoms: C_3  and  C_4
REMARK    4  A    between atoms: C_3  and  N_25
REMARK    5  A    between atoms: C_4  and  C_5
REMARK    6  A    between atoms: C_8  and  C_9
REMARK    7  A    between atoms: C_9  and  N_10
REMARK    8  A    between atoms: C_11  and  C_13
REMARK    9  A    between atoms: C_30  and  C_31
REMARK                            x       y       z     vdW  Elec       q    Type
REMARK                         _______ _______ _______ _____ _____    ______ ____
ROOT
ATOM      1  C   UNL     1      47.629   5.963  14.501  0.00  0.00    +0.000 A 
ATOM      2  C   UNL     1      46.969   4.732  14.577  0.00  0.00    +0.000 A 
ATOM      3  C   UNL     1      47.128   3.890  15.685  0.00  0.00    +0.000 A 
ATOM      4  C   UNL     1      47.974   4.242  16.742  0.00  0.00    +0.000 A 
ATOM      5  C   UNL     1      48.645   5.467  16.676  0.00  0.00    +0.000 A 
ATOM      6  C   UNL     1      48.464   6.321  15.575  0.00  0.00    +0.000 A 
ENDROOT
BRANCH   1   7
ATOM      7  C   UNL     1      47.523   6.910  13.311  0.00  0.00    +0.000 C 
BRANCH   7   8
ATOM      8  C   UNL     1      46.116   7.287  12.737  0.00  0.00    +0.000 C 
BRANCH   8   9
ATOM      9  N   UNL     1      45.864   6.459  11.541  0.00  0.00    +0.000 N 
ATOM     10  C   UNL     1      45.125   5.300  11.494  0.00  0.00    +0.000 A 
ATOM     11  C   UNL     1      44.174   4.947  12.433  0.00  0.00    +0.000 A 
ATOM     12  C   UNL     1      43.435   3.774  12.295  0.00  0.00    +0.000 A 
ATOM     13  C   UNL     1      43.662   2.961  11.202  0.00  0.00    +0.000 A 
ATOM     14  C   UNL     1      44.616   3.356  10.267  0.00  0.00    +0.000 A 
ATOM     15  N   UNL     1      45.352   4.508  10.419  0.00  0.00    +0.000 NA
ATOM     16  H   UNL     1      46.575   6.435  10.816  0.00  0.00    +0.000 HD
BRANCH  14  17
ATOM     17  C   UNL     1      44.817   2.490   9.026  0.00  0.00    +0.000 C 
ATOM     18  F   UNL     1      44.101   1.322   9.066  0.00  0.00    +0.000 F 
ATOM     19  F   UNL     1      44.428   3.102   7.870  0.00  0.00    +0.000 F 
ATOM     20  F   UNL     1      46.110   2.104   8.835  0.00  0.00    +0.000 F 
ENDBRANCH  14  17
ENDBRANCH   8   9
BRANCH   8  21
ATOM     21  C   UNL     1      46.100   8.813  12.378  0.00  0.00    +0.000 C 
BRANCH  21  22
ATOM     22  N   UNL     1      44.917   9.577  12.798  0.00  0.00    +0.000 NA
ATOM     23  H   UNL     1      45.193  10.254  13.510  0.00  0.00    +0.000 HD
ATOM     24  H   UNL     1      44.240   8.959  13.242  0.00  0.00    +0.000 HD
ENDBRANCH  21  22
ENDBRANCH   8  21
ENDBRANCH   7   8
ENDBRANCH   1   7
BRANCH   4  25
ATOM     25  C   UNL     1      48.194   3.280  17.883  0.00  0.00    +0.000 C 
BRANCH  25  26
ATOM     26  N   UNL     1      49.603   3.027  18.089  0.00  0.00    +0.000 N 
ATOM     27  C   UNL     1      50.309   2.209  17.244  0.00  0.00    +0.000 C 
ATOM     28  O   UNL     1      49.789   1.704  16.253  0.00  0.00    +0.000 OA
ATOM     29  H   UNL     1      49.989   3.276  18.994  0.00  0.00    +0.000 HD
BRANCH  27  30
ATOM     30  C   UNL     1      51.733   2.006  17.544  0.00  0.00    +0.000 A 
ATOM     31  C   UNL     1      52.219   0.715  17.710  0.00  0.00    +0.000 A 
ATOM     32  S   UNL     1      53.892   0.643  18.034  0.00  0.00    +0.000 S 
ATOM     33  C   UNL     1      54.023   2.338  18.006  0.00  0.00    +0.000 A 
ATOM     34  N   UNL     1      55.215   2.949  18.248  0.00  0.00    +0.000 NA
ATOM     35  C   UNL     1      55.163   4.240  18.236  0.00  0.00    +0.000 A 
ATOM     36  N   UNL     1      54.033   4.972  17.990  0.00  0.00    +0.000 N 
ATOM     37  C   UNL     1      52.818   4.398  17.698  0.00  0.00    +0.000 A 
ATOM     38  O   UNL     1      51.838   5.086  17.422  0.00  0.00    +0.000 OA
ATOM     39  C   UNL     1      52.810   2.950  17.730  0.00  0.00    +0.000 A 
ATOM     40  H   UNL     1      54.064   5.981  17.974  0.00  0.00    +0.000 HD
ENDBRANCH  27  30
ENDBRANCH  25  26
ENDBRANCH   4  25
TORSDOF 9
ENDMDL
MODEL 4
REMARK VINA RESULT:    -7.936      2.609      3.781
REMARK INTER + INTRA:         -13.217
REMARK INTER:                 -11.898
REMARK INTRA:                  -1.318
REMARK UNBOUND:                -1.337
REMARK  Name = 
REMARK  9 active torsions:
REMARK  status: ('A' for Active; 'I' for Inactive)
REMARK    1  A    between atoms: N_1  and  C_2
REMARK    2  A    between atoms: C_2  and  C_3
REMARK    3  A    between atoms: C_3  and  C_4
REMARK    4  A    between atoms: C_3  and  N_25
REMARK    5  A    between atoms: C_4  and  C_5
REMARK    6  A    between atoms: C_8  and  C_9
REMARK    7  A    between atoms: C_9  and  N_10
REMARK    8  A    between atoms: C_11  and  C_13
REMARK    9  A    between atoms: C_30  and  C_31
REMARK                            x       y       z     vdW  Elec       q    Type
REMARK                         _______ _______ _______ _____ _____    ______ ____
ROOT
ATOM      1  C   UNL     1      46.464   7.658  11.972  0.00  0.00    +0.000 A 
ATOM      2  C   UNL     1      47.081   8.902  12.143  0.00  0.00    +0.000 A 
ATOM      3  C   UNL     1      48.400   9.001  12.604  0.00  0.00    +0.000 A 
ATOM      4  C   UNL     1      49.136   7.859  12.935  0.00  0.00    +0.000 A 
ATOM      5  C   UNL     1      48.529   6.609  12.776  0.00  0.00    +0.000 A 
ATOM      6  C   UNL     1      47.215   6.511  12.288  0.00  0.00    +0.000 A 
ENDROOT
BRANCH   1   7
ATOM      7  C   UNL     1      45.024   7.483  11.504  0.00  0.00    +0.000 C 
BRANCH   7   8
ATOM      8  C   UNL     1      44.476   6.050  11.191  0.00  0.00    +0.000 C 
BRANCH   8   9
ATOM      9  N   UNL     1      44.964   5.646   9.858  0.00  0.00    +0.000 N 
ATOM     10  C   UNL     1      45.138   4.357   9.410  0.00  0.00    +0.000 A 
ATOM     11  C   UNL     1      44.509   3.254   9.958  0.00  0.00    +0.000 A 
ATOM     12  C   UNL     1      44.703   1.982   9.423  0.00  0.00    +0.000 A 
ATOM     13  C   UNL     1      45.535   1.832   8.331  0.00  0.00    +0.000 A 
ATOM     14  C   UNL     1      46.138   2.967   7.794  0.00  0.00    +0.000 A 
ATOM     15  N   UNL     1      45.953   4.217   8.338  0.00  0.00    +0.000 NA
ATOM     16  H   UNL     1      45.619   6.258   9.381  0.00  0.00    +0.000 HD
BRANCH  14  17
ATOM     17  C   UNL     1      47.003   2.808   6.546  0.00  0.00    +0.000 C 
ATOM     18  F   UNL     1      46.859   1.584   5.946  0.00  0.00    +0.000 F 
ATOM     19  F   UNL     1      46.714   3.715   5.568  0.00  0.00    +0.000 F 
ATOM     20  F   UNL     1      48.339   2.925   6.790  0.00  0.00    +0.000 F 
ENDBRANCH  14  17
ENDBRANCH   8   9
BRANCH   8  21
ATOM     21  C   UNL     1      42.909   6.080  11.230  0.00  0.00    +0.000 C 
BRANCH  21  22
ATOM     22  N   UNL     1      42.254   5.151  12.161  0.00  0.00    +0.000 NA
ATOM     23  H   UNL     1      41.309   5.483  12.355  0.00  0.00    +0.000 HD
ATOM     24  H   UNL     1      42.743   5.147  13.054  0.00  0.00    +0.000 HD
ENDBRANCH  21  22
ENDBRANCH   8  21
ENDBRANCH   7   8
ENDBRANCH   1   7
BRANCH   4  25
ATOM     25  C   UNL     1      50.523   7.997  13.510  0.00  0.00    +0.000 C 
BRANCH  25  26
ATOM     26  N   UNL     1      50.616   7.365  14.808  0.00  0.00    +0.000 N 
ATOM     27  C   UNL     1      50.339   8.059  15.958  0.00  0.00    +0.000 C 
ATOM     28  O   UNL     1      49.952   9.224  15.930  0.00  0.00    +0.000 OA
ATOM     29  H   UNL     1      51.112   6.481  14.857  0.00  0.00    +0.000 HD
BRANCH  27  30
ATOM     30  C   UNL     1      50.473   7.333  17.228  0.00  0.00    +0.000 A 
ATOM     31  C   UNL     1      51.357   7.798  18.192  0.00  0.00    +0.000 A 
ATOM     32  S   UNL     1      51.386   6.859  19.616  0.00  0.00    +0.000 S 
ATOM     33  C   UNL     1      50.246   5.769  18.981  0.00  0.00    +0.000 A 
ATOM     34  N   UNL     1      49.845   4.683  19.697  0.00  0.00    +0.000 NA
ATOM     35  C   UNL     1      49.008   3.918  19.079  0.00  0.00    +0.000 A 
ATOM     36  N   UNL     1      48.526   4.147  17.819  0.00  0.00    +0.000 N 
ATOM     37  C   UNL     1      48.869   5.252  17.075  0.00  0.00    +0.000 A 
ATOM     38  O   UNL     1      48.370   5.458  15.972  0.00  0.00    +0.000 OA
ATOM     39  C   UNL     1      49.832   6.130  17.707  0.00  0.00    +0.000 A 
ATOM     40  H   UNL     1      47.855   3.520  17.400  0.00  0.00    +0.000 HD
ENDBRANCH  27  30
ENDBRANCH  25  26
ENDBRANCH   4  25
TORSDOF 9
ENDMDL
MODEL 5
REMARK VINA RESULT:    -7.888      2.403      3.647
REMARK INTER + INTRA:         -13.144
REMARK INTER:                 -12.773
REMARK INTRA:                  -0.371
REMARK UNBOUND:                -1.337
REMARK  Name = 
REMARK  9 active torsions:
REMARK  status: ('A' for Active; 'I' for Inactive)
REMARK    1  A    between atoms: N_1  and  C_2
REMARK    2  A    between atoms: C_2  and  C_3
REMARK    3  A    between atoms: C_3  and  C_4
REMARK    4  A    between atoms: C_3  and  N_25
REMARK    5  A    between atoms: C_4  and  C_5
REMARK    6  A    between atoms: C_8  and  C_9
REMARK    7  A    between atoms: C_9  and  N_10
REMARK    8  A    between atoms: C_11  and  C_13
REMARK    9  A    between atoms: C_30  and  C_31
REMARK                            x       y       z     vdW  Elec       q    Type
REMARK                         _______ _______ _______ _____ _____    ______ ____
ROOT
ATOM      1  C   UNL     1      45.151   4.849  13.181  0.00  0.00    +0.000 A 
ATOM      2  C   UNL     1      46.450   4.395  13.435  0.00  0.00    +0.000 A 
ATOM      3  C   UNL     1      47.543   5.269  13.413  0.00  0.00    +0.000 A 
ATOM      4  C   UNL     1      47.377   6.623  13.107  0.00  0.00    +0.000 A 
ATOM      5  C   UNL     1      46.086   7.091  12.843  0.00  0.00    +0.000 A 
ATOM      6  C   UNL     1      44.987   6.217  12.891  0.00  0.00    +0.000 A 
ENDROOT
BRANCH   1   7
ATOM      7  C   UNL     1      43.924   3.945  13.159  0.00  0.00    +0.000 C 
BRANCH   7   8
ATOM      8  C   UNL     1      43.298   3.514  11.790  0.00  0.00    +0.000 C 
BRANCH   8   9
ATOM      9  N   UNL     1      44.298   2.719  11.051  0.00  0.00    +0.000 N 
ATOM     10  C   UNL     1      44.962   3.104   9.910  0.00  0.00    +0.000 A 
ATOM     11  C   UNL     1      45.118   4.417   9.508  0.00  0.00    +0.000 A 
ATOM     12  C   UNL     1      45.841   4.732   8.359  0.00  0.00    +0.000 A 
ATOM     13  C   UNL     1      46.405   3.711   7.620  0.00  0.00    +0.000 A 
ATOM     14  C   UNL     1      46.242   2.401   8.063  0.00  0.00    +0.000 A 
ATOM     15  N   UNL     1      45.515   2.098   9.191  0.00  0.00    +0.000 NA
ATOM     16  H   UNL     1      44.212   1.707  11.066  0.00  0.00    +0.000 HD
BRANCH  14  17
ATOM     17  C   UNL     1      46.925   1.280   7.282  0.00  0.00    +0.000 C 
ATOM     18  F   UNL     1      48.293   1.331   7.356  0.00  0.00    +0.000 F 
ATOM     19  F   UNL     1      46.595   0.032   7.725  0.00  0.00    +0.000 F 
ATOM     20  F   UNL     1      46.644   1.298   5.948  0.00  0.00    +0.000 F 
ENDBRANCH  14  17
ENDBRANCH   8   9
BRANCH   8  21
ATOM     21  C   UNL     1      42.892   4.796  10.985  0.00  0.00    +0.000 C 
BRANCH  21  22
ATOM     22  N   UNL     1      41.866   5.658  11.588  0.00  0.00    +0.000 NA
ATOM     23  H   UNL     1      41.580   5.260  12.482  0.00  0.00    +0.000 HD
ATOM     24  H   UNL     1      41.032   5.672  11.004  0.00  0.00    +0.000 HD
ENDBRANCH  21  22
ENDBRANCH   8  21
ENDBRANCH   7   8
ENDBRANCH   1   7
BRANCH   4  25
ATOM     25  C   UNL     1      48.581   7.526  13.005  0.00  0.00    +0.000 C 
BRANCH  25  26
ATOM     26  N   UNL     1      49.656   7.062  13.853  0.00  0.00    +0.000 N 
ATOM     27  C   UNL     1      49.867   7.605  15.094  0.00  0.00    +0.000 C 
ATOM     28  O   UNL     1      49.123   8.466  15.556  0.00  0.00    +0.000 OA
ATOM     29  H   UNL     1      50.381   6.502  13.415  0.00  0.00    +0.000 HD
BRANCH  27  30
ATOM     30  C   UNL     1      50.993   7.074  15.876  0.00  0.00    +0.000 A 
ATOM     31  C   UNL     1      52.225   7.712  15.820  0.00  0.00    +0.000 A 
ATOM     32  S   UNL     1      53.423   6.988  16.795  0.00  0.00    +0.000 S 
ATOM     33  C   UNL     1      52.350   5.768  17.297  0.00  0.00    +0.000 A 
ATOM     34  N   UNL     1      52.762   4.778  18.136  0.00  0.00    +0.000 NA
ATOM     35  C   UNL     1      51.858   3.896  18.403  0.00  0.00    +0.000 A 
ATOM     36  N   UNL     1      50.577   3.922  17.919  0.00  0.00    +0.000 N 
ATOM     37  C   UNL     1      50.104   4.923  17.104  0.00  0.00    +0.000 A 
ATOM     38  O   UNL     1      48.932   4.947  16.739  0.00  0.00    +0.000 OA
ATOM     39  C   UNL     1      51.087   5.925  16.746  0.00  0.00    +0.000 A 
ATOM     40  H   UNL     1      49.910   3.211  18.184  0.00  0.00    +0.000 HD
ENDBRANCH  27  30
ENDBRANCH  25  26
ENDBRANCH   4  25
TORSDOF 9
ENDMDL
MODEL 6
REMARK VINA RESULT:    -7.664      1.956      2.905
REMARK INTER + INTRA:         -12.808
REMARK INTER:                 -11.440
REMARK INTRA:                  -1.368
REMARK UNBOUND:                -1.337
REMARK  Name = 
REMARK  9 active torsions:
REMARK  status: ('A' for Active; 'I' for Inactive)
REMARK    1  A    between atoms: N_1  and  C_2
REMARK    2  A    between atoms: C_2  and  C_3
REMARK    3  A    between atoms: C_3  and  C_4
REMARK    4  A    between atoms: C_3  and  N_25
REMARK    5  A    between atoms: C_4  and  C_5
REMARK    6  A    between atoms: C_8  and  C_9
REMARK    7  A    between atoms: C_9  and  N_10
REMARK    8  A    between atoms: C_11  and  C_13
REMARK    9  A    between atoms: C_30  and  C_31
REMARK                            x       y       z     vdW  Elec       q    Type
REMARK                         _______ _______ _______ _____ _____    ______ ____
ROOT
ATOM      1  C   UNL     1      47.670   6.519  14.097  0.00  0.00    +0.000 A 
ATOM      2  C   UNL     1      48.598   6.960  15.047  0.00  0.00    +0.000 A 
ATOM      3  C   UNL     1      48.947   6.165  16.145  0.00  0.00    +0.000 A 
ATOM      4  C   UNL     1      48.356   4.914  16.346  0.00  0.00    +0.000 A 
ATOM      5  C   UNL     1      47.420   4.463  15.410  0.00  0.00    +0.000 A 
ATOM      6  C   UNL     1      47.092   5.251  14.294  0.00  0.00    +0.000 A 
ENDROOT
BRANCH   1   7
ATOM      7  C   UNL     1      47.225   7.346  12.897  0.00  0.00    +0.000 C 
BRANCH   7   8
ATOM      8  C   UNL     1      45.709   7.398  12.505  0.00  0.00    +0.000 C 
BRANCH   8   9
ATOM      9  N   UNL     1      45.498   6.506  11.348  0.00  0.00    +0.000 N 
ATOM     10  C   UNL     1      44.900   5.268  11.372  0.00  0.00    +0.000 A 
ATOM     11  C   UNL     1      44.045   4.839  12.370  0.00  0.00    +0.000 A 
ATOM     12  C   UNL     1      43.444   3.583  12.305  0.00  0.00    +0.000 A 
ATOM     13  C   UNL     1      43.711   2.766  11.224  0.00  0.00    +0.000 A 
ATOM     14  C   UNL     1      44.564   3.237  10.229  0.00  0.00    +0.000 A 
ATOM     15  N   UNL     1      45.164   4.472  10.308  0.00  0.00    +0.000 NA
ATOM     16  H   UNL     1      46.169   6.541  10.587  0.00  0.00    +0.000 HD
BRANCH  14  17
ATOM     17  C   UNL     1      44.803   2.359   9.002  0.00  0.00    +0.000 C 
ATOM     18  F   UNL     1      46.119   2.014   8.839  0.00  0.00    +0.000 F 
ATOM     19  F   UNL     1      44.131   1.173   9.047  0.00  0.00    +0.000 F 
ATOM     20  F   UNL     1      44.447   2.955   7.829  0.00  0.00    +0.000 F 
ENDBRANCH  14  17
ENDBRANCH   8   9
BRANCH   8  21
ATOM     21  C   UNL     1      45.319   8.875  12.155  0.00  0.00    +0.000 C 
BRANCH  21  22
ATOM     22  N   UNL     1      43.986   9.086  11.573  0.00  0.00    +0.000 NA
ATOM     23  H   UNL     1      44.078   9.208  10.565  0.00  0.00    +0.000 HD
ATOM     24  H   UNL     1      43.582   9.951  11.928  0.00  0.00    +0.000 HD
ENDBRANCH  21  22
ENDBRANCH   8  21
ENDBRANCH   7   8
ENDBRANCH   1   7
BRANCH   4  25
ATOM     25  C   UNL     1      48.684   4.115  17.583  0.00  0.00    +0.000 C 
BRANCH  25  26
ATOM     26  N   UNL     1      50.064   3.683  17.575  0.00  0.00    +0.000 N 
ATOM     27  C   UNL     1      50.940   4.082  18.552  0.00  0.00    +0.000 C 
ATOM     28  O   UNL     1      50.576   4.776  19.498  0.00  0.00    +0.000 OA
ATOM     29  H   UNL     1      50.417   3.279  16.713  0.00  0.00    +0.000 HD
BRANCH  27  30
ATOM     30  C   UNL     1      52.324   3.599  18.451  0.00  0.00    +0.000 A 
ATOM     31  C   UNL     1      53.370   4.445  18.796  0.00  0.00    +0.000 A 
ATOM     32  S   UNL     1      54.912   3.734  18.643  0.00  0.00    +0.000 S 
ATOM     33  C   UNL     1      54.243   2.281  18.068  0.00  0.00    +0.000 A 
ATOM     34  N   UNL     1      55.041   1.238  17.709  0.00  0.00    +0.000 NA
ATOM     35  C   UNL     1      54.404   0.212  17.252  0.00  0.00    +0.000 A 
ATOM     36  N   UNL     1      53.042   0.129  17.136  0.00  0.00    +0.000 N 
ATOM     37  C   UNL     1      52.194   1.140  17.525  0.00  0.00    +0.000 A 
ATOM     38  O   UNL     1      50.974   1.007  17.463  0.00  0.00    +0.000 OA
ATOM     39  C   UNL     1      52.857   2.329  18.016  0.00  0.00    +0.000 A 
ATOM     40  H   UNL     1      52.603  -0.711  16.790  0.00  0.00    +0.000 HD
ENDBRANCH  27  30
ENDBRANCH  25  26
ENDBRANCH   4  25
TORSDOF 9
ENDMDL
MODEL 7
REMARK VINA RESULT:    -7.431      3.078      4.183
REMARK INTER + INTRA:         -12.460
REMARK INTER:                 -11.438
REMARK INTRA:                  -1.022
REMARK UNBOUND:                -1.337
REMARK  Name = 
REMARK  9 active torsions:
REMARK  status: ('A' for Active; 'I' for Inactive)
REMARK    1  A    between atoms: N_1  and  C_2
REMARK    2  A    between atoms: C_2  and  C_3
REMARK    3  A    between atoms: C_3  and  C_4
REMARK    4  A    between atoms: C_3  and  N_25
REMARK    5  A    between atoms: C_4  and  C_5
REMARK    6  A    between atoms: C_8  and  C_9
REMARK    7  A    between atoms: C_9  and  N_10
REMARK    8  A    between atoms: C_11  and  C_13
REMARK    9  A    between atoms: C_30  and  C_31
REMARK                            x       y       z     vdW  Elec       q    Type
REMARK                         _______ _______ _______ _____ _____    ______ ____
ROOT
ATOM      1  C   UNL     1      46.703   7.604  12.276  0.00  0.00    +0.000 A 
ATOM      2  C   UNL     1      47.658   8.615  12.119  0.00  0.00    +0.000 A 
ATOM      3  C   UNL     1      48.852   8.606  12.850  0.00  0.00    +0.000 A 
ATOM      4  C   UNL     1      49.119   7.598  13.782  0.00  0.00    +0.000 A 
ATOM      5  C   UNL     1      48.171   6.585  13.955  0.00  0.00    +0.000 A 
ATOM      6  C   UNL     1      46.985   6.583  13.202  0.00  0.00    +0.000 A 
ENDROOT
BRANCH   1   7
ATOM      7  C   UNL     1      45.371   7.572  11.536  0.00  0.00    +0.000 C 
BRANCH   7   8
ATOM      8  C   UNL     1      44.690   6.199  11.216  0.00  0.00    +0.000 C 
BRANCH   8   9
ATOM      9  N   UNL     1      45.074   5.796   9.849  0.00  0.00    +0.000 N 
ATOM     10  C   UNL     1      45.255   4.508   9.400  0.00  0.00    +0.000 A 
ATOM     11  C   UNL     1      44.719   3.391  10.012  0.00  0.00    +0.000 A 
ATOM     12  C   UNL     1      44.912   2.120   9.474  0.00  0.00    +0.000 A 
ATOM     13  C   UNL     1      45.650   1.987   8.314  0.00  0.00    +0.000 A 
ATOM     14  C   UNL     1      46.160   3.136   7.715  0.00  0.00    +0.000 A 
ATOM     15  N   UNL     1      45.977   4.385   8.261  0.00  0.00    +0.000 NA
ATOM     16  H   UNL     1      45.660   6.426   9.310  0.00  0.00    +0.000 HD
BRANCH  14  17
ATOM     17  C   UNL     1      46.916   2.992   6.396  0.00  0.00    +0.000 C 
ATOM     18  F   UNL     1      46.902   4.137   5.642  0.00  0.00    +0.000 F 
ATOM     19  F   UNL     1      48.238   2.695   6.559  0.00  0.00    +0.000 F 
ATOM     20  F   UNL     1      46.407   2.027   5.580  0.00  0.00    +0.000 F 
ENDBRANCH  14  17
ENDBRANCH   8   9
BRANCH   8  21
ATOM     21  C   UNL     1      43.135   6.356  11.340  0.00  0.00    +0.000 C 
BRANCH  21  22
ATOM     22  N   UNL     1      42.578   7.678  11.022  0.00  0.00    +0.000 NA
ATOM     23  H   UNL     1      43.206   8.158  10.378  0.00  0.00    +0.000 HD
ATOM     24  H   UNL     1      42.537   8.253  11.861  0.00  0.00    +0.000 HD
ENDBRANCH  21  22
ENDBRANCH   8  21
ENDBRANCH   7   8
ENDBRANCH   1   7
BRANCH   4  25
ATOM     25  C   UNL     1      50.374   7.658  14.618  0.00  0.00    +0.000 C 
BRANCH  25  26
ATOM     26  N   UNL     1      50.059   7.780  16.025  0.00  0.00    +0.000 N 
ATOM     27  C   UNL     1      50.195   6.715  16.878  0.00  0.00    +0.000 C 
ATOM     28  O   UNL     1      50.638   5.635  16.496  0.00  0.00    +0.000 OA
ATOM     29  H   UNL     1      49.518   8.591  16.308  0.00  0.00    +0.000 HD
BRANCH  27  30
ATOM     30  C   UNL     1      49.839   6.935  18.287  0.00  0.00    +0.000 A 
ATOM     31  C   UNL     1      50.471   6.193  19.275  0.00  0.00    +0.000 A 
ATOM     32  S   UNL     1      49.965   6.575  20.858  0.00  0.00    +0.000 S 
ATOM     33  C   UNL     1      48.849   7.720  20.279  0.00  0.00    +0.000 A 
ATOM     34  N   UNL     1      48.044   8.406  21.137  0.00  0.00    +0.000 NA
ATOM     35  C   UNL     1      47.217   9.213  20.560  0.00  0.00    +0.000 A 
ATOM     36  N   UNL     1      47.132   9.407  19.207  0.00  0.00    +0.000 N 
ATOM     37  C   UNL     1      47.952   8.768  18.307  0.00  0.00    +0.000 A 
ATOM     38  O   UNL     1      47.889   9.012  17.104  0.00  0.00    +0.000 OA
ATOM     39  C   UNL     1      48.879   7.826  18.896  0.00  0.00    +0.000 A 
ATOM     40  H   UNL     1      46.476  10.069  18.820  0.00  0.00    +0.000 HD
ENDBRANCH  27  30
ENDBRANCH  25  26
ENDBRANCH   4  25
TORSDOF 9
ENDMDL
MODEL 8
REMARK VINA RESULT:    -7.383      4.851      9.339
REMARK INTER + INTRA:         -12.388
REMARK INTER:                 -10.581
REMARK INTRA:                  -1.807
REMARK UNBOUND:                -1.337
REMARK  Name = 
REMARK  9 active torsions:
REMARK  status: ('A' for Active; 'I' for Inactive)
REMARK    1  A    between atoms: N_1  and  C_2
REMARK    2  A    between atoms: C_2  and  C_3
REMARK    3  A    between atoms: C_3  and  C_4
REMARK    4  A    between atoms: C_3  and  N_25
REMARK    5  A    between atoms: C_4  and  C_5
REMARK    6  A    between atoms: C_8  and  C_9
REMARK    7  A    between atoms: C_9  and  N_10
REMARK    8  A    between atoms: C_11  and  C_13
REMARK    9  A    between atoms: C_30  and  C_31
REMARK                            x       y       z     vdW  Elec       q    Type
REMARK                         _______ _______ _______ _____ _____    ______ ____
ROOT
ATOM      1  C   UNL     1      49.654   8.831  15.644  0.00  0.00    +0.000 A 
ATOM      2  C   UNL     1      48.623   9.593  15.083  0.00  0.00    +0.000 A 
ATOM      3  C   UNL     1      48.108   9.297  13.815  0.00  0.00    +0.000 A 
ATOM      4  C   UNL     1      48.627   8.245  13.054  0.00  0.00    +0.000 A 
ATOM      5  C   UNL     1      49.663   7.479  13.599  0.00  0.00    +0.000 A 
ATOM      6  C   UNL     1      50.160   7.762  14.882  0.00  0.00    +0.000 A 
ENDROOT
BRANCH   1   7
ATOM      7  C   UNL     1      50.279   9.119  17.004  0.00  0.00    +0.000 C 
BRANCH   7   8
ATOM      8  C   UNL     1      49.520   8.713  18.312  0.00  0.00    +0.000 C 
BRANCH   8   9
ATOM      9  N   UNL     1      48.787   7.459  18.054  0.00  0.00    +0.000 N 
ATOM     10  C   UNL     1      49.325   6.193  18.021  0.00  0.00    +0.000 A 
ATOM     11  C   UNL     1      50.522   5.843  18.617  0.00  0.00    +0.000 A 
ATOM     12  C   UNL     1      50.983   4.528  18.575  0.00  0.00    +0.000 A 
ATOM     13  C   UNL     1      50.226   3.571  17.928  0.00  0.00    +0.000 A 
ATOM     14  C   UNL     1      49.017   3.956  17.354  0.00  0.00    +0.000 A 
ATOM     15  N   UNL     1      48.577   5.259  17.387  0.00  0.00    +0.000 NA
ATOM     16  H   UNL     1      47.973   7.494  17.448  0.00  0.00    +0.000 HD
BRANCH  14  17
ATOM     17  C   UNL     1      48.151   2.883  16.699  0.00  0.00    +0.000 C 
ATOM     18  F   UNL     1      47.136   2.445  17.510  0.00  0.00    +0.000 F 
ATOM     19  F   UNL     1      47.532   3.307  15.559  0.00  0.00    +0.000 F 
ATOM     20  F   UNL     1      48.842   1.757  16.361  0.00  0.00    +0.000 F 
ENDBRANCH  14  17
ENDBRANCH   8   9
BRANCH   8  21
ATOM     21  C   UNL     1      48.537   9.866  18.714  0.00  0.00    +0.000 C 
BRANCH  21  22
ATOM     22  N   UNL     1      47.284   9.467  19.369  0.00  0.00    +0.000 NA
ATOM     23  H   UNL     1      47.351   9.665  20.367  0.00  0.00    +0.000 HD
ATOM     24  H   UNL     1      47.151   8.461  19.287  0.00  0.00    +0.000 HD
ENDBRANCH  21  22
ENDBRANCH   8  21
ENDBRANCH   7   8
ENDBRANCH   1   7
BRANCH   4  25
ATOM     25  C   UNL     1      48.114   8.001  11.657  0.00  0.00    +0.000 C 
BRANCH  25  26
ATOM     26  N   UNL     1      47.290   6.813  11.603  0.00  0.00    +0.000 N 
ATOM     27  C   UNL     1      45.930   6.884  11.767  0.00  0.00    +0.000 C 
ATOM     28  O   UNL     1      45.354   7.959  11.913  0.00  0.00    +0.000 OA
ATOM     29  H   UNL     1      47.763   5.919  11.677  0.00  0.00    +0.000 HD
BRANCH  27  30
ATOM     30  C   UNL     1      45.181   5.621  11.707  0.00  0.00    +0.000 A 
ATOM     31  C   UNL     1      44.493   5.180  12.830  0.00  0.00    +0.000 A 
ATOM     32  S   UNL     1      43.660   3.711  12.597  0.00  0.00    +0.000 S 
ATOM     33  C   UNL     1      44.220   3.587  10.997  0.00  0.00    +0.000 A 
ATOM     34  N   UNL     1      43.893   2.515  10.224  0.00  0.00    +0.000 NA
ATOM     35  C   UNL     1      44.419   2.528   9.045  0.00  0.00    +0.000 A 
ATOM     36  N   UNL     1      45.230   3.522   8.564  0.00  0.00    +0.000 N 
ATOM     37  C   UNL     1      45.553   4.642   9.293  0.00  0.00    +0.000 A 
ATOM     38  O   UNL     1      46.233   5.543   8.808  0.00  0.00    +0.000 OA
ATOM     39  C   UNL     1      45.015   4.665  10.637  0.00  0.00    +0.000 A 
ATOM     40  H   UNL     1      45.593   3.483   7.624  0.00  0.00    +0.000 HD
ENDBRANCH  27  30
ENDBRANCH  25  26
ENDBRANCH   4  25
TORSDOF 9
ENDMDL
MODEL 9
REMARK VINA RESULT:    -7.032      5.397      6.560
REMARK INTER + INTRA:         -11.863
REMARK INTER:                 -10.770
REMARK INTRA:                  -1.093
REMARK UNBOUND:                -1.337
REMARK  Name = 
REMARK  9 active torsions:
REMARK  status: ('A' for Active; 'I' for Inactive)
REMARK    1  A    between atoms: N_1  and  C_2
REMARK    2  A    between atoms: C_2  and  C_3
REMARK    3  A    between atoms: C_3  and  C_4
REMARK    4  A    between atoms: C_3  and  N_25
REMARK    5  A    between atoms: C_4  and  C_5
REMARK    6  A    between atoms: C_8  and  C_9
REMARK    7  A    between atoms: C_9  and  N_10
REMARK    8  A    between atoms: C_11  and  C_13
REMARK    9  A    between atoms: C_30  and  C_31
REMARK                            x       y       z     vdW  Elec       q    Type
REMARK                         _______ _______ _______ _____ _____    ______ ____
ROOT
ATOM      1  C   UNL     1      47.169   7.550  12.486  0.00  0.00    +0.000 A 
ATOM      2  C   UNL     1      47.624   8.746  13.052  0.00  0.00    +0.000 A 
ATOM      3  C   UNL     1      48.887   9.263  12.739  0.00  0.00    +0.000 A 
ATOM      4  C   UNL     1      49.749   8.585  11.871  0.00  0.00    +0.000 A 
ATOM      5  C   UNL     1      49.310   7.384  11.304  0.00  0.00    +0.000 A 
ATOM      6  C   UNL     1      48.032   6.881  11.598  0.00  0.00    +0.000 A 
ENDROOT
BRANCH   1   7
ATOM      7  C   UNL     1      45.819   6.918  12.808  0.00  0.00    +0.000 C 
BRANCH   7   8
ATOM      8  C   UNL     1      44.624   7.084  11.810  0.00  0.00    +0.000 C 
BRANCH   8   9
ATOM      9  N   UNL     1      44.997   6.455  10.528  0.00  0.00    +0.000 N 
ATOM     10  C   UNL     1      44.893   5.119  10.215  0.00  0.00    +0.000 A 
ATOM     11  C   UNL     1      44.060   4.232  10.870  0.00  0.00    +0.000 A 
ATOM     12  C   UNL     1      43.979   2.900  10.468  0.00  0.00    +0.000 A 
ATOM     13  C   UNL     1      44.745   2.472   9.402  0.00  0.00    +0.000 A 
ATOM     14  C   UNL     1      45.560   3.397   8.755  0.00  0.00    +0.000 A 
ATOM     15  N   UNL     1      45.645   4.707   9.167  0.00  0.00    +0.000 NA
ATOM     16  H   UNL     1      45.756   6.868   9.994  0.00  0.00    +0.000 HD
BRANCH  14  17
ATOM     17  C   UNL     1      46.353   2.937   7.534  0.00  0.00    +0.000 C 
ATOM     18  F   UNL     1      47.488   3.676   7.322  0.00  0.00    +0.000 F 
ATOM     19  F   UNL     1      46.785   1.646   7.624  0.00  0.00    +0.000 F 
ATOM     20  F   UNL     1      45.654   3.024   6.367  0.00  0.00    +0.000 F 
ENDBRANCH  14  17
ENDBRANCH   8   9
BRANCH   8  21
ATOM     21  C   UNL     1      44.321   8.610  11.620  0.00  0.00    +0.000 C 
BRANCH  21  22
ATOM     22  N   UNL     1      43.188   8.956  10.750  0.00  0.00    +0.000 NA
ATOM     23  H   UNL     1      42.317   8.764  11.244  0.00  0.00    +0.000 HD
ATOM     24  H   UNL     1      43.185   8.358   9.926  0.00  0.00    +0.000 HD
ENDBRANCH  21  22
ENDBRANCH   8  21
ENDBRANCH   7   8
ENDBRANCH   1   7
BRANCH   4  25
ATOM     25  C   UNL     1      51.137   9.118  11.617  0.00  0.00    +0.000 C 
BRANCH  25  26
ATOM     26  N   UNL     1      52.057   8.049  11.297  0.00  0.00    +0.000 N 
ATOM     27  C   UNL     1      52.695   8.001  10.084  0.00  0.00    +0.000 C 
ATOM     28  O   UNL     1      52.555   8.887   9.246  0.00  0.00    +0.000 OA
ATOM     29  H   UNL     1      52.032   7.226  11.890  0.00  0.00    +0.000 HD
BRANCH  27  30
ATOM     30  C   UNL     1      53.603   6.869   9.849  0.00  0.00    +0.000 A 
ATOM     31  C   UNL     1      54.546   6.537  10.812  0.00  0.00    +0.000 A 
ATOM     32  S   UNL     1      55.509   5.191  10.401  0.00  0.00    +0.000 S 
ATOM     33  C   UNL     1      54.730   5.027   8.899  0.00  0.00    +0.000 A 
ATOM     34  N   UNL     1      55.109   4.060   8.019  0.00  0.00    +0.000 NA
ATOM     35  C   UNL     1      54.461   4.074   6.901  0.00  0.00    +0.000 A 
ATOM     36  N   UNL     1      53.461   4.957   6.591  0.00  0.00    +0.000 N 
ATOM     37  C   UNL     1      53.017   5.922   7.465  0.00  0.00    +0.000 A 
ATOM     38  O   UNL     1      52.076   6.657   7.176  0.00  0.00    +0.000 OA
ATOM     39  C   UNL     1      53.731   5.973   8.723  0.00  0.00    +0.000 A 
ATOM     40  H   UNL     1      52.979   4.902   5.706  0.00  0.00    +0.000 HD
ENDBRANCH  27  30
ENDBRANCH  25  26
ENDBRANCH   4  25
TORSDOF 9
ENDMDL
