MODEL 1
REMARK VINA RESULT:    -8.698      0.000      0.000
REMARK INTER + INTRA:         -12.007
REMARK INTER:                 -11.240
REMARK INTRA:                  -0.767
REMARK UNBOUND:                -0.767
REMARK  Name = 
REMARK  5 active torsions:
REMARK  status: ('A' for Active; 'I' for Inactive)
REMARK    1  A    between atoms: C_2  and  C_4
REMARK    2  A    between atoms: C_7  and  O_8
REMARK    3  A    between atoms: O_8  and  C_9
REMARK    4  A    between atoms: C_9  and  C_10
REMARK    5  A    between atoms: C_14  and  C_15
REMARK                            x       y       z     vdW  Elec       q    Type
REMARK                         _______ _______ _______ _____ _____    ______ ____
ROOT
ATOM      1  C   UNL     1      43.693   4.501  11.190  0.00  0.00    +0.000 C 
ENDROOT
BRANCH   1   2
ATOM      2  C   UNL     1      44.737   5.369  11.850  0.00  0.00    +0.000 A 
ATOM      3  C   UNL     1      45.076   6.610  11.308  0.00  0.00    +0.000 A 
ATOM      4  C   UNL     1      46.077   7.345  11.917  0.00  0.00    +0.000 A 
ATOM      5  N   UNL     1      46.764   6.930  13.004  0.00  0.00    +0.000 NA
ATOM      6  C   UNL     1      46.459   5.713  13.516  0.00  0.00    +0.000 A 
ATOM      7  C   UNL     1      45.451   4.921  12.964  0.00  0.00    +0.000 A 
BRANCH   6   8
ATOM      8  C   UNL     1      47.250   5.276  14.676  0.00  0.00    +0.000 A 
ATOM      9  C   UNL     1      48.332   6.026  15.150  0.00  0.00    +0.000 A 
ATOM     10  N   UNL     1      49.088   5.709  16.235  0.00  0.00    +0.000 NA
ATOM     11  C   UNL     1      48.760   4.569  16.882  0.00  0.00    +0.000 A 
ATOM     12  C   UNL     1      47.725   3.745  16.489  0.00  0.00    +0.000 A 
ATOM     13  F   UNL     1      47.445   2.624  17.165  0.00  0.00    +0.000 F 
ATOM     14  C   UNL     1      46.969   4.094  15.380  0.00  0.00    +0.000 A 
ENDBRANCH   6   8
ENDBRANCH   1   2
BRANCH   1  15
ATOM     15  O   UNL     1      43.666   4.741   9.778  0.00  0.00    +0.000 OA
BRANCH  15  19
ATOM     16  C   UNL     1      46.320   2.311   7.782  0.00  0.00    +0.000 A 
ATOM     17  C   UNL     1      45.426   1.750   8.696  0.00  0.00    +0.000 A 
ATOM     18  C   UNL     1      44.531   2.583   9.371  0.00  0.00    +0.000 A 
ATOM     19  C   UNL     1      44.563   3.943   9.099  0.00  0.00    +0.000 A 
ATOM     20  N   UNL     1      45.420   4.512   8.225  0.00  0.00    +0.000 NA
ATOM     21  C   UNL     1      46.285   3.686   7.593  0.00  0.00    +0.000 A 
BRANCH  16  23
ATOM     22  N   UNL     1      48.426   2.186   6.579  0.00  0.00    +0.000 N 
ATOM     23  C   UNL     1      47.317   1.528   7.026  0.00  0.00    +0.000 C 
ATOM     24  O   UNL     1      47.173   0.326   6.842  0.00  0.00    +0.000 OA
ATOM     25  H   UNL     1      49.146   1.609   6.159  0.00  0.00    +0.000 HD
ATOM     26  H   UNL     1      48.700   3.094   6.924  0.00  0.00    +0.000 HD
ENDBRANCH  16  23
ENDBRANCH  15  19
ENDBRANCH   1  15
TORSDOF 5
ENDMDL
MODEL 2
REMARK VINA RESULT:    -8.530      2.495      3.741
REMARK INTER + INTRA:         -11.790
REMARK INTER:                 -11.100
REMARK INTRA:                  -0.690
REMARK UNBOUND:                -0.767
REMARK  Name = 
REMARK  5 active torsions:
REMARK  status: ('A' for Active; 'I' for Inactive)
REMARK    1  A    between atoms: C_2  and  C_4
REMARK    2  A    between atoms: C_7  and  O_8
REMARK    3  A    between atoms: O_8  and  C_9
REMARK    4  A    between atoms: C_9  and  C_10
REMARK    5  A    between atoms: C_14  and  C_15
REMARK                            x       y       z     vdW  Elec       q    Type
REMARK                         _______ _______ _______ _____ _____    ______ ____
ROOT
ATOM      1  C   UNL     1      43.719   4.254  11.224  0.00  0.00    +0.000 C 
ENDROOT
BRANCH   1   2
ATOM      2  C   UNL     1      44.982   4.712  11.911  0.00  0.00    +0.000 A 
ATOM      3  C   UNL     1      45.593   3.916  12.881  0.00  0.00    +0.000 A 
ATOM      4  C   UNL     1      46.719   4.403  13.521  0.00  0.00    +0.000 A 
ATOM      5  N   UNL     1      47.261   5.616  13.276  0.00  0.00    +0.000 NA
ATOM      6  C   UNL     1      46.654   6.405  12.357  0.00  0.00    +0.000 A 
ATOM      7  C   UNL     1      45.523   5.975  11.660  0.00  0.00    +0.000 A 
BRANCH   6   8
ATOM      8  C   UNL     1      47.249   7.732  12.141  0.00  0.00    +0.000 A 
ATOM      9  C   UNL     1      46.517   8.906  12.355  0.00  0.00    +0.000 A 
ATOM     10  N   UNL     1      47.004  10.168  12.213  0.00  0.00    +0.000 NA
ATOM     11  C   UNL     1      48.293  10.272  11.820  0.00  0.00    +0.000 A 
ATOM     12  C   UNL     1      49.098   9.181  11.562  0.00  0.00    +0.000 A 
ATOM     13  F   UNL     1      50.368   9.342  11.173  0.00  0.00    +0.000 F 
ATOM     14  C   UNL     1      48.576   7.906  11.718  0.00  0.00    +0.000 A 
ENDBRANCH   6   8
ENDBRANCH   1   2
BRANCH   1  15
ATOM     15  O   UNL     1      43.730   4.651   9.847  0.00  0.00    +0.000 OA
BRANCH  15  19
ATOM     16  C   UNL     1      46.436   2.449   7.665  0.00  0.00    +0.000 A 
ATOM     17  C   UNL     1      45.585   1.801   8.564  0.00  0.00    +0.000 A 
ATOM     18  C   UNL     1      44.672   2.557   9.302  0.00  0.00    +0.000 A 
ATOM     19  C   UNL     1      44.642   3.930   9.107  0.00  0.00    +0.000 A 
ATOM     20  N   UNL     1      45.456   4.583   8.250  0.00  0.00    +0.000 NA
ATOM     21  C   UNL     1      46.340   3.829   7.555  0.00  0.00    +0.000 A 
BRANCH  16  23
ATOM     22  N   UNL     1      48.517   2.479   6.415  0.00  0.00    +0.000 N 
ATOM     23  C   UNL     1      47.446   1.751   6.847  0.00  0.00    +0.000 C 
ATOM     24  O   UNL     1      47.348   0.556   6.599  0.00  0.00    +0.000 OA
ATOM     25  H   UNL     1      49.250   1.958   5.949  0.00  0.00    +0.000 HD
ATOM     26  H   UNL     1      48.761   3.378   6.805  0.00  0.00    +0.000 HD
ENDBRANCH  16  23
ENDBRANCH  15  19
ENDBRANCH   1  15
TORSDOF 5
ENDMDL
MODEL 3
REMARK VINA RESULT:    -8.329      2.743      3.358
REMARK INTER + INTRA:         -11.531
REMARK INTER:                 -10.828
REMARK INTRA:                  -0.703
REMARK UNBOUND:                -0.767
REMARK  Name = 
REMARK  5 active torsions:
REMARK  status: ('A' for Active; 'I' for Inactive)
REMARK    1  A    between atoms: C_2  and  C_4
REMARK    2  A    between atoms: C_7  and  O_8
REMARK    3  A    between atoms: O_8  and  C_9
REMARK    4  A    between atoms: C_9  and  C_10
REMARK    5  A    between atoms: C_14  and  C_15
REMARK                            x       y       z     vdW  Elec       q    Type
REMARK                         _______ _______ _______ _____ _____    ______ ____
ROOT
ATOM      1  C   UNL     1      44.468   5.800  10.668  0.00  0.00    +0.000 C 
ENDROOT
BRANCH   1   2
ATOM      2  C   UNL     1      45.552   5.560  11.691  0.00  0.00    +0.000 A 
ATOM      3  C   UNL     1      45.397   4.584  12.676  0.00  0.00    +0.000 A 
ATOM      4  C   UNL     1      46.394   4.438  13.624  0.00  0.00    +0.000 A 
ATOM      5  N   UNL     1      47.511   5.198  13.667  0.00  0.00    +0.000 NA
ATOM      6  C   UNL     1      47.652   6.167  12.731  0.00  0.00    +0.000 A 
ATOM      7  C   UNL     1      46.694   6.363  11.734  0.00  0.00    +0.000 A 
BRANCH   6   8
ATOM      8  C   UNL     1      48.860   6.998  12.829  0.00  0.00    +0.000 A 
ATOM      9  C   UNL     1      49.477   7.253  14.059  0.00  0.00    +0.000 A 
ATOM     10  N   UNL     1      50.614   7.980  14.228  0.00  0.00    +0.000 NA
ATOM     11  C   UNL     1      51.166   8.499  13.110  0.00  0.00    +0.000 A 
ATOM     12  C   UNL     1      50.630   8.327  11.849  0.00  0.00    +0.000 A 
ATOM     13  F   UNL     1      51.217   8.867  10.774  0.00  0.00    +0.000 F 
ATOM     14  C   UNL     1      49.471   7.579  11.706  0.00  0.00    +0.000 A 
ENDBRANCH   6   8
ENDBRANCH   1   2
BRANCH   1  15
ATOM     15  O   UNL     1      43.919   4.553  10.224  0.00  0.00    +0.000 OA
BRANCH  15  19
ATOM     16  C   UNL     1      46.457   2.500   7.720  0.00  0.00    +0.000 A 
ATOM     17  C   UNL     1      45.706   1.799   8.666  0.00  0.00    +0.000 A 
ATOM     18  C   UNL     1      44.849   2.504   9.513  0.00  0.00    +0.000 A 
ATOM     19  C   UNL     1      44.774   3.882   9.376  0.00  0.00    +0.000 A 
ATOM     20  N   UNL     1      45.493   4.586   8.475  0.00  0.00    +0.000 NA
ATOM     21  C   UNL     1      46.325   3.881   7.674  0.00  0.00    +0.000 A 
BRANCH  16  23
ATOM     22  N   UNL     1      48.479   2.591   6.378  0.00  0.00    +0.000 N 
ATOM     23  C   UNL     1      47.403   1.858   6.786  0.00  0.00    +0.000 C 
ATOM     24  O   UNL     1      47.249   0.699   6.424  0.00  0.00    +0.000 OA
ATOM     25  H   UNL     1      49.170   2.097   5.826  0.00  0.00    +0.000 HD
ATOM     26  H   UNL     1      48.774   3.437   6.844  0.00  0.00    +0.000 HD
ENDBRANCH  16  23
ENDBRANCH  15  19
ENDBRANCH   1  15
TORSDOF 5
ENDMDL
MODEL 4
REMARK VINA RESULT:    -8.038      2.559      3.024
REMARK INTER + INTRA:         -11.154
REMARK INTER:                 -10.387
REMARK INTRA:                  -0.768
REMARK UNBOUND:                -0.767
REMARK  Name = 
REMARK  5 active torsions:
REMARK  status: ('A' for Active; 'I' for Inactive)
REMARK    1  A    between atoms: C_2  and  C_4
REMARK    2  A    between atoms: C_7  and  O_8
REMARK    3  A    between atoms: O_8  and  C_9
REMARK    4  A    between atoms: C_9  and  C_10
REMARK    5  A    between atoms: C_14  and  C_15
REMARK                            x       y       z     vdW  Elec       q    Type
REMARK                         _______ _______ _______ _____ _____    ______ ____
ROOT
ATOM      1  C   UNL     1      44.082   3.762  11.499  0.00  0.00    +0.000 C 
ENDROOT
BRANCH   1   2
ATOM      2  C   UNL     1      44.574   5.178  11.672  0.00  0.00    +0.000 A 
ATOM      3  C   UNL     1      43.750   6.260  11.361  0.00  0.00    +0.000 A 
ATOM      4  C   UNL     1      44.265   7.539  11.484  0.00  0.00    +0.000 A 
ATOM      5  N   UNL     1      45.530   7.809  11.875  0.00  0.00    +0.000 NA
ATOM      6  C   UNL     1      46.343   6.760  12.149  0.00  0.00    +0.000 A 
ATOM      7  C   UNL     1      45.890   5.443  12.061  0.00  0.00    +0.000 A 
BRANCH   6   8
ATOM      8  C   UNL     1      47.723   7.088  12.536  0.00  0.00    +0.000 A 
ATOM      9  C   UNL     1      48.228   6.758  13.798  0.00  0.00    +0.000 A 
ATOM     10  N   UNL     1      49.500   6.994  14.218  0.00  0.00    +0.000 NA
ATOM     11  C   UNL     1      50.318   7.610  13.336  0.00  0.00    +0.000 A 
ATOM     12  C   UNL     1      49.917   7.997  12.073  0.00  0.00    +0.000 A 
ATOM     13  F   UNL     1      50.769   8.607  11.240  0.00  0.00    +0.000 F 
ATOM     14  C   UNL     1      48.615   7.742  11.670  0.00  0.00    +0.000 A 
ENDBRANCH   6   8
ENDBRANCH   1   2
BRANCH   1  15
ATOM     15  O   UNL     1      43.549   3.578  10.182  0.00  0.00    +0.000 OA
BRANCH  15  19
ATOM     16  C   UNL     1      46.476   2.577   7.468  0.00  0.00    +0.000 A 
ATOM     17  C   UNL     1      45.981   1.603   8.339  0.00  0.00    +0.000 A 
ATOM     18  C   UNL     1      44.990   1.953   9.258  0.00  0.00    +0.000 A 
ATOM     19  C   UNL     1      44.530   3.261   9.265  0.00  0.00    +0.000 A 
ATOM     20  N   UNL     1      44.994   4.223   8.440  0.00  0.00    +0.000 NA
ATOM     21  C   UNL     1      45.963   3.863   7.566  0.00  0.00    +0.000 A 
BRANCH  16  23
ATOM     22  N   UNL     1      47.553   3.115   5.359  0.00  0.00    +0.000 N 
ATOM     23  C   UNL     1      47.532   2.322   6.469  0.00  0.00    +0.000 C 
ATOM     24  O   UNL     1      48.381   1.457   6.649  0.00  0.00    +0.000 OA
ATOM     25  H   UNL     1      48.347   2.995   4.741  0.00  0.00    +0.000 HD
ATOM     26  H   UNL     1      47.043   3.985   5.298  0.00  0.00    +0.000 HD
ENDBRANCH  16  23
ENDBRANCH  15  19
ENDBRANCH   1  15
TORSDOF 5
ENDMDL
MODEL 5
REMARK VINA RESULT:    -7.751      2.249      2.574
REMARK INTER + INTRA:         -10.783
REMARK INTER:                 -10.038
REMARK INTRA:                  -0.745
REMARK UNBOUND:                -0.767
REMARK  Name = 
REMARK  5 active torsions:
REMARK  status: ('A' for Active; 'I' for Inactive)
REMARK    1  A    between atoms: C_2  and  C_4
REMARK    2  A    between atoms: C_7  and  O_8
REMARK    3  A    between atoms: O_8  and  C_9
REMARK    4  A    between atoms: C_9  and  C_10
REMARK    5  A    between atoms: C_14  and  C_15
REMARK                            x       y       z     vdW  Elec       q    Type
REMARK                         _______ _______ _______ _____ _____    ______ ____
ROOT
ATOM      1  C   UNL     1      44.181   3.743  11.494  0.00  0.00    +0.000 C 
ENDROOT
BRANCH   1   2
ATOM      2  C   UNL     1      44.615   5.183  11.625  0.00  0.00    +0.000 A 
ATOM      3  C   UNL     1      43.781   6.219  11.204  0.00  0.00    +0.000 A 
ATOM      4  C   UNL     1      44.246   7.519  11.293  0.00  0.00    +0.000 A 
ATOM      5  N   UNL     1      45.473   7.852  11.753  0.00  0.00    +0.000 NA
ATOM      6  C   UNL     1      46.297   6.847  12.135  0.00  0.00    +0.000 A 
ATOM      7  C   UNL     1      45.892   5.513  12.086  0.00  0.00    +0.000 A 
BRANCH   6   8
ATOM      8  C   UNL     1      47.637   7.242  12.594  0.00  0.00    +0.000 A 
ATOM      9  C   UNL     1      48.411   8.170  11.888  0.00  0.00    +0.000 A 
ATOM     10  N   UNL     1      49.640   8.612  12.265  0.00  0.00    +0.000 NA
ATOM     11  C   UNL     1      50.140   8.091  13.408  0.00  0.00    +0.000 A 
ATOM     12  C   UNL     1      49.471   7.155  14.171  0.00  0.00    +0.000 A 
ATOM     13  F   UNL     1      50.015   6.670  15.293  0.00  0.00    +0.000 F 
ATOM     14  C   UNL     1      48.218   6.724  13.763  0.00  0.00    +0.000 A 
ENDBRANCH   6   8
ENDBRANCH   1   2
BRANCH   1  15
ATOM     15  O   UNL     1      43.624   3.508  10.195  0.00  0.00    +0.000 OA
BRANCH  15  19
ATOM     16  C   UNL     1      46.523   2.559   7.433  0.00  0.00    +0.000 A 
ATOM     17  C   UNL     1      46.087   1.587   8.337  0.00  0.00    +0.000 A 
ATOM     18  C   UNL     1      45.105   1.919   9.272  0.00  0.00    +0.000 A 
ATOM     19  C   UNL     1      44.594   3.208   9.262  0.00  0.00    +0.000 A 
ATOM     20  N   UNL     1      45.001   4.169   8.405  0.00  0.00    +0.000 NA
ATOM     21  C   UNL     1      45.963   3.826   7.516  0.00  0.00    +0.000 A 
BRANCH  16  23
ATOM     22  N   UNL     1      47.526   3.088   5.286  0.00  0.00    +0.000 N 
ATOM     23  C   UNL     1      47.564   2.321   6.415  0.00  0.00    +0.000 C 
ATOM     24  O   UNL     1      48.451   1.496   6.594  0.00  0.00    +0.000 OA
ATOM     25  H   UNL     1      48.310   2.985   4.652  0.00  0.00    +0.000 HD
ATOM     26  H   UNL     1      46.981   3.935   5.217  0.00  0.00    +0.000 HD
ENDBRANCH  16  23
ENDBRANCH  15  19
ENDBRANCH   1  15
TORSDOF 5
ENDMDL
MODEL 6
REMARK VINA RESULT:    -7.730      3.562      7.087
REMARK INTER + INTRA:         -10.756
REMARK INTER:                  -9.924
REMARK INTRA:                  -0.832
REMARK UNBOUND:                -0.767
REMARK  Name = 
REMARK  5 active torsions:
REMARK  status: ('A' for Active; 'I' for Inactive)
REMARK    1  A    between atoms: C_2  and  C_4
REMARK    2  A    between atoms: C_7  and  O_8
REMARK    3  A    between atoms: O_8  and  C_9
REMARK    4  A    between atoms: C_9  and  C_10
REMARK    5  A    between atoms: C_14  and  C_15
REMARK                            x       y       z     vdW  Elec       q    Type
REMARK                         _______ _______ _______ _____ _____    ______ ____
ROOT
ATOM      1  C   UNL     1      44.100   6.660  11.590  0.00  0.00    +0.000 C 
ENDROOT
BRANCH   1   2
ATOM      2  C   UNL     1      44.009   5.223  11.138  0.00  0.00    +0.000 A 
ATOM      3  C   UNL     1      43.215   4.308  11.831  0.00  0.00    +0.000 A 
ATOM      4  C   UNL     1      43.207   2.990  11.411  0.00  0.00    +0.000 A 
ATOM      5  N   UNL     1      43.936   2.524  10.373  0.00  0.00    +0.000 NA
ATOM      6  C   UNL     1      44.732   3.403   9.716  0.00  0.00    +0.000 A 
ATOM      7  C   UNL     1      44.781   4.751  10.074  0.00  0.00    +0.000 A 
BRANCH   6   8
ATOM      8  C   UNL     1      45.539   2.855   8.616  0.00  0.00    +0.000 A 
ATOM      9  C   UNL     1      46.020   3.670   7.584  0.00  0.00    +0.000 A 
ATOM     10  N   UNL     1      46.801   3.248   6.554  0.00  0.00    +0.000 NA
ATOM     11  C   UNL     1      47.111   1.933   6.536  0.00  0.00    +0.000 A 
ATOM     12  C   UNL     1      46.673   1.037   7.491  0.00  0.00    +0.000 A 
ATOM     13  F   UNL     1      47.009  -0.256   7.424  0.00  0.00    +0.000 F 
ATOM     14  C   UNL     1      45.880   1.496   8.533  0.00  0.00    +0.000 A 
ENDBRANCH   6   8
ENDBRANCH   1   2
BRANCH   1  15
ATOM     15  O   UNL     1      44.781   6.744  12.848  0.00  0.00    +0.000 OA
BRANCH  15  19
ATOM     16  C   UNL     1      48.781   7.577  12.359  0.00  0.00    +0.000 A 
ATOM     17  C   UNL     1      47.828   8.521  11.969  0.00  0.00    +0.000 A 
ATOM     18  C   UNL     1      46.473   8.228  12.137  0.00  0.00    +0.000 A 
ATOM     19  C   UNL     1      46.126   7.006  12.692  0.00  0.00    +0.000 A 
ATOM     20  N   UNL     1      47.026   6.073  13.072  0.00  0.00    +0.000 NA
ATOM     21  C   UNL     1      48.332   6.376  12.888  0.00  0.00    +0.000 A 
BRANCH  16  23
ATOM     22  N   UNL     1      50.971   7.899  13.358  0.00  0.00    +0.000 N 
ATOM     23  C   UNL     1      50.236   7.776  12.214  0.00  0.00    +0.000 C 
ATOM     24  O   UNL     1      50.769   7.790  11.111  0.00  0.00    +0.000 OA
ATOM     25  H   UNL     1      51.977   7.925  13.239  0.00  0.00    +0.000 HD
ATOM     26  H   UNL     1      50.617   7.639  14.267  0.00  0.00    +0.000 HD
ENDBRANCH  16  23
ENDBRANCH  15  19
ENDBRANCH   1  15
TORSDOF 5
ENDMDL
MODEL 7
REMARK VINA RESULT:    -7.681      3.732      7.291
REMARK INTER + INTRA:         -10.693
REMARK INTER:                  -9.825
REMARK INTRA:                  -0.868
REMARK UNBOUND:                -0.767
REMARK  Name = 
REMARK  5 active torsions:
REMARK  status: ('A' for Active; 'I' for Inactive)
REMARK    1  A    between atoms: C_2  and  C_4
REMARK    2  A    between atoms: C_7  and  O_8
REMARK    3  A    between atoms: O_8  and  C_9
REMARK    4  A    between atoms: C_9  and  C_10
REMARK    5  A    between atoms: C_14  and  C_15
REMARK                            x       y       z     vdW  Elec       q    Type
REMARK                         _______ _______ _______ _____ _____    ______ ____
ROOT
ATOM      1  C   UNL     1      44.047   6.534  11.401  0.00  0.00    +0.000 C 
ENDROOT
BRANCH   1   2
ATOM      2  C   UNL     1      44.012   5.086  10.978  0.00  0.00    +0.000 A 
ATOM      3  C   UNL     1      43.280   4.149  11.707  0.00  0.00    +0.000 A 
ATOM      4  C   UNL     1      43.322   2.824  11.311  0.00  0.00    +0.000 A 
ATOM      5  N   UNL     1      44.046   2.372  10.262  0.00  0.00    +0.000 NA
ATOM      6  C   UNL     1      44.782   3.274   9.569  0.00  0.00    +0.000 A 
ATOM      7  C   UNL     1      44.778   4.630   9.902  0.00  0.00    +0.000 A 
BRANCH   6   8
ATOM      8  C   UNL     1      45.586   2.744   8.458  0.00  0.00    +0.000 A 
ATOM      9  C   UNL     1      46.071   1.431   8.465  0.00  0.00    +0.000 A 
ATOM     10  N   UNL     1      46.788   0.857   7.463  0.00  0.00    +0.000 NA
ATOM     11  C   UNL     1      47.055   1.637   6.393  0.00  0.00    +0.000 A 
ATOM     12  C   UNL     1      46.643   2.951   6.291  0.00  0.00    +0.000 A 
ATOM     13  F   UNL     1      46.938   3.681   5.209  0.00  0.00    +0.000 F 
ATOM     14  C   UNL     1      45.910   3.510   7.327  0.00  0.00    +0.000 A 
ENDBRANCH   6   8
ENDBRANCH   1   2
BRANCH   1  15
ATOM     15  O   UNL     1      44.640   6.658  12.700  0.00  0.00    +0.000 OA
BRANCH  15  19
ATOM     16  C   UNL     1      48.668   7.478  12.513  0.00  0.00    +0.000 A 
ATOM     17  C   UNL     1      48.238   6.241  13.001  0.00  0.00    +0.000 A 
ATOM     18  C   UNL     1      46.870   5.973  13.063  0.00  0.00    +0.000 A 
ATOM     19  C   UNL     1      45.986   6.950  12.629  0.00  0.00    +0.000 A 
ATOM     20  N   UNL     1      46.373   8.155  12.160  0.00  0.00    +0.000 NA
ATOM     21  C   UNL     1      47.705   8.396  12.121  0.00  0.00    +0.000 A 
BRANCH  16  23
ATOM     22  N   UNL     1      50.855   7.733  13.538  0.00  0.00    +0.000 N 
ATOM     23  C   UNL     1      50.087   7.871  12.418  0.00  0.00    +0.000 C 
ATOM     24  O   UNL     1      50.567   8.269  11.364  0.00  0.00    +0.000 OA
ATOM     25  H   UNL     1      51.846   7.904  13.422  0.00  0.00    +0.000 HD
ATOM     26  H   UNL     1      50.569   7.179  14.333  0.00  0.00    +0.000 HD
ENDBRANCH  16  23
ENDBRANCH  15  19
ENDBRANCH   1  15
TORSDOF 5
ENDMDL
MODEL 8
REMARK VINA RESULT:    -7.647      3.576      8.044
REMARK INTER + INTRA:         -10.649
REMARK INTER:                 -10.059
REMARK INTRA:                  -0.590
REMARK UNBOUND:                -0.767
REMARK  Name = 
REMARK  5 active torsions:
REMARK  status: ('A' for Active; 'I' for Inactive)
REMARK    1  A    between atoms: C_2  and  C_4
REMARK    2  A    between atoms: C_7  and  O_8
REMARK    3  A    between atoms: O_8  and  C_9
REMARK    4  A    between atoms: C_9  and  C_10
REMARK    5  A    between atoms: C_14  and  C_15
REMARK                            x       y       z     vdW  Elec       q    Type
REMARK                         _______ _______ _______ _____ _____    ______ ____
ROOT
ATOM      1  C   UNL     1      45.206   5.558  13.267  0.00  0.00    +0.000 C 
ENDROOT
BRANCH   1   2
ATOM      2  C   UNL     1      44.691   4.524  12.296  0.00  0.00    +0.000 A 
ATOM      3  C   UNL     1      43.620   3.698  12.637  0.00  0.00    +0.000 A 
ATOM      4  C   UNL     1      43.219   2.729  11.734  0.00  0.00    +0.000 A 
ATOM      5  N   UNL     1      43.813   2.519  10.538  0.00  0.00    +0.000 NA
ATOM      6  C   UNL     1      44.873   3.299  10.215  0.00  0.00    +0.000 A 
ATOM      7  C   UNL     1      45.325   4.307  11.069  0.00  0.00    +0.000 A 
BRANCH   6   8
ATOM      8  C   UNL     1      45.518   3.021   8.924  0.00  0.00    +0.000 A 
ATOM      9  C   UNL     1      45.793   4.042   8.007  0.00  0.00    +0.000 A 
ATOM     10  N   UNL     1      46.417   3.871   6.811  0.00  0.00    +0.000 NA
ATOM     11  C   UNL     1      46.779   2.607   6.498  0.00  0.00    +0.000 A 
ATOM     12  C   UNL     1      46.539   1.525   7.319  0.00  0.00    +0.000 A 
ATOM     13  F   UNL     1      46.917   0.292   6.959  0.00  0.00    +0.000 F 
ATOM     14  C   UNL     1      45.902   1.728   8.535  0.00  0.00    +0.000 A 
ENDBRANCH   6   8
ENDBRANCH   1   2
BRANCH   1  15
ATOM     15  O   UNL     1      46.638   5.586  13.251  0.00  0.00    +0.000 OA
BRANCH  15  19
ATOM     16  C   UNL     1      48.281   4.674  16.912  0.00  0.00    +0.000 A 
ATOM     17  C   UNL     1      48.684   5.833  16.245  0.00  0.00    +0.000 A 
ATOM     18  C   UNL     1      48.123   6.133  15.002  0.00  0.00    +0.000 A 
ATOM     19  C   UNL     1      47.177   5.264  14.479  0.00  0.00    +0.000 A 
ATOM     20  N   UNL     1      46.774   4.134  15.098  0.00  0.00    +0.000 NA
ATOM     21  C   UNL     1      47.341   3.859  16.296  0.00  0.00    +0.000 A 
BRANCH  16  23
ATOM     22  N   UNL     1      48.248   3.165  18.814  0.00  0.00    +0.000 N 
ATOM     23  C   UNL     1      48.818   4.254  18.220  0.00  0.00    +0.000 C 
ATOM     24  O   UNL     1      49.765   4.835  18.735  0.00  0.00    +0.000 OA
ATOM     25  H   UNL     1      48.701   2.829  19.656  0.00  0.00    +0.000 HD
ATOM     26  H   UNL     1      47.654   2.517  18.316  0.00  0.00    +0.000 HD
ENDBRANCH  16  23
ENDBRANCH  15  19
ENDBRANCH   1  15
TORSDOF 5
ENDMDL
MODEL 9
REMARK VINA RESULT:    -7.288      3.255      7.578
REMARK INTER + INTRA:         -10.185
REMARK INTER:                  -9.655
REMARK INTRA:                  -0.530
REMARK UNBOUND:                -0.767
REMARK  Name = 
REMARK  5 active torsions:
REMARK  status: ('A' for Active; 'I' for Inactive)
REMARK    1  A    between atoms: C_2  and  C_4
REMARK    2  A    between atoms: C_7  and  O_8
REMARK    3  A    between atoms: O_8  and  C_9
REMARK    4  A    between atoms: C_9  and  C_10
REMARK    5  A    between atoms: C_14  and  C_15
REMARK                            x       y       z     vdW  Elec       q    Type
REMARK                         _______ _______ _______ _____ _____    ______ ____
ROOT
ATOM      1  C   UNL     1      45.655   6.819  12.893  0.00  0.00    +0.000 C 
ENDROOT
BRANCH   1   2
ATOM      2  C   UNL     1      44.890   5.849  12.027  0.00  0.00    +0.000 A 
ATOM      3  C   UNL     1      43.574   5.503  12.337  0.00  0.00    +0.000 A 
ATOM      4  C   UNL     1      42.933   4.567  11.544  0.00  0.00    +0.000 A 
ATOM      5  N   UNL     1      43.509   3.951  10.488  0.00  0.00    +0.000 NA
ATOM      6  C   UNL     1      44.796   4.261  10.202  0.00  0.00    +0.000 A 
ATOM      7  C   UNL     1      45.502   5.206  10.948  0.00  0.00    +0.000 A 
BRANCH   6   8
ATOM      8  C   UNL     1      45.404   3.545   9.070  0.00  0.00    +0.000 A 
ATOM      9  C   UNL     1      45.878   4.225   7.943  0.00  0.00    +0.000 A 
ATOM     10  N   UNL     1      46.483   3.640   6.874  0.00  0.00    +0.000 NA
ATOM     11  C   UNL     1      46.613   2.296   6.920  0.00  0.00    +0.000 A 
ATOM     12  C   UNL     1      46.162   1.526   7.973  0.00  0.00    +0.000 A 
ATOM     13  F   UNL     1      46.314   0.196   7.965  0.00  0.00    +0.000 F 
ATOM     14  C   UNL     1      45.551   2.149   9.051  0.00  0.00    +0.000 A 
ENDBRANCH   6   8
ENDBRANCH   1   2
BRANCH   1  15
ATOM     15  O   UNL     1      47.047   6.481  12.909  0.00  0.00    +0.000 OA
BRANCH  15  19
ATOM     16  C   UNL     1      48.101   4.543  16.383  0.00  0.00    +0.000 A 
ATOM     17  C   UNL     1      47.163   3.961  15.526  0.00  0.00    +0.000 A 
ATOM     18  C   UNL     1      46.810   4.627  14.351  0.00  0.00    +0.000 A 
ATOM     19  C   UNL     1      47.413   5.846  14.077  0.00  0.00    +0.000 A 
ATOM     20  N   UNL     1      48.317   6.434  14.890  0.00  0.00    +0.000 NA
ATOM     21  C   UNL     1      48.633   5.774  16.028  0.00  0.00    +0.000 A 
BRANCH  16  23
ATOM     22  N   UNL     1      47.880   4.316  18.790  0.00  0.00    +0.000 N 
ATOM     23  C   UNL     1      48.535   3.934  17.655  0.00  0.00    +0.000 C 
ATOM     24  O   UNL     1      49.421   3.089  17.685  0.00  0.00    +0.000 OA
ATOM     25  H   UNL     1      48.119   3.807  19.633  0.00  0.00    +0.000 HD
ATOM     26  H   UNL     1      46.994   4.801  18.775  0.00  0.00    +0.000 HD
ENDBRANCH  16  23
ENDBRANCH  15  19
ENDBRANCH   1  15
TORSDOF 5
ENDMDL
