MODEL 1
REMARK VINA RESULT:    -9.510      0.000      0.000
REMARK INTER + INTRA:         -13.325
REMARK INTER:                 -12.290
REMARK INTRA:                  -1.035
REMARK UNBOUND:                -1.035
REMARK  Name = 
REMARK  5 active torsions:
REMARK  status: ('A' for Active; 'I' for Inactive)
REMARK    1  A    between atoms: C_2  and  C_4
REMARK    2  A    between atoms: N_8  and  C_9
REMARK    3  A    between atoms: C_9  and  C_10
REMARK    4  A    between atoms: C_10  and  C_13
REMARK    5  A    between atoms: C_17  and  C_18
REMARK                            x       y       z     vdW  Elec       q    Type
REMARK                         _______ _______ _______ _____ _____    ______ ____
ROOT
ATOM      1  C   UNL     1      43.477   5.645  12.150  0.00  0.00    +0.000 C 
ATOM      2  F   UNL     1      43.090   6.791  11.513  0.00  0.00    +0.000 F 
ATOM      3  F   UNL     1      42.624   5.517  13.210  0.00  0.00    +0.000 F 
ENDROOT
BRANCH   1   4
ATOM      4  C   UNL     1      44.925   5.700  12.601  0.00  0.00    +0.000 A 
ATOM      5  C   UNL     1      45.478   4.627  13.314  0.00  0.00    +0.000 A 
ATOM      6  C   UNL     1      46.816   4.651  13.688  0.00  0.00    +0.000 A 
ATOM      7  C   UNL     1      47.619   5.738  13.336  0.00  0.00    +0.000 A 
ATOM      8  C   UNL     1      47.115   6.819  12.590  0.00  0.00    +0.000 A 
ATOM      9  C   UNL     1      45.747   6.791  12.257  0.00  0.00    +0.000 A 
BRANCH   8  10
ATOM     10  C   UNL     1      48.010   7.902  12.121  0.00  0.00    +0.000 A 
ATOM     11  C   UNL     1      47.559   9.230  12.065  0.00  0.00    +0.000 A 
ATOM     12  C   UNL     1      48.420  10.235  11.653  0.00  0.00    +0.000 A 
ATOM     13  N   UNL     1      49.700  10.021  11.299  0.00  0.00    +0.000 NA
ATOM     14  C   UNL     1      50.133   8.746  11.356  0.00  0.00    +0.000 A 
ATOM     15  C   UNL     1      49.342   7.673  11.746  0.00  0.00    +0.000 A 
ENDBRANCH   8  10
ENDBRANCH   1   4
BRANCH   1  16
ATOM     16  C   UNL     1      43.265   4.450  11.182  0.00  0.00    +0.000 C 
BRANCH  16  21
ATOM     17  C   UNL     1      46.432   2.454   7.717  0.00  0.00    +0.000 A 
ATOM     18  C   UNL     1      45.582   1.807   8.608  0.00  0.00    +0.000 A 
ATOM     19  C   UNL     1      44.666   2.563   9.343  0.00  0.00    +0.000 A 
ATOM     20  C   UNL     1      44.619   3.945   9.180  0.00  0.00    +0.000 A 
ATOM     21  N   UNL     1      43.682   4.745   9.806  0.00  0.00    +0.000 N 
ATOM     22  N   UNL     1      45.451   4.580   8.335  0.00  0.00    +0.000 NA
ATOM     23  C   UNL     1      46.341   3.834   7.629  0.00  0.00    +0.000 A 
ATOM     24  H   UNL     1      43.916   5.721   9.620  0.00  0.00    +0.000 HD
BRANCH  17  26
ATOM     25  N   UNL     1      48.505   2.448   6.454  0.00  0.00    +0.000 N 
ATOM     26  C   UNL     1      47.419   1.737   6.886  0.00  0.00    +0.000 C 
ATOM     27  O   UNL     1      47.292   0.547   6.623  0.00  0.00    +0.000 OA
ATOM     28  H   UNL     1      49.225   1.917   5.979  0.00  0.00    +0.000 HD
ATOM     29  H   UNL     1      48.773   3.331   6.860  0.00  0.00    +0.000 HD
ENDBRANCH  17  26
ENDBRANCH  16  21
ENDBRANCH   1  16
TORSDOF 5
ENDMDL
MODEL 2
REMARK VINA RESULT:    -9.450      2.156      3.400
REMARK INTER + INTRA:         -13.247
REMARK INTER:                 -12.378
REMARK INTRA:                  -0.869
REMARK UNBOUND:                -1.035
REMARK  Name = 
REMARK  5 active torsions:
REMARK  status: ('A' for Active; 'I' for Inactive)
REMARK    1  A    between atoms: C_2  and  C_4
REMARK    2  A    between atoms: N_8  and  C_9
REMARK    3  A    between atoms: C_9  and  C_10
REMARK    4  A    between atoms: C_10  and  C_13
REMARK    5  A    between atoms: C_17  and  C_18
REMARK                            x       y       z     vdW  Elec       q    Type
REMARK                         _______ _______ _______ _____ _____    ______ ____
ROOT
ATOM      1  C   UNL     1      43.512   5.718  12.025  0.00  0.00    +0.000 C 
ATOM      2  F   UNL     1      42.982   6.842  11.455  0.00  0.00    +0.000 F 
ATOM      3  F   UNL     1      42.789   5.517  13.168  0.00  0.00    +0.000 F 
ENDROOT
BRANCH   1   4
ATOM      4  C   UNL     1      44.994   5.869  12.321  0.00  0.00    +0.000 A 
ATOM      5  C   UNL     1      45.789   6.691  11.512  0.00  0.00    +0.000 A 
ATOM      6  C   UNL     1      47.135   6.872  11.806  0.00  0.00    +0.000 A 
ATOM      7  C   UNL     1      47.694   6.246  12.922  0.00  0.00    +0.000 A 
ATOM      8  C   UNL     1      46.924   5.441  13.783  0.00  0.00    +0.000 A 
ATOM      9  C   UNL     1      45.573   5.243  13.442  0.00  0.00    +0.000 A 
BRANCH   8  10
ATOM     10  C   UNL     1      47.505   4.888  15.028  0.00  0.00    +0.000 A 
ATOM     11  C   UNL     1      48.287   5.693  15.871  0.00  0.00    +0.000 A 
ATOM     12  C   UNL     1      48.797   5.167  17.049  0.00  0.00    +0.000 A 
ATOM     13  N   UNL     1      48.582   3.903  17.455  0.00  0.00    +0.000 NA
ATOM     14  C   UNL     1      47.828   3.133  16.645  0.00  0.00    +0.000 A 
ATOM     15  C   UNL     1      47.283   3.567  15.444  0.00  0.00    +0.000 A 
ENDBRANCH   8  10
ENDBRANCH   1   4
BRANCH   1  16
ATOM     16  C   UNL     1      43.280   4.522  11.062  0.00  0.00    +0.000 C 
BRANCH  16  21
ATOM     17  C   UNL     1      46.516   2.489   7.685  0.00  0.00    +0.000 A 
ATOM     18  C   UNL     1      45.655   1.852   8.571  0.00  0.00    +0.000 A 
ATOM     19  C   UNL     1      44.722   2.615   9.278  0.00  0.00    +0.000 A 
ATOM     20  C   UNL     1      44.670   3.993   9.092  0.00  0.00    +0.000 A 
ATOM     21  N   UNL     1      43.719   4.798   9.689  0.00  0.00    +0.000 N 
ATOM     22  N   UNL     1      45.514   4.620   8.252  0.00  0.00    +0.000 NA
ATOM     23  C   UNL     1      46.421   3.867   7.573  0.00  0.00    +0.000 A 
ATOM     24  H   UNL     1      43.951   5.772   9.492  0.00  0.00    +0.000 HD
BRANCH  17  26
ATOM     25  N   UNL     1      48.516   2.507   6.309  0.00  0.00    +0.000 N 
ATOM     26  C   UNL     1      47.522   1.764   6.883  0.00  0.00    +0.000 C 
ATOM     27  O   UNL     1      47.488   0.545   6.762  0.00  0.00    +0.000 OA
ATOM     28  H   UNL     1      49.257   1.986   5.855  0.00  0.00    +0.000 HD
ATOM     29  H   UNL     1      48.724   3.452   6.596  0.00  0.00    +0.000 HD
ENDBRANCH  17  26
ENDBRANCH  16  21
ENDBRANCH   1  16
TORSDOF 5
ENDMDL
MODEL 3
REMARK VINA RESULT:    -8.560      1.341      2.031
REMARK INTER + INTRA:         -12.096
REMARK INTER:                 -11.448
REMARK INTRA:                  -0.648
REMARK UNBOUND:                -1.035
REMARK  Name = 
REMARK  5 active torsions:
REMARK  status: ('A' for Active; 'I' for Inactive)
REMARK    1  A    between atoms: C_2  and  C_4
REMARK    2  A    between atoms: N_8  and  C_9
REMARK    3  A    between atoms: C_9  and  C_10
REMARK    4  A    between atoms: C_10  and  C_13
REMARK    5  A    between atoms: C_17  and  C_18
REMARK                            x       y       z     vdW  Elec       q    Type
REMARK                         _______ _______ _______ _____ _____    ______ ____
ROOT
ATOM      1  C   UNL     1      44.580   4.680  12.304  0.00  0.00    +0.000 C 
ATOM      2  F   UNL     1      44.075   4.494  13.560  0.00  0.00    +0.000 F 
ATOM      3  F   UNL     1      45.513   3.695  12.140  0.00  0.00    +0.000 F 
ENDROOT
BRANCH   1   4
ATOM      4  C   UNL     1      45.187   6.060  12.127  0.00  0.00    +0.000 A 
ATOM      5  C   UNL     1      44.357   7.168  11.913  0.00  0.00    +0.000 A 
ATOM      6  C   UNL     1      44.904   8.441  11.798  0.00  0.00    +0.000 A 
ATOM      7  C   UNL     1      46.283   8.619  11.917  0.00  0.00    +0.000 A 
ATOM      8  C   UNL     1      47.151   7.540  12.168  0.00  0.00    +0.000 A 
ATOM      9  C   UNL     1      46.577   6.256  12.241  0.00  0.00    +0.000 A 
BRANCH   8  10
ATOM     10  C   UNL     1      48.594   7.766  12.413  0.00  0.00    +0.000 A 
ATOM     11  C   UNL     1      49.507   7.781  11.346  0.00  0.00    +0.000 A 
ATOM     12  C   UNL     1      50.849   8.025  11.591  0.00  0.00    +0.000 A 
ATOM     13  N   UNL     1      51.354   8.262  12.815  0.00  0.00    +0.000 NA
ATOM     14  C   UNL     1      50.475   8.249  13.838  0.00  0.00    +0.000 A 
ATOM     15  C   UNL     1      49.115   8.005  13.692  0.00  0.00    +0.000 A 
ENDBRANCH   8  10
ENDBRANCH   1   4
BRANCH   1  16
ATOM     16  C   UNL     1      43.434   4.467  11.277  0.00  0.00    +0.000 C 
BRANCH  16  21
ATOM     17  C   UNL     1      46.457   2.492   7.675  0.00  0.00    +0.000 A 
ATOM     18  C   UNL     1      45.609   1.843   8.565  0.00  0.00    +0.000 A 
ATOM     19  C   UNL     1      44.734   2.601   9.345  0.00  0.00    +0.000 A 
ATOM     20  C   UNL     1      44.724   3.988   9.228  0.00  0.00    +0.000 A 
ATOM     21  N   UNL     1      43.828   4.795   9.902  0.00  0.00    +0.000 N 
ATOM     22  N   UNL     1      45.556   4.626   8.384  0.00  0.00    +0.000 NA
ATOM     23  C   UNL     1      46.407   3.877   7.634  0.00  0.00    +0.000 A 
ATOM     24  H   UNL     1      44.087   5.769   9.742  0.00  0.00    +0.000 HD
BRANCH  17  26
ATOM     25  N   UNL     1      48.516   2.455   6.390  0.00  0.00    +0.000 N 
ATOM     26  C   UNL     1      47.403   1.774   6.798  0.00  0.00    +0.000 C 
ATOM     27  O   UNL     1      47.217   0.607   6.476  0.00  0.00    +0.000 OA
ATOM     28  H   UNL     1      49.206   1.917   5.881  0.00  0.00    +0.000 HD
ATOM     29  H   UNL     1      48.829   3.304   6.837  0.00  0.00    +0.000 HD
ENDBRANCH  17  26
ENDBRANCH  16  21
ENDBRANCH   1  16
TORSDOF 5
ENDMDL
MODEL 4
REMARK VINA RESULT:    -7.541      4.129      7.619
REMARK INTER + INTRA:         -10.779
REMARK INTER:                 -10.107
REMARK INTRA:                  -0.673
REMARK UNBOUND:                -1.035
REMARK  Name = 
REMARK  5 active torsions:
REMARK  status: ('A' for Active; 'I' for Inactive)
REMARK    1  A    between atoms: C_2  and  C_4
REMARK    2  A    between atoms: N_8  and  C_9
REMARK    3  A    between atoms: C_9  and  C_10
REMARK    4  A    between atoms: C_10  and  C_13
REMARK    5  A    between atoms: C_17  and  C_18
REMARK                            x       y       z     vdW  Elec       q    Type
REMARK                         _______ _______ _______ _____ _____    ______ ____
ROOT
ATOM      1  C   UNL     1      45.306   6.092  11.999  0.00  0.00    +0.000 C 
ATOM      2  F   UNL     1      44.286   6.649  12.719  0.00  0.00    +0.000 F 
ATOM      3  F   UNL     1      45.638   7.028  11.060  0.00  0.00    +0.000 F 
ENDROOT
BRANCH   1   4
ATOM      4  C   UNL     1      44.906   4.775  11.360  0.00  0.00    +0.000 A 
ATOM      5  C   UNL     1      43.780   4.084  11.827  0.00  0.00    +0.000 A 
ATOM      6  C   UNL     1      43.380   2.902  11.215  0.00  0.00    +0.000 A 
ATOM      7  C   UNL     1      44.091   2.411  10.118  0.00  0.00    +0.000 A 
ATOM      8  C   UNL     1      45.205   3.091   9.593  0.00  0.00    +0.000 A 
ATOM      9  C   UNL     1      45.614   4.265  10.254  0.00  0.00    +0.000 A 
BRANCH   8  10
ATOM     10  C   UNL     1      45.870   2.620   8.355  0.00  0.00    +0.000 A 
ATOM     11  C   UNL     1      46.098   3.501   7.287  0.00  0.00    +0.000 A 
ATOM     12  C   UNL     1      46.749   3.051   6.149  0.00  0.00    +0.000 A 
ATOM     13  N   UNL     1      47.197   1.792   5.995  0.00  0.00    +0.000 NA
ATOM     14  C   UNL     1      46.980   0.949   7.024  0.00  0.00    +0.000 A 
ATOM     15  C   UNL     1      46.329   1.305   8.197  0.00  0.00    +0.000 A 
ENDBRANCH   8  10
ENDBRANCH   1   4
BRANCH   1  16
ATOM     16  C   UNL     1      46.516   5.878  12.949  0.00  0.00    +0.000 C 
BRANCH  16  21
ATOM     17  C   UNL     1      48.849   4.289  17.197  0.00  0.00    +0.000 A 
ATOM     18  C   UNL     1      48.863   5.546  16.603  0.00  0.00    +0.000 A 
ATOM     19  C   UNL     1      47.999   5.803  15.537  0.00  0.00    +0.000 A 
ATOM     20  C   UNL     1      47.143   4.804  15.082  0.00  0.00    +0.000 A 
ATOM     21  N   UNL     1      46.201   5.012  14.092  0.00  0.00    +0.000 N 
ATOM     22  N   UNL     1      47.137   3.579  15.638  0.00  0.00    +0.000 NA
ATOM     23  C   UNL     1      47.987   3.339  16.671  0.00  0.00    +0.000 A 
ATOM     24  H   UNL     1      45.777   4.115  13.858  0.00  0.00    +0.000 HD
BRANCH  17  26
ATOM     25  N   UNL     1      49.121   3.840  19.568  0.00  0.00    +0.000 N 
ATOM     26  C   UNL     1      49.714   3.930  18.339  0.00  0.00    +0.000 C 
ATOM     27  O   UNL     1      50.906   3.690  18.188  0.00  0.00    +0.000 OA
ATOM     28  H   UNL     1      49.702   3.488  20.318  0.00  0.00    +0.000 HD
ATOM     29  H   UNL     1      48.121   3.771  19.685  0.00  0.00    +0.000 HD
ENDBRANCH  17  26
ENDBRANCH  16  21
ENDBRANCH   1  16
TORSDOF 5
ENDMDL
MODEL 5
REMARK VINA RESULT:    -7.201      4.224      7.581
REMARK INTER + INTRA:         -10.340
REMARK INTER:                  -9.231
REMARK INTRA:                  -1.110
REMARK UNBOUND:                -1.035
REMARK  Name = 
REMARK  5 active torsions:
REMARK  status: ('A' for Active; 'I' for Inactive)
REMARK    1  A    between atoms: C_2  and  C_4
REMARK    2  A    between atoms: N_8  and  C_9
REMARK    3  A    between atoms: C_9  and  C_10
REMARK    4  A    between atoms: C_10  and  C_13
REMARK    5  A    between atoms: C_17  and  C_18
REMARK                            x       y       z     vdW  Elec       q    Type
REMARK                         _______ _______ _______ _____ _____    ______ ____
ROOT
ATOM      1  C   UNL     1      49.055   8.153  12.223  0.00  0.00    +0.000 C 
ATOM      2  F   UNL     1      49.430   9.209  11.440  0.00  0.00    +0.000 F 
ATOM      3  F   UNL     1      49.826   7.104  11.806  0.00  0.00    +0.000 F 
ENDROOT
BRANCH   1   4
ATOM      4  C   UNL     1      47.574   7.843  12.099  0.00  0.00    +0.000 A 
ATOM      5  C   UNL     1      46.625   8.767  12.556  0.00  0.00    +0.000 A 
ATOM      6  C   UNL     1      45.268   8.510  12.401  0.00  0.00    +0.000 A 
ATOM      7  C   UNL     1      44.848   7.337  11.772  0.00  0.00    +0.000 A 
ATOM      8  C   UNL     1      45.767   6.399  11.265  0.00  0.00    +0.000 A 
ATOM      9  C   UNL     1      47.135   6.662  11.468  0.00  0.00    +0.000 A 
BRANCH   8  10
ATOM     10  C   UNL     1      45.305   5.223  10.492  0.00  0.00    +0.000 A 
ATOM     11  C   UNL     1      45.653   5.074   9.140  0.00  0.00    +0.000 A 
ATOM     12  C   UNL     1      45.237   3.951   8.441  0.00  0.00    +0.000 A 
ATOM     13  N   UNL     1      44.507   2.961   8.985  0.00  0.00    +0.000 NA
ATOM     14  C   UNL     1      44.176   3.105  10.284  0.00  0.00    +0.000 A 
ATOM     15  C   UNL     1      44.538   4.197  11.062  0.00  0.00    +0.000 A 
ENDBRANCH   8  10
ENDBRANCH   1   4
BRANCH   1  16
ATOM     16  C   UNL     1      49.408   8.485  13.698  0.00  0.00    +0.000 C 
BRANCH  16  21
ATOM     17  C   UNL     1      48.157   4.644  16.811  0.00  0.00    +0.000 A 
ATOM     18  C   UNL     1      47.475   5.136  15.704  0.00  0.00    +0.000 A 
ATOM     19  C   UNL     1      48.100   6.082  14.888  0.00  0.00    +0.000 A 
ATOM     20  C   UNL     1      49.385   6.521  15.193  0.00  0.00    +0.000 A 
ATOM     21  N   UNL     1      50.098   7.386  14.384  0.00  0.00    +0.000 N 
ATOM     22  N   UNL     1      50.044   6.064  16.274  0.00  0.00    +0.000 NA
ATOM     23  C   UNL     1      49.424   5.148  17.064  0.00  0.00    +0.000 A 
ATOM     24  H   UNL     1      50.958   7.643  14.867  0.00  0.00    +0.000 HD
BRANCH  17  26
ATOM     25  N   UNL     1      48.166   3.498  18.952  0.00  0.00    +0.000 N 
ATOM     26  C   UNL     1      47.585   3.632  17.721  0.00  0.00    +0.000 C 
ATOM     27  O   UNL     1      46.610   2.962  17.402  0.00  0.00    +0.000 OA
ATOM     28  H   UNL     1      47.697   2.880  19.602  0.00  0.00    +0.000 HD
ATOM     29  H   UNL     1      48.784   4.195  19.340  0.00  0.00    +0.000 HD
ENDBRANCH  17  26
ENDBRANCH  16  21
ENDBRANCH   1  16
TORSDOF 5
ENDMDL
MODEL 6
REMARK VINA RESULT:    -7.054      6.414      8.077
REMARK INTER + INTRA:         -10.150
REMARK INTER:                  -9.470
REMARK INTRA:                  -0.680
REMARK UNBOUND:                -1.035
REMARK  Name = 
REMARK  5 active torsions:
REMARK  status: ('A' for Active; 'I' for Inactive)
REMARK    1  A    between atoms: C_2  and  C_4
REMARK    2  A    between atoms: N_8  and  C_9
REMARK    3  A    between atoms: C_9  and  C_10
REMARK    4  A    between atoms: C_10  and  C_13
REMARK    5  A    between atoms: C_17  and  C_18
REMARK                            x       y       z     vdW  Elec       q    Type
REMARK                         _______ _______ _______ _____ _____    ______ ____
ROOT
ATOM      1  C   UNL     1      48.212   2.890  16.857  0.00  0.00    +0.000 C 
ATOM      2  F   UNL     1      47.408   2.731  17.951  0.00  0.00    +0.000 F 
ATOM      3  F   UNL     1      48.274   1.656  16.272  0.00  0.00    +0.000 F 
ENDROOT
BRANCH   1   4
ATOM      4  C   UNL     1      49.591   3.404  17.227  0.00  0.00    +0.000 A 
ATOM      5  C   UNL     1      49.798   4.776  17.419  0.00  0.00    +0.000 A 
ATOM      6  C   UNL     1      51.048   5.248  17.806  0.00  0.00    +0.000 A 
ATOM      7  C   UNL     1      52.095   4.350  18.023  0.00  0.00    +0.000 A 
ATOM      8  C   UNL     1      51.921   2.961  17.877  0.00  0.00    +0.000 A 
ATOM      9  C   UNL     1      50.659   2.511  17.447  0.00  0.00    +0.000 A 
BRANCH   8  10
ATOM     10  C   UNL     1      53.008   2.018  18.230  0.00  0.00    +0.000 A 
ATOM     11  C   UNL     1      52.993   0.699  17.752  0.00  0.00    +0.000 A 
ATOM     12  C   UNL     1      54.034  -0.161  18.067  0.00  0.00    +0.000 A 
ATOM     13  N   UNL     1      55.093   0.194  18.817  0.00  0.00    +0.000 NA
ATOM     14  C   UNL     1      55.107   1.463  19.273  0.00  0.00    +0.000 A 
ATOM     15  C   UNL     1      54.106   2.391  19.018  0.00  0.00    +0.000 A 
ENDBRANCH   8  10
ENDBRANCH   1   4
BRANCH   1  16
ATOM     16  C   UNL     1      47.520   3.878  15.879  0.00  0.00    +0.000 C 
BRANCH  16  21
ATOM     17  C   UNL     1      44.613   4.770  11.784  0.00  0.00    +0.000 A 
ATOM     18  C   UNL     1      45.194   5.676  12.664  0.00  0.00    +0.000 A 
ATOM     19  C   UNL     1      46.106   5.210  13.614  0.00  0.00    +0.000 A 
ATOM     20  C   UNL     1      46.416   3.854  13.671  0.00  0.00    +0.000 A 
ATOM     21  N   UNL     1      47.372   3.335  14.523  0.00  0.00    +0.000 N 
ATOM     22  N   UNL     1      45.842   2.968  12.837  0.00  0.00    +0.000 NA
ATOM     23  C   UNL     1      44.952   3.433  11.920  0.00  0.00    +0.000 A 
ATOM     24  H   UNL     1      47.340   2.317  14.461  0.00  0.00    +0.000 HD
BRANCH  17  26
ATOM     25  N   UNL     1      43.900   4.740   9.464  0.00  0.00    +0.000 N 
ATOM     26  C   UNL     1      43.652   5.171  10.737  0.00  0.00    +0.000 C 
ATOM     27  O   UNL     1      42.656   5.834  11.002  0.00  0.00    +0.000 OA
ATOM     28  H   UNL     1      43.177   4.931   8.780  0.00  0.00    +0.000 HD
ATOM     29  H   UNL     1      44.545   3.993   9.259  0.00  0.00    +0.000 HD
ENDBRANCH  17  26
ENDBRANCH  16  21
ENDBRANCH   1  16
TORSDOF 5
ENDMDL
MODEL 7
REMARK VINA RESULT:    -6.811      3.643      7.627
REMARK INTER + INTRA:          -9.836
REMARK INTER:                  -8.992
REMARK INTRA:                  -0.844
REMARK UNBOUND:                -1.035
REMARK  Name = 
REMARK  5 active torsions:
REMARK  status: ('A' for Active; 'I' for Inactive)
REMARK    1  A    between atoms: C_2  and  C_4
REMARK    2  A    between atoms: N_8  and  C_9
REMARK    3  A    between atoms: C_9  and  C_10
REMARK    4  A    between atoms: C_10  and  C_13
REMARK    5  A    between atoms: C_17  and  C_18
REMARK                            x       y       z     vdW  Elec       q    Type
REMARK                         _______ _______ _______ _____ _____    ______ ____
ROOT
ATOM      1  C   UNL     1      44.835   6.210  11.960  0.00  0.00    +0.000 C 
ATOM      2  F   UNL     1      44.565   6.273  13.299  0.00  0.00    +0.000 F 
ATOM      3  F   UNL     1      44.023   7.146  11.384  0.00  0.00    +0.000 F 
ENDROOT
BRANCH   1   4
ATOM      4  C   UNL     1      44.585   4.826  11.389  0.00  0.00    +0.000 A 
ATOM      5  C   UNL     1      43.563   4.025  11.916  0.00  0.00    +0.000 A 
ATOM      6  C   UNL     1      43.298   2.776  11.365  0.00  0.00    +0.000 A 
ATOM      7  C   UNL     1      44.040   2.326  10.272  0.00  0.00    +0.000 A 
ATOM      8  C   UNL     1      45.051   3.112   9.688  0.00  0.00    +0.000 A 
ATOM      9  C   UNL     1      45.327   4.356  10.287  0.00  0.00    +0.000 A 
BRANCH   8  10
ATOM     10  C   UNL     1      45.741   2.669   8.454  0.00  0.00    +0.000 A 
ATOM     11  C   UNL     1      45.970   3.568   7.401  0.00  0.00    +0.000 A 
ATOM     12  C   UNL     1      46.645   3.144   6.267  0.00  0.00    +0.000 A 
ATOM     13  N   UNL     1      47.117   1.895   6.103  0.00  0.00    +0.000 NA
ATOM     14  C   UNL     1      46.899   1.034   7.117  0.00  0.00    +0.000 A 
ATOM     15  C   UNL     1      46.225   1.364   8.286  0.00  0.00    +0.000 A 
ENDBRANCH   8  10
ENDBRANCH   1   4
BRANCH   1  16
ATOM     16  C   UNL     1      46.317   6.619  11.738  0.00  0.00    +0.000 C 
BRANCH  16  21
ATOM     17  C   UNL     1      49.679   8.761  14.918  0.00  0.00    +0.000 A 
ATOM     18  C   UNL     1      48.450   9.244  14.483  0.00  0.00    +0.000 A 
ATOM     19  C   UNL     1      47.611   8.400  13.752  0.00  0.00    +0.000 A 
ATOM     20  C   UNL     1      48.013   7.099  13.466  0.00  0.00    +0.000 A 
ATOM     21  N   UNL     1      47.201   6.182  12.825  0.00  0.00    +0.000 N 
ATOM     22  N   UNL     1      49.210   6.631  13.866  0.00  0.00    +0.000 NA
ATOM     23  C   UNL     1      50.020   7.463  14.572  0.00  0.00    +0.000 A 
ATOM     24  H   UNL     1      47.750   5.345  12.633  0.00  0.00    +0.000 HD
BRANCH  17  26
ATOM     25  N   UNL     1      51.469   8.904  16.553  0.00  0.00    +0.000 N 
ATOM     26  C   UNL     1      50.625   9.573  15.710  0.00  0.00    +0.000 C 
ATOM     27  O   UNL     1      50.677  10.791  15.594  0.00  0.00    +0.000 OA
ATOM     28  H   UNL     1      52.182   9.462  17.006  0.00  0.00    +0.000 HD
ATOM     29  H   UNL     1      51.634   7.911  16.482  0.00  0.00    +0.000 HD
ENDBRANCH  17  26
ENDBRANCH  16  21
ENDBRANCH   1  16
TORSDOF 5
ENDMDL
MODEL 8
REMARK VINA RESULT:    -6.614      4.652      6.930
REMARK INTER + INTRA:          -9.582
REMARK INTER:                  -8.607
REMARK INTRA:                  -0.974
REMARK UNBOUND:                -1.035
REMARK  Name = 
REMARK  5 active torsions:
REMARK  status: ('A' for Active; 'I' for Inactive)
REMARK    1  A    between atoms: C_2  and  C_4
REMARK    2  A    between atoms: N_8  and  C_9
REMARK    3  A    between atoms: C_9  and  C_10
REMARK    4  A    between atoms: C_10  and  C_13
REMARK    5  A    between atoms: C_17  and  C_18
REMARK                            x       y       z     vdW  Elec       q    Type
REMARK                         _______ _______ _______ _____ _____    ______ ____
ROOT
ATOM      1  C   UNL     1      45.785   5.339  12.573  0.00  0.00    +0.000 C 
ATOM      2  F   UNL     1      45.564   4.722  11.374  0.00  0.00    +0.000 F 
ATOM      3  F   UNL     1      44.598   5.257  13.246  0.00  0.00    +0.000 F 
ENDROOT
BRANCH   1   4
ATOM      4  C   UNL     1      46.232   6.780  12.403  0.00  0.00    +0.000 A 
ATOM      5  C   UNL     1      45.348   7.827  12.697  0.00  0.00    +0.000 A 
ATOM      6  C   UNL     1      45.767   9.148  12.589  0.00  0.00    +0.000 A 
ATOM      7  C   UNL     1      47.079   9.433  12.205  0.00  0.00    +0.000 A 
ATOM      8  C   UNL     1      48.010   8.413  11.936  0.00  0.00    +0.000 A 
ATOM      9  C   UNL     1      47.551   7.085  12.014  0.00  0.00    +0.000 A 
BRANCH   8  10
ATOM     10  C   UNL     1      49.428   8.734  11.651  0.00  0.00    +0.000 A 
ATOM     11  C   UNL     1      50.334   7.721  11.302  0.00  0.00    +0.000 A 
ATOM     12  C   UNL     1      51.650   8.044  11.008  0.00  0.00    +0.000 A 
ATOM     13  N   UNL     1      52.133   9.300  11.028  0.00  0.00    +0.000 NA
ATOM     14  C   UNL     1      51.259  10.272  11.361  0.00  0.00    +0.000 A 
ATOM     15  C   UNL     1      49.927  10.045  11.680  0.00  0.00    +0.000 A 
ENDBRANCH   8  10
ENDBRANCH   1   4
BRANCH   1  16
ATOM     16  C   UNL     1      46.864   4.535  13.348  0.00  0.00    +0.000 C 
BRANCH  16  21
ATOM     17  C   UNL     1      48.561   4.481  18.158  0.00  0.00    +0.000 A 
ATOM     18  C   UNL     1      48.650   5.489  17.205  0.00  0.00    +0.000 A 
ATOM     19  C   UNL     1      47.950   5.353  16.004  0.00  0.00    +0.000 A 
ATOM     20  C   UNL     1      47.180   4.216  15.776  0.00  0.00    +0.000 A 
ATOM     21  N   UNL     1      46.392   4.052  14.652  0.00  0.00    +0.000 N 
ATOM     22  N   UNL     1      47.105   3.226  16.684  0.00  0.00    +0.000 NA
ATOM     23  C   UNL     1      47.795   3.368  17.846  0.00  0.00    +0.000 A 
ATOM     24  H   UNL     1      46.016   3.104  14.658  0.00  0.00    +0.000 HD
BRANCH  17  26
ATOM     25  N   UNL     1      48.655   3.912  20.516  0.00  0.00    +0.000 N 
ATOM     26  C   UNL     1      49.252   4.545  19.461  0.00  0.00    +0.000 C 
ATOM     27  O   UNL     1      50.331   5.111  19.587  0.00  0.00    +0.000 OA
ATOM     28  H   UNL     1      49.192   3.872  21.373  0.00  0.00    +0.000 HD
ATOM     29  H   UNL     1      47.921   3.230  20.396  0.00  0.00    +0.000 HD
ENDBRANCH  17  26
ENDBRANCH  16  21
ENDBRANCH   1  16
TORSDOF 5
ENDMDL
