MODEL 1
REMARK VINA RESULT:    -7.762      0.000      0.000
REMARK INTER + INTRA:         -10.043
REMARK INTER:                  -9.578
REMARK INTRA:                  -0.465
REMARK UNBOUND:                -0.465
REMARK  Name = 
REMARK  5 active torsions:
REMARK  status: ('A' for Active; 'I' for Inactive)
REMARK    1  A    between atoms: C_1  and  C_2
REMARK    2  A    between atoms: C_2  and  N_3
REMARK    3  A    between atoms: C_2  and  C_13
REMARK    4  A    between atoms: N_3  and  C_4
REMARK    5  A    between atoms: C_7  and  C_8
REMARK                            x       y       z     vdW  Elec       q    Type
REMARK                         _______ _______ _______ _____ _____    ______ ____
ROOT
ATOM      1  C   UNL     1      44.615   3.382   9.423  0.00  0.00    +0.000 A 
ATOM      2  C   UNL     1      45.142   4.280   8.500  0.00  0.00    +0.000 A 
ATOM      3  N   UNL     1      46.027   3.979   7.526  0.00  0.00    +0.000 NA
ATOM      4  C   UNL     1      46.419   2.686   7.486  0.00  0.00    +0.000 A 
ATOM      5  N   UNL     1      46.014   1.719   8.334  0.00  0.00    +0.000 NA
ATOM      6  C   UNL     1      45.125   2.101   9.280  0.00  0.00    +0.000 A 
ENDROOT
BRANCH   4   7
ATOM      7  C   UNL     1      47.386   2.322   6.380  0.00  0.00    +0.000 C 
ATOM      8  N   UNL     1      47.293   3.093   5.242  0.00  0.00    +0.000 N 
ATOM      9  O   UNL     1      48.204   1.407   6.448  0.00  0.00    +0.000 OA
ATOM     10  H   UNL     1      46.606   3.834   5.198  0.00  0.00    +0.000 HD
ATOM     11  H   UNL     1      47.897   2.900   4.458  0.00  0.00    +0.000 HD
ENDBRANCH   4   7
BRANCH   1  12
ATOM     12  N   UNL     1      43.718   3.813  10.387  0.00  0.00    +0.000 N 
ATOM     13  H   UNL     1      42.792   3.405  10.290  0.00  0.00    +0.000 HD
BRANCH  12  15
ATOM     14  C   UNL     1      42.441   5.482  11.694  0.00  0.00    +0.000 C 
ATOM     15  C   UNL     1      43.718   5.186  10.904  0.00  0.00    +0.000 C 
BRANCH  15  16
ATOM     16  C   UNL     1      44.911   5.405  11.828  0.00  0.00    +0.000 A 
ATOM     17  C   UNL     1      45.056   4.590  12.965  0.00  0.00    +0.000 A 
ATOM     18  C   UNL     1      46.182   4.695  13.784  0.00  0.00    +0.000 A 
ATOM     19  C   UNL     1      47.180   5.618  13.482  0.00  0.00    +0.000 A 
ATOM     20  C   UNL     1      47.052   6.441  12.365  0.00  0.00    +0.000 A 
ATOM     21  C   UNL     1      45.928   6.334  11.543  0.00  0.00    +0.000 A 
ENDBRANCH  15  16
ENDBRANCH  12  15
ENDBRANCH   1  12
TORSDOF 4
ENDMDL
MODEL 2
REMARK VINA RESULT:    -7.748      0.086      1.140
REMARK INTER + INTRA:         -10.025
REMARK INTER:                  -9.557
REMARK INTRA:                  -0.468
REMARK UNBOUND:                -0.465
REMARK  Name = 
REMARK  5 active torsions:
REMARK  status: ('A' for Active; 'I' for Inactive)
REMARK    1  A    between atoms: C_1  and  C_2
REMARK    2  A    between atoms: C_2  and  N_3
REMARK    3  A    between atoms: C_2  and  C_13
REMARK    4  A    between atoms: N_3  and  C_4
REMARK    5  A    between atoms: C_7  and  C_8
REMARK                            x       y       z     vdW  Elec       q    Type
REMARK                         _______ _______ _______ _____ _____    ______ ____
ROOT
ATOM      1  C   UNL     1      44.628   3.396   9.389  0.00  0.00    +0.000 A 
ATOM      2  C   UNL     1      45.164   4.293   8.470  0.00  0.00    +0.000 A 
ATOM      3  N   UNL     1      46.056   3.989   7.503  0.00  0.00    +0.000 NA
ATOM      4  C   UNL     1      46.444   2.695   7.466  0.00  0.00    +0.000 A 
ATOM      5  N   UNL     1      46.030   1.729   8.310  0.00  0.00    +0.000 NA
ATOM      6  C   UNL     1      45.135   2.113   9.249  0.00  0.00    +0.000 A 
ENDROOT
BRANCH   4   7
ATOM      7  C   UNL     1      47.419   2.328   6.367  0.00  0.00    +0.000 C 
ATOM      8  N   UNL     1      47.307   3.071   5.212  0.00  0.00    +0.000 N 
ATOM      9  O   UNL     1      48.258   1.435   6.455  0.00  0.00    +0.000 OA
ATOM     10  H   UNL     1      46.603   3.794   5.151  0.00  0.00    +0.000 HD
ATOM     11  H   UNL     1      47.914   2.874   4.431  0.00  0.00    +0.000 HD
ENDBRANCH   4   7
BRANCH   1  12
ATOM     12  N   UNL     1      43.725   3.830  10.346  0.00  0.00    +0.000 N 
ATOM     13  H   UNL     1      42.779   3.487  10.196  0.00  0.00    +0.000 HD
BRANCH  12  15
ATOM     14  C   UNL     1      42.550   5.461  11.790  0.00  0.00    +0.000 C 
ATOM     15  C   UNL     1      43.789   5.170  10.939  0.00  0.00    +0.000 C 
BRANCH  15  16
ATOM     16  C   UNL     1      45.020   5.296  11.831  0.00  0.00    +0.000 A 
ATOM     17  C   UNL     1      45.976   6.287  11.543  0.00  0.00    +0.000 A 
ATOM     18  C   UNL     1      47.067   6.497  12.388  0.00  0.00    +0.000 A 
ATOM     19  C   UNL     1      47.223   5.720  13.533  0.00  0.00    +0.000 A 
ATOM     20  C   UNL     1      46.292   4.728  13.832  0.00  0.00    +0.000 A 
ATOM     21  C   UNL     1      45.197   4.519  12.990  0.00  0.00    +0.000 A 
ENDBRANCH  15  16
ENDBRANCH  12  15
ENDBRANCH   1  12
TORSDOF 4
ENDMDL
MODEL 3
REMARK VINA RESULT:    -6.679      3.921      6.722
REMARK INTER + INTRA:          -8.706
REMARK INTER:                  -8.277
REMARK INTRA:                  -0.429
REMARK UNBOUND:                -0.465
REMARK  Name = 
REMARK  5 active torsions:
REMARK  status: ('A' for Active; 'I' for Inactive)
REMARK    1  A    between atoms: C_1  and  C_2
REMARK    2  A    between atoms: C_2  and  N_3
REMARK    3  A    between atoms: C_2  and  C_13
REMARK    4  A    between atoms: N_3  and  C_4
REMARK    5  A    between atoms: C_7  and  C_8
REMARK                            x       y       z     vdW  Elec       q    Type
REMARK                         _______ _______ _______ _____ _____    ______ ____
ROOT
ATOM      1  C   UNL     1      46.333   5.385  12.756  0.00  0.00    +0.000 A 
ATOM      2  C   UNL     1      45.979   4.312  13.570  0.00  0.00    +0.000 A 
ATOM      3  N   UNL     1      46.519   4.025  14.773  0.00  0.00    +0.000 NA
ATOM      4  C   UNL     1      47.492   4.869  15.182  0.00  0.00    +0.000 A 
ATOM      5  N   UNL     1      47.954   5.927  14.484  0.00  0.00    +0.000 NA
ATOM      6  C   UNL     1      47.360   6.149  13.290  0.00  0.00    +0.000 A 
ENDROOT
BRANCH   4   7
ATOM      7  C   UNL     1      48.087   4.584  16.545  0.00  0.00    +0.000 C 
ATOM      8  N   UNL     1      47.358   5.058  17.613  0.00  0.00    +0.000 N 
ATOM      9  O   UNL     1      49.144   3.983  16.727  0.00  0.00    +0.000 OA
ATOM     10  H   UNL     1      46.497   5.561  17.445  0.00  0.00    +0.000 HD
ATOM     11  H   UNL     1      47.700   4.917  18.552  0.00  0.00    +0.000 HD
ENDBRANCH   4   7
BRANCH   1  12
ATOM     12  N   UNL     1      45.712   5.570  11.532  0.00  0.00    +0.000 N 
ATOM     13  H   UNL     1      45.620   6.547  11.268  0.00  0.00    +0.000 HD
BRANCH  12  15
ATOM     14  C   UNL     1      43.385   5.551  10.690  0.00  0.00    +0.000 C 
ATOM     15  C   UNL     1      44.611   4.717  11.070  0.00  0.00    +0.000 C 
BRANCH  15  16
ATOM     16  C   UNL     1      45.039   3.914   9.847  0.00  0.00    +0.000 A 
ATOM     17  C   UNL     1      45.628   4.584   8.760  0.00  0.00    +0.000 A 
ATOM     18  C   UNL     1      46.119   3.875   7.661  0.00  0.00    +0.000 A 
ATOM     19  C   UNL     1      46.026   2.486   7.630  0.00  0.00    +0.000 A 
ATOM     20  C   UNL     1      45.439   1.804   8.693  0.00  0.00    +0.000 A 
ATOM     21  C   UNL     1      44.951   2.512   9.794  0.00  0.00    +0.000 A 
ENDBRANCH  15  16
ENDBRANCH  12  15
ENDBRANCH   1  12
TORSDOF 4
ENDMDL
MODEL 4
REMARK VINA RESULT:    -6.434      3.243      6.382
REMARK INTER + INTRA:          -8.404
REMARK INTER:                  -8.007
REMARK INTRA:                  -0.398
REMARK UNBOUND:                -0.465
REMARK  Name = 
REMARK  5 active torsions:
REMARK  status: ('A' for Active; 'I' for Inactive)
REMARK    1  A    between atoms: C_1  and  C_2
REMARK    2  A    between atoms: C_2  and  N_3
REMARK    3  A    between atoms: C_2  and  C_13
REMARK    4  A    between atoms: N_3  and  C_4
REMARK    5  A    between atoms: C_7  and  C_8
REMARK                            x       y       z     vdW  Elec       q    Type
REMARK                         _______ _______ _______ _____ _____    ______ ____
ROOT
ATOM      1  C   UNL     1      44.636   4.911  10.160  0.00  0.00    +0.000 A 
ATOM      2  C   UNL     1      45.902   5.484  10.231  0.00  0.00    +0.000 A 
ATOM      3  N   UNL     1      46.272   6.474  11.071  0.00  0.00    +0.000 NA
ATOM      4  C   UNL     1      45.296   6.928  11.889  0.00  0.00    +0.000 A 
ATOM      5  N   UNL     1      44.022   6.486  11.907  0.00  0.00    +0.000 NA
ATOM      6  C   UNL     1      43.732   5.492  11.037  0.00  0.00    +0.000 A 
ENDROOT
BRANCH   4   7
ATOM      7  C   UNL     1      45.700   8.015  12.862  0.00  0.00    +0.000 C 
ATOM      8  N   UNL     1      46.721   7.681  13.724  0.00  0.00    +0.000 N 
ATOM      9  O   UNL     1      45.176   9.126  12.916  0.00  0.00    +0.000 OA
ATOM     10  H   UNL     1      47.133   6.758  13.674  0.00  0.00    +0.000 HD
ATOM     11  H   UNL     1      47.034   8.351  14.410  0.00  0.00    +0.000 HD
ENDBRANCH   4   7
BRANCH   1  12
ATOM     12  N   UNL     1      44.373   3.904   9.246  0.00  0.00    +0.000 N 
ATOM     13  H   UNL     1      43.392   3.837   8.988  0.00  0.00    +0.000 HD
BRANCH  12  15
ATOM     14  C   UNL     1      44.094   1.446   9.319  0.00  0.00    +0.000 C 
ATOM     15  C   UNL     1      45.078   2.618   9.266  0.00  0.00    +0.000 C 
BRANCH  15  16
ATOM     16  C   UNL     1      45.937   2.463   8.016  0.00  0.00    +0.000 A 
ATOM     17  C   UNL     1      45.997   3.521   7.091  0.00  0.00    +0.000 A 
ATOM     18  C   UNL     1      46.843   3.457   5.982  0.00  0.00    +0.000 A 
ATOM     19  C   UNL     1      47.641   2.334   5.778  0.00  0.00    +0.000 A 
ATOM     20  C   UNL     1      47.590   1.272   6.678  0.00  0.00    +0.000 A 
ATOM     21  C   UNL     1      46.747   1.336   7.790  0.00  0.00    +0.000 A 
ENDBRANCH  15  16
ENDBRANCH  12  15
ENDBRANCH   1  12
TORSDOF 4
ENDMDL
MODEL 5
REMARK VINA RESULT:    -6.278      4.345      6.903
REMARK INTER + INTRA:          -8.212
REMARK INTER:                  -7.776
REMARK INTRA:                  -0.436
REMARK UNBOUND:                -0.465
REMARK  Name = 
REMARK  5 active torsions:
REMARK  status: ('A' for Active; 'I' for Inactive)
REMARK    1  A    between atoms: C_1  and  C_2
REMARK    2  A    between atoms: C_2  and  N_3
REMARK    3  A    between atoms: C_2  and  C_13
REMARK    4  A    between atoms: N_3  and  C_4
REMARK    5  A    between atoms: C_7  and  C_8
REMARK                            x       y       z     vdW  Elec       q    Type
REMARK                         _______ _______ _______ _____ _____    ______ ____
ROOT
ATOM      1  C   UNL     1      46.977   5.444  13.493  0.00  0.00    +0.000 A 
ATOM      2  C   UNL     1      46.552   4.208  13.973  0.00  0.00    +0.000 A 
ATOM      3  N   UNL     1      46.906   3.659  15.154  0.00  0.00    +0.000 NA
ATOM      4  C   UNL     1      47.756   4.399  15.899  0.00  0.00    +0.000 A 
ATOM      5  N   UNL     1      48.269   5.595  15.546  0.00  0.00    +0.000 NA
ATOM      6  C   UNL     1      47.864   6.078  14.349  0.00  0.00    +0.000 A 
ENDROOT
BRANCH   4   7
ATOM      7  C   UNL     1      48.139   3.815  17.243  0.00  0.00    +0.000 C 
ATOM      8  N   UNL     1      47.174   3.032  17.838  0.00  0.00    +0.000 N 
ATOM      9  O   UNL     1      49.217   4.007  17.800  0.00  0.00    +0.000 OA
ATOM     10  H   UNL     1      46.288   2.895  17.372  0.00  0.00    +0.000 HD
ATOM     11  H   UNL     1      47.353   2.621  18.741  0.00  0.00    +0.000 HD
ENDBRANCH   4   7
BRANCH   1  12
ATOM     12  N   UNL     1      46.552   5.898  12.255  0.00  0.00    +0.000 N 
ATOM     13  H   UNL     1      46.962   6.789  11.988  0.00  0.00    +0.000 HD
BRANCH  12  15
ATOM     14  C   UNL     1      44.556   7.019  11.314  0.00  0.00    +0.000 C 
ATOM     15  C   UNL     1      45.181   5.699  11.772  0.00  0.00    +0.000 C 
BRANCH  15  16
ATOM     16  C   UNL     1      45.170   4.732  10.592  0.00  0.00    +0.000 A 
ATOM     17  C   UNL     1      44.580   3.466  10.750  0.00  0.00    +0.000 A 
ATOM     18  C   UNL     1      44.465   2.588   9.669  0.00  0.00    +0.000 A 
ATOM     19  C   UNL     1      44.940   2.961   8.415  0.00  0.00    +0.000 A 
ATOM     20  C   UNL     1      45.535   4.208   8.239  0.00  0.00    +0.000 A 
ATOM     21  C   UNL     1      45.647   5.088   9.318  0.00  0.00    +0.000 A 
ENDBRANCH  15  16
ENDBRANCH  12  15
ENDBRANCH   1  12
TORSDOF 4
ENDMDL
MODEL 6
REMARK VINA RESULT:    -5.793      1.710      2.891
REMARK INTER + INTRA:          -7.613
REMARK INTER:                  -7.328
REMARK INTRA:                  -0.284
REMARK UNBOUND:                -0.465
REMARK  Name = 
REMARK  5 active torsions:
REMARK  status: ('A' for Active; 'I' for Inactive)
REMARK    1  A    between atoms: C_1  and  C_2
REMARK    2  A    between atoms: C_2  and  N_3
REMARK    3  A    between atoms: C_2  and  C_13
REMARK    4  A    between atoms: N_3  and  C_4
REMARK    5  A    between atoms: C_7  and  C_8
REMARK                            x       y       z     vdW  Elec       q    Type
REMARK                         _______ _______ _______ _____ _____    ______ ____
ROOT
ATOM      1  C   UNL     1      44.886   4.676  10.878  0.00  0.00    +0.000 A 
ATOM      2  C   UNL     1      44.797   3.302  10.677  0.00  0.00    +0.000 A 
ATOM      3  N   UNL     1      45.215   2.638   9.578  0.00  0.00    +0.000 NA
ATOM      4  C   UNL     1      45.749   3.413   8.609  0.00  0.00    +0.000 A 
ATOM      5  N   UNL     1      45.870   4.756   8.657  0.00  0.00    +0.000 NA
ATOM      6  C   UNL     1      45.430   5.345   9.792  0.00  0.00    +0.000 A 
ENDROOT
BRANCH   4   7
ATOM      7  C   UNL     1      46.255   2.684   7.382  0.00  0.00    +0.000 C 
ATOM      8  N   UNL     1      46.663   1.386   7.598  0.00  0.00    +0.000 N 
ATOM      9  O   UNL     1      46.320   3.179   6.259  0.00  0.00    +0.000 OA
ATOM     10  H   UNL     1      46.615   0.998   8.531  0.00  0.00    +0.000 HD
ATOM     11  H   UNL     1      47.025   0.842   6.830  0.00  0.00    +0.000 HD
ENDBRANCH   4   7
BRANCH   1  12
ATOM     12  N   UNL     1      44.411   5.245  12.048  0.00  0.00    +0.000 N 
ATOM     13  H   UNL     1      43.618   5.865  11.905  0.00  0.00    +0.000 HD
BRANCH  12  15
ATOM     14  C   UNL     1      46.251   4.517  13.535  0.00  0.00    +0.000 C 
ATOM     15  C   UNL     1      45.298   5.650  13.144  0.00  0.00    +0.000 C 
BRANCH  15  16
ATOM     16  C   UNL     1      46.136   6.856  12.731  0.00  0.00    +0.000 A 
ATOM     17  C   UNL     1      45.534   8.126  12.689  0.00  0.00    +0.000 A 
ATOM     18  C   UNL     1      46.287   9.268  12.408  0.00  0.00    +0.000 A 
ATOM     19  C   UNL     1      47.653   9.159  12.162  0.00  0.00    +0.000 A 
ATOM     20  C   UNL     1      48.267   7.908  12.191  0.00  0.00    +0.000 A 
ATOM     21  C   UNL     1      47.516   6.766  12.476  0.00  0.00    +0.000 A 
ENDBRANCH  15  16
ENDBRANCH  12  15
ENDBRANCH   1  12
TORSDOF 4
ENDMDL
MODEL 7
REMARK VINA RESULT:    -5.601      3.148      5.042
REMARK INTER + INTRA:          -7.376
REMARK INTER:                  -6.925
REMARK INTRA:                  -0.451
REMARK UNBOUND:                -0.465
REMARK  Name = 
REMARK  5 active torsions:
REMARK  status: ('A' for Active; 'I' for Inactive)
REMARK    1  A    between atoms: C_1  and  C_2
REMARK    2  A    between atoms: C_2  and  N_3
REMARK    3  A    between atoms: C_2  and  C_13
REMARK    4  A    between atoms: N_3  and  C_4
REMARK    5  A    between atoms: C_7  and  C_8
REMARK                            x       y       z     vdW  Elec       q    Type
REMARK                         _______ _______ _______ _____ _____    ______ ____
ROOT
ATOM      1  C   UNL     1      46.022   5.223  12.993  0.00  0.00    +0.000 A 
ATOM      2  C   UNL     1      45.540   3.919  12.918  0.00  0.00    +0.000 A 
ATOM      3  N   UNL     1      45.079   3.314  11.803  0.00  0.00    +0.000 NA
ATOM      4  C   UNL     1      45.093   4.077  10.688  0.00  0.00    +0.000 A 
ATOM      5  N   UNL     1      45.502   5.360  10.622  0.00  0.00    +0.000 NA
ATOM      6  C   UNL     1      45.952   5.893  11.781  0.00  0.00    +0.000 A 
ENDROOT
BRANCH   4   7
ATOM      7  C   UNL     1      44.610   3.405   9.419  0.00  0.00    +0.000 C 
ATOM      8  N   UNL     1      44.617   2.027   9.447  0.00  0.00    +0.000 N 
ATOM      9  O   UNL     1      44.239   4.007   8.414  0.00  0.00    +0.000 OA
ATOM     10  H   UNL     1      44.937   1.548  10.278  0.00  0.00    +0.000 HD
ATOM     11  H   UNL     1      44.322   1.511   8.633  0.00  0.00    +0.000 HD
ENDBRANCH   4   7
BRANCH   1  12
ATOM     12  N   UNL     1      46.460   5.738  14.201  0.00  0.00    +0.000 N 
ATOM     13  H   UNL     1      45.989   6.599  14.469  0.00  0.00    +0.000 HD
BRANCH  12  15
ATOM     14  C   UNL     1      48.488   7.057  14.726  0.00  0.00    +0.000 C 
ATOM     15  C   UNL     1      47.861   5.663  14.628  0.00  0.00    +0.000 C 
BRANCH  15  16
ATOM     16  C   UNL     1      47.965   4.997  15.996  0.00  0.00    +0.000 A 
ATOM     17  C   UNL     1      47.491   3.683  16.156  0.00  0.00    +0.000 A 
ATOM     18  C   UNL     1      47.652   3.004  17.365  0.00  0.00    +0.000 A 
ATOM     19  C   UNL     1      48.287   3.628  18.436  0.00  0.00    +0.000 A 
ATOM     20  C   UNL     1      48.756   4.933  18.301  0.00  0.00    +0.000 A 
ATOM     21  C   UNL     1      48.599   5.612  17.091  0.00  0.00    +0.000 A 
ENDBRANCH  15  16
ENDBRANCH  12  15
ENDBRANCH   1  12
TORSDOF 4
ENDMDL
MODEL 8
REMARK VINA RESULT:    -5.383      3.481      5.240
REMARK INTER + INTRA:          -7.107
REMARK INTER:                  -6.651
REMARK INTRA:                  -0.456
REMARK UNBOUND:                -0.465
REMARK  Name = 
REMARK  5 active torsions:
REMARK  status: ('A' for Active; 'I' for Inactive)
REMARK    1  A    between atoms: C_1  and  C_2
REMARK    2  A    between atoms: C_2  and  N_3
REMARK    3  A    between atoms: C_2  and  C_13
REMARK    4  A    between atoms: N_3  and  C_4
REMARK    5  A    between atoms: C_7  and  C_8
REMARK                            x       y       z     vdW  Elec       q    Type
REMARK                         _______ _______ _______ _____ _____    ______ ____
ROOT
ATOM      1  C   UNL     1      46.040   6.097  12.639  0.00  0.00    +0.000 A 
ATOM      2  C   UNL     1      45.749   5.897  11.293  0.00  0.00    +0.000 A 
ATOM      3  N   UNL     1      45.089   4.838  10.779  0.00  0.00    +0.000 NA
ATOM      4  C   UNL     1      44.704   3.909  11.682  0.00  0.00    +0.000 A 
ATOM      5  N   UNL     1      44.944   3.959  13.008  0.00  0.00    +0.000 NA
ATOM      6  C   UNL     1      45.608   5.054  13.444  0.00  0.00    +0.000 A 
ENDROOT
BRANCH   4   7
ATOM      7  C   UNL     1      43.932   2.729  11.130  0.00  0.00    +0.000 C 
ATOM      8  N   UNL     1      44.435   2.193   9.964  0.00  0.00    +0.000 N 
ATOM      9  O   UNL     1      42.922   2.258  11.648  0.00  0.00    +0.000 OA
ATOM     10  H   UNL     1      45.260   2.601   9.545  0.00  0.00    +0.000 HD
ATOM     11  H   UNL     1      43.965   1.414   9.530  0.00  0.00    +0.000 HD
ENDBRANCH   4   7
BRANCH   1  12
ATOM     12  N   UNL     1      46.736   7.224  13.046  0.00  0.00    +0.000 N 
ATOM     13  H   UNL     1      46.546   7.492  14.008  0.00  0.00    +0.000 HD
BRANCH  12  15
ATOM     14  C   UNL     1      46.290   9.622  12.629  0.00  0.00    +0.000 C 
ATOM     15  C   UNL     1      46.998   8.354  12.148  0.00  0.00    +0.000 C 
BRANCH  15  16
ATOM     16  C   UNL     1      48.495   8.641  12.079  0.00  0.00    +0.000 A 
ATOM     17  C   UNL     1      49.351   7.678  11.517  0.00  0.00    +0.000 A 
ATOM     18  C   UNL     1      50.713   7.940  11.350  0.00  0.00    +0.000 A 
ATOM     19  C   UNL     1      51.240   9.167  11.743  0.00  0.00    +0.000 A 
ATOM     20  C   UNL     1      50.410  10.131  12.310  0.00  0.00    +0.000 A 
ATOM     21  C   UNL     1      49.047   9.872  12.474  0.00  0.00    +0.000 A 
ENDBRANCH  15  16
ENDBRANCH  12  15
ENDBRANCH   1  12
TORSDOF 4
ENDMDL
MODEL 9
REMARK VINA RESULT:    -5.207      3.652      5.868
REMARK INTER + INTRA:          -6.889
REMARK INTER:                  -6.467
REMARK INTRA:                  -0.422
REMARK UNBOUND:                -0.465
REMARK  Name = 
REMARK  5 active torsions:
REMARK  status: ('A' for Active; 'I' for Inactive)
REMARK    1  A    between atoms: C_1  and  C_2
REMARK    2  A    between atoms: C_2  and  N_3
REMARK    3  A    between atoms: C_2  and  C_13
REMARK    4  A    between atoms: N_3  and  C_4
REMARK    5  A    between atoms: C_7  and  C_8
REMARK                            x       y       z     vdW  Elec       q    Type
REMARK                         _______ _______ _______ _____ _____    ______ ____
ROOT
ATOM      1  C   UNL     1      47.049   5.787  13.036  0.00  0.00    +0.000 A 
ATOM      2  C   UNL     1      46.698   4.589  13.650  0.00  0.00    +0.000 A 
ATOM      3  N   UNL     1      45.735   3.741  13.229  0.00  0.00    +0.000 NA
ATOM      4  C   UNL     1      45.072   4.132  12.119  0.00  0.00    +0.000 A 
ATOM      5  N   UNL     1      45.286   5.279  11.442  0.00  0.00    +0.000 NA
ATOM      6  C   UNL     1      46.269   6.072  11.926  0.00  0.00    +0.000 A 
ENDROOT
BRANCH   4   7
ATOM      7  C   UNL     1      44.010   3.179  11.611  0.00  0.00    +0.000 C 
ATOM      8  N   UNL     1      43.665   2.168  12.482  0.00  0.00    +0.000 N 
ATOM      9  O   UNL     1      43.477   3.260  10.507  0.00  0.00    +0.000 OA
ATOM     10  H   UNL     1      44.123   2.109  13.382  0.00  0.00    +0.000 HD
ATOM     11  H   UNL     1      42.975   1.487  12.207  0.00  0.00    +0.000 HD
ENDBRANCH   4   7
BRANCH   1  12
ATOM     12  N   UNL     1      48.051   6.581  13.570  0.00  0.00    +0.000 N 
ATOM     13  H   UNL     1      48.681   6.076  14.189  0.00  0.00    +0.000 HD
BRANCH  12  15
ATOM     14  C   UNL     1      48.598   8.338  15.225  0.00  0.00    +0.000 C 
ATOM     15  C   UNL     1      47.829   7.980  13.951  0.00  0.00    +0.000 C 
BRANCH  15  16
ATOM     16  C   UNL     1      48.292   8.913  12.837  0.00  0.00    +0.000 A 
ATOM     17  C   UNL     1      47.402   9.882  12.342  0.00  0.00    +0.000 A 
ATOM     18  C   UNL     1      47.816  10.816  11.389  0.00  0.00    +0.000 A 
ATOM     19  C   UNL     1      49.124  10.795  10.915  0.00  0.00    +0.000 A 
ATOM     20  C   UNL     1      50.020   9.837  11.387  0.00  0.00    +0.000 A 
ATOM     21  C   UNL     1      49.608   8.905  12.342  0.00  0.00    +0.000 A 
ENDBRANCH  15  16
ENDBRANCH  12  15
ENDBRANCH   1  12
TORSDOF 4
ENDMDL
