MODEL 1
REMARK VINA RESULT:    -7.729      0.000      0.000
REMARK INTER + INTRA:         -11.838
REMARK INTER:                 -10.892
REMARK INTRA:                  -0.945
REMARK UNBOUND:                -0.945
REMARK  Name = 
REMARK  7 active torsions:
REMARK  status: ('A' for Active; 'I' for Inactive)
REMARK    1  A    between atoms: C_2  and  C_3
REMARK    2  A    between atoms: C_6  and  C_7
REMARK    3  A    between atoms: N_9  and  C_10
REMARK    4  A    between atoms: C_10  and  C_11
REMARK    5  A    between atoms: C_14  and  C_15
REMARK    6  A    between atoms: C_15  and  N_16
REMARK    7  A    between atoms: C_17  and  C_19
REMARK                            x       y       z     vdW  Elec       q    Type
REMARK                         _______ _______ _______ _____ _____    ______ ____
ROOT
ATOM      1  C   UNL     1      45.241   5.657  12.190  0.00  0.00    +0.000 A 
ATOM      2  C   UNL     1      44.994   4.419  12.796  0.00  0.00    +0.000 A 
ATOM      3  C   UNL     1      45.779   3.979  13.870  0.00  0.00    +0.000 A 
ATOM      4  C   UNL     1      46.819   4.775  14.370  0.00  0.00    +0.000 A 
ATOM      5  C   UNL     1      47.065   6.011  13.755  0.00  0.00    +0.000 A 
ATOM      6  C   UNL     1      46.276   6.455  12.688  0.00  0.00    +0.000 A 
ENDROOT
BRANCH   1   7
ATOM      7  C   UNL     1      44.403   6.118  11.032  0.00  0.00    +0.000 C 
BRANCH   7  10
ATOM      8  C   UNL     1      45.049   4.814   9.079  0.00  0.00    +0.000 C 
ATOM      9  O   UNL     1      46.076   5.479   8.941  0.00  0.00    +0.000 OA
ATOM     10  N   UNL     1      44.150   5.057  10.088  0.00  0.00    +0.000 N 
ATOM     11  H   UNL     1      43.266   4.566  10.128  0.00  0.00    +0.000 HD
BRANCH   8  15
ATOM     12  C   UNL     1      46.829   2.759   7.625  0.00  0.00    +0.000 C 
ATOM     13  C   UNL     1      46.131   1.740   8.529  0.00  0.00    +0.000 C 
ATOM     14  C   UNL     1      44.741   2.310   8.834  0.00  0.00    +0.000 C 
ATOM     15  C   UNL     1      44.676   3.673   8.139  0.00  0.00    +0.000 C 
ATOM     16  C   UNL     1      45.682   3.541   6.991  0.00  0.00    +0.000 C 
BRANCH  12  18
ATOM     17  N   UNL     1      48.430   1.504   5.728  0.00  0.00    +0.000 NA
ATOM     18  C   UNL     1      47.705   2.073   6.588  0.00  0.00    +0.000 C 
ENDBRANCH  12  18
ENDBRANCH   8  15
ENDBRANCH   7  10
ENDBRANCH   1   7
BRANCH   4  19
ATOM     19  C   UNL     1      47.666   4.345  15.549  0.00  0.00    +0.000 C 
BRANCH  19  20
ATOM     20  N   UNL     1      47.688   5.328  16.604  0.00  0.00    +0.000 N 
ATOM     21  C   UNL     1      48.857   5.892  17.056  0.00  0.00    +0.000 C 
ATOM     22  O   UNL     1      49.956   5.608  16.582  0.00  0.00    +0.000 OA
ATOM     23  H   UNL     1      46.895   5.319  17.237  0.00  0.00    +0.000 HD
BRANCH  21  24
ATOM     24  C   UNL     1      48.706   6.901  18.107  0.00  0.00    +0.000 A 
ATOM     25  C   UNL     1      48.856   6.555  19.444  0.00  0.00    +0.000 A 
ATOM     26  S   UNL     1      48.678   7.876  20.510  0.00  0.00    +0.000 S 
ATOM     27  C   UNL     1      48.350   8.944  19.224  0.00  0.00    +0.000 A 
ATOM     28  N   UNL     1      48.066  10.255  19.452  0.00  0.00    +0.000 NA
ATOM     29  C   UNL     1      47.813  10.941  18.389  0.00  0.00    +0.000 A 
ATOM     30  N   UNL     1      47.831  10.437  17.112  0.00  0.00    +0.000 N 
ATOM     31  C   UNL     1      48.154   9.135  16.833  0.00  0.00    +0.000 A 
ATOM     32  O   UNL     1      48.238   8.740  15.675  0.00  0.00    +0.000 OA
ATOM     33  C   UNL     1      48.410   8.309  17.999  0.00  0.00    +0.000 A 
ATOM     34  H   UNL     1      47.648  11.033  16.317  0.00  0.00    +0.000 HD
ENDBRANCH  21  24
ENDBRANCH  19  20
ENDBRANCH   4  19
TORSDOF 7
ENDMDL
MODEL 2
REMARK VINA RESULT:    -7.432      3.563      9.385
REMARK INTER + INTRA:         -11.419
REMARK INTER:                 -10.123
REMARK INTRA:                  -1.295
REMARK UNBOUND:                -0.945
REMARK  Name = 
REMARK  7 active torsions:
REMARK  status: ('A' for Active; 'I' for Inactive)
REMARK    1  A    between atoms: C_2  and  C_3
REMARK    2  A    between atoms: C_6  and  C_7
REMARK    3  A    between atoms: N_9  and  C_10
REMARK    4  A    between atoms: C_10  and  C_11
REMARK    5  A    between atoms: C_14  and  C_15
REMARK    6  A    between atoms: C_15  and  N_16
REMARK    7  A    between atoms: C_17  and  C_19
REMARK                            x       y       z     vdW  Elec       q    Type
REMARK                         _______ _______ _______ _____ _____    ______ ____
ROOT
ATOM      1  C   UNL     1      50.355   7.492  15.089  0.00  0.00    +0.000 A 
ATOM      2  C   UNL     1      50.712   8.196  13.933  0.00  0.00    +0.000 A 
ATOM      3  C   UNL     1      49.836   8.272  12.843  0.00  0.00    +0.000 A 
ATOM      4  C   UNL     1      48.575   7.659  12.893  0.00  0.00    +0.000 A 
ATOM      5  C   UNL     1      48.226   6.951  14.052  0.00  0.00    +0.000 A 
ATOM      6  C   UNL     1      49.098   6.881  15.144  0.00  0.00    +0.000 A 
ENDROOT
BRANCH   1   7
ATOM      7  C   UNL     1      51.304   7.404  16.251  0.00  0.00    +0.000 C 
BRANCH   7  10
ATOM      8  C   UNL     1      51.819   5.321  17.403  0.00  0.00    +0.000 C 
ATOM      9  O   UNL     1      52.916   5.254  16.850  0.00  0.00    +0.000 OA
ATOM     10  N   UNL     1      50.942   6.351  17.169  0.00  0.00    +0.000 N 
ATOM     11  H   UNL     1      50.007   6.339  17.556  0.00  0.00    +0.000 HD
BRANCH   8  15
ATOM     12  C   UNL     1      49.304   3.538  17.329  0.00  0.00    +0.000 C 
ATOM     13  C   UNL     1      50.305   2.391  17.179  0.00  0.00    +0.000 C 
ATOM     14  C   UNL     1      51.591   2.842  17.881  0.00  0.00    +0.000 C 
ATOM     15  C   UNL     1      51.327   4.263  18.386  0.00  0.00    +0.000 C 
ATOM     16  C   UNL     1      49.804   4.311  18.545  0.00  0.00    +0.000 C 
BRANCH  12  18
ATOM     17  N   UNL     1      46.713   2.585  17.671  0.00  0.00    +0.000 NA
ATOM     18  C   UNL     1      47.887   3.017  17.516  0.00  0.00    +0.000 C 
ENDBRANCH  12  18
ENDBRANCH   8  15
ENDBRANCH   7  10
ENDBRANCH   1   7
BRANCH   4  19
ATOM     19  C   UNL     1      47.591   7.749  11.746  0.00  0.00    +0.000 C 
BRANCH  19  20
ATOM     20  N   UNL     1      46.839   6.533  11.564  0.00  0.00    +0.000 N 
ATOM     21  C   UNL     1      45.464   6.510  11.587  0.00  0.00    +0.000 C 
ATOM     22  O   UNL     1      44.788   7.524  11.747  0.00  0.00    +0.000 OA
ATOM     23  H   UNL     1      47.326   5.670  11.785  0.00  0.00    +0.000 HD
BRANCH  21  24
ATOM     24  C   UNL     1      44.851   5.201  11.349  0.00  0.00    +0.000 A 
ATOM     25  C   UNL     1      44.040   4.616  12.314  0.00  0.00    +0.000 A 
ATOM     26  S   UNL     1      43.392   3.112  11.833  0.00  0.00    +0.000 S 
ATOM     27  C   UNL     1      44.211   3.170  10.340  0.00  0.00    +0.000 A 
ATOM     28  N   UNL     1      44.116   2.151   9.444  0.00  0.00    +0.000 NA
ATOM     29  C   UNL     1      44.808   2.318   8.368  0.00  0.00    +0.000 A 
ATOM     30  N   UNL     1      45.579   3.421   8.098  0.00  0.00    +0.000 N 
ATOM     31  C   UNL     1      45.668   4.490   8.951  0.00  0.00    +0.000 A 
ATOM     32  O   UNL     1      46.302   5.493   8.642  0.00  0.00    +0.000 OA
ATOM     33  C   UNL     1      44.938   4.336  10.197  0.00  0.00    +0.000 A 
ATOM     34  H   UNL     1      46.078   3.505   7.224  0.00  0.00    +0.000 HD
ENDBRANCH  21  24
ENDBRANCH  19  20
ENDBRANCH   4  19
TORSDOF 7
ENDMDL
MODEL 3
REMARK VINA RESULT:    -7.107      5.198      9.814
REMARK INTER + INTRA:         -10.960
REMARK INTER:                  -9.809
REMARK INTRA:                  -1.151
REMARK UNBOUND:                -0.945
REMARK  Name = 
REMARK  7 active torsions:
REMARK  status: ('A' for Active; 'I' for Inactive)
REMARK    1  A    between atoms: C_2  and  C_3
REMARK    2  A    between atoms: C_6  and  C_7
REMARK    3  A    between atoms: N_9  and  C_10
REMARK    4  A    between atoms: C_10  and  C_11
REMARK    5  A    between atoms: C_14  and  C_15
REMARK    6  A    between atoms: C_15  and  N_16
REMARK    7  A    between atoms: C_17  and  C_19
REMARK                            x       y       z     vdW  Elec       q    Type
REMARK                         _______ _______ _______ _____ _____    ______ ____
ROOT
ATOM      1  C   UNL     1      51.441   4.449  17.764  0.00  0.00    +0.000 A 
ATOM      2  C   UNL     1      50.572   5.490  17.416  0.00  0.00    +0.000 A 
ATOM      3  C   UNL     1      49.254   5.220  17.024  0.00  0.00    +0.000 A 
ATOM      4  C   UNL     1      48.773   3.903  16.989  0.00  0.00    +0.000 A 
ATOM      5  C   UNL     1      49.650   2.865  17.334  0.00  0.00    +0.000 A 
ATOM      6  C   UNL     1      50.964   3.135  17.733  0.00  0.00    +0.000 A 
ENDROOT
BRANCH   1   7
ATOM      7  C   UNL     1      52.857   4.744  18.172  0.00  0.00    +0.000 C 
BRANCH   7  10
ATOM      8  C   UNL     1      54.454   2.983  18.704  0.00  0.00    +0.000 C 
ATOM      9  O   UNL     1      54.325   3.192  19.910  0.00  0.00    +0.000 OA
ATOM     10  N   UNL     1      53.769   3.705  17.758  0.00  0.00    +0.000 N 
ATOM     11  H   UNL     1      53.960   3.586  16.771  0.00  0.00    +0.000 HD
BRANCH   8  15
ATOM     12  C   UNL     1      54.078  -0.065  18.435  0.00  0.00    +0.000 C 
ATOM     13  C   UNL     1      54.119   0.214  16.931  0.00  0.00    +0.000 C 
ATOM     14  C   UNL     1      54.985   1.465  16.745  0.00  0.00    +0.000 C 
ATOM     15  C   UNL     1      55.393   1.917  18.150  0.00  0.00    +0.000 C 
ATOM     16  C   UNL     1      55.325   0.628  18.976  0.00  0.00    +0.000 C 
BRANCH  12  18
ATOM     17  N   UNL     1      54.071  -2.797  18.961  0.00  0.00    +0.000 NA
ATOM     18  C   UNL     1      54.075  -1.558  18.723  0.00  0.00    +0.000 C 
ENDBRANCH  12  18
ENDBRANCH   8  15
ENDBRANCH   7  10
ENDBRANCH   1   7
BRANCH   4  19
ATOM     19  C   UNL     1      47.346   3.579  16.603  0.00  0.00    +0.000 C 
BRANCH  19  20
ATOM     20  N   UNL     1      46.806   4.510  15.644  0.00  0.00    +0.000 N 
ATOM     21  C   UNL     1      46.794   4.248  14.294  0.00  0.00    +0.000 C 
ATOM     22  O   UNL     1      47.227   3.199  13.820  0.00  0.00    +0.000 OA
ATOM     23  H   UNL     1      46.779   5.482  15.932  0.00  0.00    +0.000 HD
BRANCH  21  24
ATOM     24  C   UNL     1      46.178   5.279  13.456  0.00  0.00    +0.000 A 
ATOM     25  C   UNL     1      46.831   6.482  13.224  0.00  0.00    +0.000 A 
ATOM     26  S   UNL     1      45.967   7.536  12.194  0.00  0.00    +0.000 S 
ATOM     27  C   UNL     1      44.672   6.437  12.063  0.00  0.00    +0.000 A 
ATOM     28  N   UNL     1      43.562   6.741  11.337  0.00  0.00    +0.000 NA
ATOM     29  C   UNL     1      42.650   5.827  11.345  0.00  0.00    +0.000 A 
ATOM     30  N   UNL     1      42.753   4.628  12.004  0.00  0.00    +0.000 N 
ATOM     31  C   UNL     1      43.869   4.262  12.709  0.00  0.00    +0.000 A 
ATOM     32  O   UNL     1      43.959   3.149  13.218  0.00  0.00    +0.000 OA
ATOM     33  C   UNL     1      44.912   5.272  12.764  0.00  0.00    +0.000 A 
ATOM     34  H   UNL     1      42.013   3.942  11.951  0.00  0.00    +0.000 HD
ENDBRANCH  21  24
ENDBRANCH  19  20
ENDBRANCH   4  19
TORSDOF 7
ENDMDL
MODEL 4
REMARK VINA RESULT:    -6.671      5.419      8.676
REMARK INTER + INTRA:         -10.346
REMARK INTER:                  -9.261
REMARK INTRA:                  -1.085
REMARK UNBOUND:                -0.945
REMARK  Name = 
REMARK  7 active torsions:
REMARK  status: ('A' for Active; 'I' for Inactive)
REMARK    1  A    between atoms: C_2  and  C_3
REMARK    2  A    between atoms: C_6  and  C_7
REMARK    3  A    between atoms: N_9  and  C_10
REMARK    4  A    between atoms: C_10  and  C_11
REMARK    5  A    between atoms: C_14  and  C_15
REMARK    6  A    between atoms: C_15  and  N_16
REMARK    7  A    between atoms: C_17  and  C_19
REMARK                            x       y       z     vdW  Elec       q    Type
REMARK                         _______ _______ _______ _____ _____    ______ ____
ROOT
ATOM      1  C   UNL     1      50.000   9.082  11.533  0.00  0.00    +0.000 A 
ATOM      2  C   UNL     1      49.075  10.100  11.795  0.00  0.00    +0.000 A 
ATOM      3  C   UNL     1      47.771   9.795  12.206  0.00  0.00    +0.000 A 
ATOM      4  C   UNL     1      47.369   8.462  12.381  0.00  0.00    +0.000 A 
ATOM      5  C   UNL     1      48.299   7.447  12.112  0.00  0.00    +0.000 A 
ATOM      6  C   UNL     1      49.603   7.752  11.708  0.00  0.00    +0.000 A 
ENDROOT
BRANCH   1   7
ATOM      7  C   UNL     1      51.393   9.416  11.082  0.00  0.00    +0.000 C 
BRANCH   7  10
ATOM      8  C   UNL     1      53.524   8.364  10.548  0.00  0.00    +0.000 C 
ATOM      9  O   UNL     1      54.043   9.460  10.335  0.00  0.00    +0.000 OA
ATOM     10  N   UNL     1      52.209   8.237  10.922  0.00  0.00    +0.000 N 
ATOM     11  H   UNL     1      51.774   7.326  10.997  0.00  0.00    +0.000 HD
BRANCH   8  15
ATOM     12  C   UNL     1      53.640   6.365   8.203  0.00  0.00    +0.000 C 
ATOM     13  C   UNL     1      55.107   6.791   8.110  0.00  0.00    +0.000 C 
ATOM     14  C   UNL     1      55.531   7.201   9.525  0.00  0.00    +0.000 C 
ATOM     15  C   UNL     1      54.287   7.051  10.405  0.00  0.00    +0.000 C 
ATOM     16  C   UNL     1      53.452   5.996   9.672  0.00  0.00    +0.000 C 
BRANCH  12  18
ATOM     17  N   UNL     1      53.090   4.238   6.498  0.00  0.00    +0.000 NA
ATOM     18  C   UNL     1      53.339   5.203   7.271  0.00  0.00    +0.000 C 
ENDBRANCH  12  18
ENDBRANCH   8  15
ENDBRANCH   7  10
ENDBRANCH   1   7
BRANCH   4  19
ATOM     19  C   UNL     1      45.979   8.097  12.855  0.00  0.00    +0.000 C 
BRANCH  19  20
ATOM     20  N   UNL     1      45.605   6.753  12.494  0.00  0.00    +0.000 N 
ATOM     21  C   UNL     1      44.529   6.484  11.680  0.00  0.00    +0.000 C 
ATOM     22  O   UNL     1      43.828   7.371  11.197  0.00  0.00    +0.000 OA
ATOM     23  H   UNL     1      45.909   6.020  13.127  0.00  0.00    +0.000 HD
BRANCH  21  24
ATOM     24  C   UNL     1      44.305   5.069  11.379  0.00  0.00    +0.000 A 
ATOM     25  C   UNL     1      43.540   4.279  12.228  0.00  0.00    +0.000 A 
ATOM     26  S   UNL     1      43.365   2.670  11.684  0.00  0.00    +0.000 S 
ATOM     27  C   UNL     1      44.343   2.964  10.320  0.00  0.00    +0.000 A 
ATOM     28  N   UNL     1      44.632   1.973   9.435  0.00  0.00    +0.000 NA
ATOM     29  C   UNL     1      45.403   2.331   8.463  0.00  0.00    +0.000 A 
ATOM     30  N   UNL     1      45.901   3.598   8.288  0.00  0.00    +0.000 N 
ATOM     31  C   UNL     1      45.600   4.637   9.129  0.00  0.00    +0.000 A 
ATOM     32  O   UNL     1      45.997   5.773   8.898  0.00  0.00    +0.000 OA
ATOM     33  C   UNL     1      44.765   4.278  10.263  0.00  0.00    +0.000 A 
ATOM     34  H   UNL     1      46.481   3.822   7.492  0.00  0.00    +0.000 HD
ENDBRANCH  21  24
ENDBRANCH  19  20
ENDBRANCH   4  19
TORSDOF 7
ENDMDL
MODEL 5
REMARK VINA RESULT:    -6.632      6.002      8.654
REMARK INTER + INTRA:         -10.291
REMARK INTER:                  -9.303
REMARK INTRA:                  -0.988
REMARK UNBOUND:                -0.945
REMARK  Name = 
REMARK  7 active torsions:
REMARK  status: ('A' for Active; 'I' for Inactive)
REMARK    1  A    between atoms: C_2  and  C_3
REMARK    2  A    between atoms: C_6  and  C_7
REMARK    3  A    between atoms: N_9  and  C_10
REMARK    4  A    between atoms: C_10  and  C_11
REMARK    5  A    between atoms: C_14  and  C_15
REMARK    6  A    between atoms: C_15  and  N_16
REMARK    7  A    between atoms: C_17  and  C_19
REMARK                            x       y       z     vdW  Elec       q    Type
REMARK                         _______ _______ _______ _____ _____    ______ ____
ROOT
ATOM      1  C   UNL     1      48.785   7.028  13.600  0.00  0.00    +0.000 A 
ATOM      2  C   UNL     1      48.719   7.232  12.216  0.00  0.00    +0.000 A 
ATOM      3  C   UNL     1      49.689   7.998  11.558  0.00  0.00    +0.000 A 
ATOM      4  C   UNL     1      50.757   8.565  12.269  0.00  0.00    +0.000 A 
ATOM      5  C   UNL     1      50.815   8.362  13.655  0.00  0.00    +0.000 A 
ATOM      6  C   UNL     1      49.850   7.590  14.312  0.00  0.00    +0.000 A 
ENDROOT
BRANCH   1   7
ATOM      7  C   UNL     1      47.735   6.214  14.301  0.00  0.00    +0.000 C 
BRANCH   7  10
ATOM      8  C   UNL     1      45.682   5.107  13.601  0.00  0.00    +0.000 C 
ATOM      9  O   UNL     1      46.004   4.076  14.192  0.00  0.00    +0.000 OA
ATOM     10  N   UNL     1      46.478   6.226  13.594  0.00  0.00    +0.000 N 
ATOM     11  H   UNL     1      46.244   7.029  13.024  0.00  0.00    +0.000 HD
BRANCH   8  15
ATOM     12  C   UNL     1      44.905   4.001  10.830  0.00  0.00    +0.000 C 
ATOM     13  C   UNL     1      43.907   3.149  11.617  0.00  0.00    +0.000 C 
ATOM     14  C   UNL     1      43.548   3.949  12.873  0.00  0.00    +0.000 C 
ATOM     15  C   UNL     1      44.380   5.233  12.816  0.00  0.00    +0.000 C 
ATOM     16  C   UNL     1      44.646   5.423  11.319  0.00  0.00    +0.000 C 
BRANCH  12  18
ATOM     17  N   UNL     1      44.525   3.740   8.087  0.00  0.00    +0.000 NA
ATOM     18  C   UNL     1      44.696   3.859   9.330  0.00  0.00    +0.000 C 
ENDBRANCH  12  18
ENDBRANCH   8  15
ENDBRANCH   7  10
ENDBRANCH   1   7
BRANCH   4  19
ATOM     19  C   UNL     1      51.840   9.371  11.585  0.00  0.00    +0.000 C 
BRANCH  19  20
ATOM     20  N   UNL     1      52.105   8.917  10.243  0.00  0.00    +0.000 N 
ATOM     21  C   UNL     1      53.369   8.580   9.819  0.00  0.00    +0.000 C 
ATOM     22  O   UNL     1      54.350   8.628  10.558  0.00  0.00    +0.000 OA
ATOM     23  H   UNL     1      51.433   9.197   9.537  0.00  0.00    +0.000 HD
BRANCH  21  24
ATOM     24  C   UNL     1      53.465   8.102   8.438  0.00  0.00    +0.000 A 
ATOM     25  C   UNL     1      53.397   8.995   7.376  0.00  0.00    +0.000 A 
ATOM     26  S   UNL     1      53.565   8.248   5.850  0.00  0.00    +0.000 S 
ATOM     27  C   UNL     1      53.687   6.702   6.555  0.00  0.00    +0.000 A 
ATOM     28  N   UNL     1      53.815   5.586   5.788  0.00  0.00    +0.000 NA
ATOM     29  C   UNL     1      53.871   4.482   6.454  0.00  0.00    +0.000 A 
ATOM     30  N   UNL     1      53.825   4.393   7.823  0.00  0.00    +0.000 N 
ATOM     31  C   UNL     1      53.742   5.493   8.636  0.00  0.00    +0.000 A 
ATOM     32  O   UNL     1      53.784   5.381   9.856  0.00  0.00    +0.000 OA
ATOM     33  C   UNL     1      53.637   6.760   7.934  0.00  0.00    +0.000 A 
ATOM     34  H   UNL     1      53.900   3.499   8.288  0.00  0.00    +0.000 HD
ENDBRANCH  21  24
ENDBRANCH  19  20
ENDBRANCH   4  19
TORSDOF 7
ENDMDL
MODEL 6
REMARK VINA RESULT:    -6.496      6.504     10.281
REMARK INTER + INTRA:         -10.100
REMARK INTER:                  -9.217
REMARK INTRA:                  -0.883
REMARK UNBOUND:                -0.945
REMARK  Name = 
REMARK  7 active torsions:
REMARK  status: ('A' for Active; 'I' for Inactive)
REMARK    1  A    between atoms: C_2  and  C_3
REMARK    2  A    between atoms: C_6  and  C_7
REMARK    3  A    between atoms: N_9  and  C_10
REMARK    4  A    between atoms: C_10  and  C_11
REMARK    5  A    between atoms: C_14  and  C_15
REMARK    6  A    between atoms: C_15  and  N_16
REMARK    7  A    between atoms: C_17  and  C_19
REMARK                            x       y       z     vdW  Elec       q    Type
REMARK                         _______ _______ _______ _____ _____    ______ ____
ROOT
ATOM      1  C   UNL     1      51.868   1.781  17.406  0.00  0.00    +0.000 A 
ATOM      2  C   UNL     1      52.257   3.017  17.936  0.00  0.00    +0.000 A 
ATOM      3  C   UNL     1      51.322   4.045  18.113  0.00  0.00    +0.000 A 
ATOM      4  C   UNL     1      49.974   3.853  17.778  0.00  0.00    +0.000 A 
ATOM      5  C   UNL     1      49.592   2.614  17.243  0.00  0.00    +0.000 A 
ATOM      6  C   UNL     1      50.523   1.584  17.073  0.00  0.00    +0.000 A 
ENDROOT
BRANCH   1   7
ATOM      7  C   UNL     1      52.877   0.685  17.208  0.00  0.00    +0.000 C 
BRANCH   7  10
ATOM      8  C   UNL     1      54.070  -0.998  18.503  0.00  0.00    +0.000 C 
ATOM      9  O   UNL     1      54.968  -1.048  17.662  0.00  0.00    +0.000 OA
ATOM     10  N   UNL     1      52.985  -0.168  18.366  0.00  0.00    +0.000 N 
ATOM     11  H   UNL     1      52.210  -0.212  19.017  0.00  0.00    +0.000 HD
BRANCH   8  15
ATOM     12  C   UNL     1      53.327  -3.964  18.900  0.00  0.00    +0.000 C 
ATOM     13  C   UNL     1      54.811  -4.135  19.233  0.00  0.00    +0.000 C 
ATOM     14  C   UNL     1      55.283  -2.797  19.814  0.00  0.00    +0.000 C 
ATOM     15  C   UNL     1      54.075  -1.858  19.762  0.00  0.00    +0.000 C 
ATOM     16  C   UNL     1      52.876  -2.812  19.793  0.00  0.00    +0.000 C 
BRANCH  12  18
ATOM     17  N   UNL     1      51.901  -6.302  19.386  0.00  0.00    +0.000 NA
ATOM     18  C   UNL     1      52.547  -5.242  19.166  0.00  0.00    +0.000 C 
ENDBRANCH  12  18
ENDBRANCH   8  15
ENDBRANCH   7  10
ENDBRANCH   1   7
BRANCH   4  19
ATOM     19  C   UNL     1      48.932   4.931  17.986  0.00  0.00    +0.000 C 
BRANCH  19  20
ATOM     20  N   UNL     1      48.213   5.248  16.778  0.00  0.00    +0.000 N 
ATOM     21  C   UNL     1      48.787   5.958  15.748  0.00  0.00    +0.000 C 
ATOM     22  O   UNL     1      49.951   6.352  15.784  0.00  0.00    +0.000 OA
ATOM     23  H   UNL     1      47.202   5.265  16.852  0.00  0.00    +0.000 HD
BRANCH  21  24
ATOM     24  C   UNL     1      47.935   6.165  14.575  0.00  0.00    +0.000 A 
ATOM     25  C   UNL     1      47.795   7.431  14.020  0.00  0.00    +0.000 A 
ATOM     26  S   UNL     1      46.793   7.459  12.638  0.00  0.00    +0.000 S 
ATOM     27  C   UNL     1      46.476   5.789  12.763  0.00  0.00    +0.000 A 
ATOM     28  N   UNL     1      45.642   5.164  11.890  0.00  0.00    +0.000 NA
ATOM     29  C   UNL     1      45.474   3.904  12.118  0.00  0.00    +0.000 A 
ATOM     30  N   UNL     1      46.078   3.208  13.135  0.00  0.00    +0.000 N 
ATOM     31  C   UNL     1      46.959   3.788  14.010  0.00  0.00    +0.000 A 
ATOM     32  O   UNL     1      47.541   3.119  14.857  0.00  0.00    +0.000 OA
ATOM     33  C   UNL     1      47.154   5.215  13.821  0.00  0.00    +0.000 A 
ATOM     34  H   UNL     1      45.926   2.216  13.247  0.00  0.00    +0.000 HD
ENDBRANCH  21  24
ENDBRANCH  19  20
ENDBRANCH   4  19
TORSDOF 7
ENDMDL
MODEL 7
REMARK VINA RESULT:    -6.397      4.317      9.221
REMARK INTER + INTRA:          -9.960
REMARK INTER:                  -8.626
REMARK INTRA:                  -1.334
REMARK UNBOUND:                -0.945
REMARK  Name = 
REMARK  7 active torsions:
REMARK  status: ('A' for Active; 'I' for Inactive)
REMARK    1  A    between atoms: C_2  and  C_3
REMARK    2  A    between atoms: C_6  and  C_7
REMARK    3  A    between atoms: N_9  and  C_10
REMARK    4  A    between atoms: C_10  and  C_11
REMARK    5  A    between atoms: C_14  and  C_15
REMARK    6  A    between atoms: C_15  and  N_16
REMARK    7  A    between atoms: C_17  and  C_19
REMARK                            x       y       z     vdW  Elec       q    Type
REMARK                         _______ _______ _______ _____ _____    ______ ____
ROOT
ATOM      1  C   UNL     1      51.091   4.528  18.182  0.00  0.00    +0.000 A 
ATOM      2  C   UNL     1      50.075   5.490  18.130  0.00  0.00    +0.000 A 
ATOM      3  C   UNL     1      48.809   5.167  17.624  0.00  0.00    +0.000 A 
ATOM      4  C   UNL     1      48.528   3.868  17.174  0.00  0.00    +0.000 A 
ATOM      5  C   UNL     1      49.552   2.911  17.225  0.00  0.00    +0.000 A 
ATOM      6  C   UNL     1      50.814   3.232  17.737  0.00  0.00    +0.000 A 
ENDROOT
BRANCH   1   7
ATOM      7  C   UNL     1      52.450   4.884  18.716  0.00  0.00    +0.000 C 
BRANCH   7  10
ATOM      8  C   UNL     1      53.375   6.664  17.335  0.00  0.00    +0.000 C 
ATOM      9  O   UNL     1      53.668   5.862  16.449  0.00  0.00    +0.000 OA
ATOM     10  N   UNL     1      52.768   6.276  18.504  0.00  0.00    +0.000 N 
ATOM     11  H   UNL     1      52.624   6.933  19.260  0.00  0.00    +0.000 HD
BRANCH   8  15
ATOM     12  C   UNL     1      51.753   8.927  16.009  0.00  0.00    +0.000 C 
ATOM     13  C   UNL     1      51.598   9.449  17.439  0.00  0.00    +0.000 C 
ATOM     14  C   UNL     1      52.839   8.982  18.209  0.00  0.00    +0.000 C 
ATOM     15  C   UNL     1      53.669   8.156  17.223  0.00  0.00    +0.000 C 
ATOM     16  C   UNL     1      53.255   8.708  15.854  0.00  0.00    +0.000 C 
BRANCH  12  18
ATOM     17  N   UNL     1      50.752  10.740  14.152  0.00  0.00    +0.000 NA
ATOM     18  C   UNL     1      51.206   9.917  14.994  0.00  0.00    +0.000 C 
ENDBRANCH  12  18
ENDBRANCH   8  15
ENDBRANCH   7  10
ENDBRANCH   1   7
BRANCH   4  19
ATOM     19  C   UNL     1      47.163   3.476  16.652  0.00  0.00    +0.000 C 
BRANCH  19  20
ATOM     20  N   UNL     1      46.641   4.423  15.698  0.00  0.00    +0.000 N 
ATOM     21  C   UNL     1      46.723   4.217  14.341  0.00  0.00    +0.000 C 
ATOM     22  O   UNL     1      47.229   3.209  13.854  0.00  0.00    +0.000 OA
ATOM     23  H   UNL     1      46.554   5.380  16.023  0.00  0.00    +0.000 HD
BRANCH  21  24
ATOM     24  C   UNL     1      46.113   5.256  13.508  0.00  0.00    +0.000 A 
ATOM     25  C   UNL     1      46.775   6.455  13.278  0.00  0.00    +0.000 A 
ATOM     26  S   UNL     1      45.918   7.519  12.254  0.00  0.00    +0.000 S 
ATOM     27  C   UNL     1      44.613   6.431  12.121  0.00  0.00    +0.000 A 
ATOM     28  N   UNL     1      43.504   6.746  11.399  0.00  0.00    +0.000 NA
ATOM     29  C   UNL     1      42.585   5.840  11.406  0.00  0.00    +0.000 A 
ATOM     30  N   UNL     1      42.679   4.637  12.061  0.00  0.00    +0.000 N 
ATOM     31  C   UNL     1      43.794   4.260  12.763  0.00  0.00    +0.000 A 
ATOM     32  O   UNL     1      43.876   3.145  13.268  0.00  0.00    +0.000 OA
ATOM     33  C   UNL     1      44.845   5.261  12.818  0.00  0.00    +0.000 A 
ATOM     34  H   UNL     1      41.934   3.957  12.008  0.00  0.00    +0.000 HD
ENDBRANCH  21  24
ENDBRANCH  19  20
ENDBRANCH   4  19
TORSDOF 7
ENDMDL
MODEL 8
REMARK VINA RESULT:    -6.352      5.935      8.477
REMARK INTER + INTRA:          -9.897
REMARK INTER:                  -8.669
REMARK INTRA:                  -1.228
REMARK UNBOUND:                -0.945
REMARK  Name = 
REMARK  7 active torsions:
REMARK  status: ('A' for Active; 'I' for Inactive)
REMARK    1  A    between atoms: C_2  and  C_3
REMARK    2  A    between atoms: C_6  and  C_7
REMARK    3  A    between atoms: N_9  and  C_10
REMARK    4  A    between atoms: C_10  and  C_11
REMARK    5  A    between atoms: C_14  and  C_15
REMARK    6  A    between atoms: C_15  and  N_16
REMARK    7  A    between atoms: C_17  and  C_19
REMARK                            x       y       z     vdW  Elec       q    Type
REMARK                         _______ _______ _______ _____ _____    ______ ____
ROOT
ATOM      1  C   UNL     1      50.683   9.702  11.369  0.00  0.00    +0.000 A 
ATOM      2  C   UNL     1      49.714  10.226  12.233  0.00  0.00    +0.000 A 
ATOM      3  C   UNL     1      48.836   9.380  12.922  0.00  0.00    +0.000 A 
ATOM      4  C   UNL     1      48.920   7.987  12.774  0.00  0.00    +0.000 A 
ATOM      5  C   UNL     1      49.889   7.469  11.903  0.00  0.00    +0.000 A 
ATOM      6  C   UNL     1      50.771   8.314  11.220  0.00  0.00    +0.000 A 
ENDROOT
BRANCH   1   7
ATOM      7  C   UNL     1      51.614  10.616  10.624  0.00  0.00    +0.000 C 
BRANCH   7  10
ATOM      8  C   UNL     1      52.881  10.149   8.597  0.00  0.00    +0.000 C 
ATOM      9  O   UNL     1      52.237  10.988   7.968  0.00  0.00    +0.000 OA
ATOM     10  N   UNL     1      52.644   9.887   9.924  0.00  0.00    +0.000 N 
ATOM     11  H   UNL     1      53.115   9.127  10.398  0.00  0.00    +0.000 HD
BRANCH   8  15
ATOM     12  C   UNL     1      52.773   7.374   7.255  0.00  0.00    +0.000 C 
ATOM     13  C   UNL     1      53.137   8.143   5.983  0.00  0.00    +0.000 C 
ATOM     14  C   UNL     1      53.941   9.369   6.431  0.00  0.00    +0.000 C 
ATOM     15  C   UNL     1      53.988   9.315   7.960  0.00  0.00    +0.000 C 
ATOM     16  C   UNL     1      53.817   7.824   8.273  0.00  0.00    +0.000 C 
BRANCH  12  18
ATOM     17  N   UNL     1      52.824   4.625   6.833  0.00  0.00    +0.000 NA
ATOM     18  C   UNL     1      52.800   5.872   7.024  0.00  0.00    +0.000 C 
ENDBRANCH  12  18
ENDBRANCH   8  15
ENDBRANCH   7  10
ENDBRANCH   1   7
BRANCH   4  19
ATOM     19  C   UNL     1      48.009   7.042  13.528  0.00  0.00    +0.000 C 
BRANCH  19  20
ATOM     20  N   UNL     1      47.300   6.141  12.654  0.00  0.00    +0.000 N 
ATOM     21  C   UNL     1      46.274   6.562  11.842  0.00  0.00    +0.000 C 
ATOM     22  O   UNL     1      45.905   7.734  11.796  0.00  0.00    +0.000 OA
ATOM     23  H   UNL     1      47.320   5.160  12.915  0.00  0.00    +0.000 HD
BRANCH  21  24
ATOM     24  C   UNL     1      45.681   5.530  10.988  0.00  0.00    +0.000 A 
ATOM     25  C   UNL     1      45.806   5.601   9.606  0.00  0.00    +0.000 A 
ATOM     26  S   UNL     1      45.080   4.287   8.792  0.00  0.00    +0.000 S 
ATOM     27  C   UNL     1      44.536   3.606  10.255  0.00  0.00    +0.000 A 
ATOM     28  N   UNL     1      43.799   2.463  10.268  0.00  0.00    +0.000 NA
ATOM     29  C   UNL     1      43.433   2.075  11.444  0.00  0.00    +0.000 A 
ATOM     30  N   UNL     1      43.750   2.720  12.613  0.00  0.00    +0.000 N 
ATOM     31  C   UNL     1      44.526   3.849  12.650  0.00  0.00    +0.000 A 
ATOM     32  O   UNL     1      44.856   4.354  13.718  0.00  0.00    +0.000 OA
ATOM     33  C   UNL     1      44.933   4.350  11.349  0.00  0.00    +0.000 A 
ATOM     34  H   UNL     1      43.454   2.352  13.506  0.00  0.00    +0.000 HD
ENDBRANCH  21  24
ENDBRANCH  19  20
ENDBRANCH   4  19
TORSDOF 7
ENDMDL
MODEL 9
REMARK VINA RESULT:    -5.733      4.944      9.567
REMARK INTER + INTRA:          -9.025
REMARK INTER:                  -7.789
REMARK INTRA:                  -1.235
REMARK UNBOUND:                -0.945
REMARK  Name = 
REMARK  7 active torsions:
REMARK  status: ('A' for Active; 'I' for Inactive)
REMARK    1  A    between atoms: C_2  and  C_3
REMARK    2  A    between atoms: C_6  and  C_7
REMARK    3  A    between atoms: N_9  and  C_10
REMARK    4  A    between atoms: C_10  and  C_11
REMARK    5  A    between atoms: C_14  and  C_15
REMARK    6  A    between atoms: C_15  and  N_16
REMARK    7  A    between atoms: C_17  and  C_19
REMARK                            x       y       z     vdW  Elec       q    Type
REMARK                         _______ _______ _______ _____ _____    ______ ____
ROOT
ATOM      1  C   UNL     1      51.265   5.259  19.008  0.00  0.00    +0.000 A 
ATOM      2  C   UNL     1      51.077   5.238  17.621  0.00  0.00    +0.000 A 
ATOM      3  C   UNL     1      49.880   4.762  17.069  0.00  0.00    +0.000 A 
ATOM      4  C   UNL     1      48.839   4.312  17.894  0.00  0.00    +0.000 A 
ATOM      5  C   UNL     1      49.037   4.331  19.282  0.00  0.00    +0.000 A 
ATOM      6  C   UNL     1      50.228   4.813  19.835  0.00  0.00    +0.000 A 
ENDROOT
BRANCH   1   7
ATOM      7  C   UNL     1      52.555   5.760  19.594  0.00  0.00    +0.000 C 
BRANCH   7  10
ATOM      8  C   UNL     1      54.078   3.887  19.918  0.00  0.00    +0.000 C 
ATOM      9  O   UNL     1      53.499   3.560  20.954  0.00  0.00    +0.000 OA
ATOM     10  N   UNL     1      53.686   4.969  19.170  0.00  0.00    +0.000 N 
ATOM     11  H   UNL     1      54.232   5.281  18.377  0.00  0.00    +0.000 HD
BRANCH   8  15
ATOM     12  C   UNL     1      54.254   1.166  18.477  0.00  0.00    +0.000 C 
ATOM     13  C   UNL     1      54.715   2.000  17.280  0.00  0.00    +0.000 C 
ATOM     14  C   UNL     1      55.404   3.243  17.856  0.00  0.00    +0.000 C 
ATOM     15  C   UNL     1      55.287   3.131  19.378  0.00  0.00    +0.000 C 
ATOM     16  C   UNL     1      55.158   1.623  19.619  0.00  0.00    +0.000 C 
BRANCH  12  18
ATOM     17  N   UNL     1      54.486  -1.558  17.967  0.00  0.00    +0.000 NA
ATOM     18  C   UNL     1      54.381  -0.323  18.199  0.00  0.00    +0.000 C 
ENDBRANCH  12  18
ENDBRANCH   8  15
ENDBRANCH   7  10
ENDBRANCH   1   7
BRANCH   4  19
ATOM     19  C   UNL     1      47.522   3.823  17.332  0.00  0.00    +0.000 C 
BRANCH  19  20
ATOM     20  N   UNL     1      47.052   4.633  16.235  0.00  0.00    +0.000 N 
ATOM     21  C   UNL     1      47.087   4.193  14.933  0.00  0.00    +0.000 C 
ATOM     22  O   UNL     1      47.503   3.079  14.621  0.00  0.00    +0.000 OA
ATOM     23  H   UNL     1      47.046   5.635  16.392  0.00  0.00    +0.000 HD
BRANCH  21  24
ATOM     24  C   UNL     1      46.539   5.120  13.940  0.00  0.00    +0.000 A 
ATOM     25  C   UNL     1      45.300   4.881  13.359  0.00  0.00    +0.000 A 
ATOM     26  S   UNL     1      44.822   6.094  12.257  0.00  0.00    +0.000 S 
ATOM     27  C   UNL     1      46.275   6.955  12.485  0.00  0.00    +0.000 A 
ATOM     28  N   UNL     1      46.531   8.099  11.796  0.00  0.00    +0.000 NA
ATOM     29  C   UNL     1      47.679   8.632  12.049  0.00  0.00    +0.000 A 
ATOM     30  N   UNL     1      48.593   8.129  12.941  0.00  0.00    +0.000 N 
ATOM     31  C   UNL     1      48.359   7.004  13.689  0.00  0.00    +0.000 A 
ATOM     32  O   UNL     1      49.163   6.629  14.535  0.00  0.00    +0.000 OA
ATOM     33  C   UNL     1      47.094   6.344  13.414  0.00  0.00    +0.000 A 
ATOM     34  H   UNL     1      49.466   8.606  13.115  0.00  0.00    +0.000 HD
ENDBRANCH  21  24
ENDBRANCH  19  20
ENDBRANCH   4  19
TORSDOF 7
ENDMDL
