MODEL 1
REMARK VINA RESULT:    -7.735      0.000      0.000
REMARK INTER + INTRA:         -10.043
REMARK INTER:                  -9.543
REMARK INTRA:                  -0.499
REMARK UNBOUND:                -0.499
REMARK  Name = 
REMARK  5 active torsions:
REMARK  status: ('A' for Active; 'I' for Inactive)
REMARK    1  A    between atoms: C_1  and  C_2
REMARK    2  A    between atoms: C_4  and  C_5
REMARK    3  A    between atoms: C_10  and  O_11
REMARK    4  A    between atoms: O_11  and  C_12
REMARK    5  A    between atoms: C_12  and  C_13
REMARK                            x       y       z     vdW  Elec       q    Type
REMARK                         _______ _______ _______ _____ _____    ______ ____
ROOT
ATOM      1  C   UNL     1      46.740   3.721  13.444  0.00  0.00    +0.000 C 
ATOM      2  C   UNL     1      45.992   4.818  12.737  0.00  0.00    +0.000 A 
ATOM      3  C   UNL     1      46.196   6.151  13.142  0.00  0.00    +0.000 A 
ATOM      4  C   UNL     1      45.538   7.216  12.508  0.00  0.00    +0.000 A 
ATOM      5  C   UNL     1      44.699   6.944  11.430  0.00  0.00    +0.000 A 
ATOM      6  C   UNL     1      44.497   5.627  11.017  0.00  0.00    +0.000 A 
ATOM      7  C   UNL     1      45.097   4.553  11.688  0.00  0.00    +0.000 A 
ENDROOT
BRANCH   4   8
ATOM      8  C   UNL     1      45.771   8.600  13.020  0.00  0.00    +0.000 C 
ATOM      9  N   UNL     1      44.817   9.549  12.803  0.00  0.00    +0.000 N 
ATOM     10  O   UNL     1      46.790   8.886  13.635  0.00  0.00    +0.000 OA
ATOM     11  H   UNL     1      43.941   9.406  12.331  0.00  0.00    +0.000 HD
ATOM     12  H   UNL     1      45.004  10.468  13.179  0.00  0.00    +0.000 HD
ENDBRANCH   4   8
BRANCH   7  13
ATOM     13  O   UNL     1      44.841   3.236  11.380  0.00  0.00    +0.000 OA
BRANCH  13  14
ATOM     14  C   UNL     1      44.192   3.041  10.116  0.00  0.00    +0.000 C 
BRANCH  14  15
ATOM     15  C   UNL     1      45.135   2.873   8.946  0.00  0.00    +0.000 A 
ATOM     16  C   UNL     1      45.466   3.920   8.079  0.00  0.00    +0.000 A 
ATOM     17  C   UNL     1      46.366   3.708   7.031  0.00  0.00    +0.000 A 
ATOM     18  C   UNL     1      46.935   2.449   6.841  0.00  0.00    +0.000 A 
ATOM     19 CL   UNL     1      48.055   2.197   5.560  0.00  0.00    +0.000 Cl
ATOM     20  C   UNL     1      46.605   1.393   7.685  0.00  0.00    +0.000 A 
ATOM     21  C   UNL     1      45.707   1.605   8.731  0.00  0.00    +0.000 A 
ENDBRANCH  14  15
ENDBRANCH  13  14
ENDBRANCH   7  13
TORSDOF 4
ENDMDL
MODEL 2
REMARK VINA RESULT:    -7.561      3.997      6.751
REMARK INTER + INTRA:          -9.828
REMARK INTER:                  -9.094
REMARK INTRA:                  -0.734
REMARK UNBOUND:                -0.499
REMARK  Name = 
REMARK  5 active torsions:
REMARK  status: ('A' for Active; 'I' for Inactive)
REMARK    1  A    between atoms: C_1  and  C_2
REMARK    2  A    between atoms: C_4  and  C_5
REMARK    3  A    between atoms: C_10  and  O_11
REMARK    4  A    between atoms: O_11  and  C_12
REMARK    5  A    between atoms: C_12  and  C_13
REMARK                            x       y       z     vdW  Elec       q    Type
REMARK                         _______ _______ _______ _____ _____    ______ ____
ROOT
ATOM      1  C   UNL     1      43.803   2.496  10.764  0.00  0.00    +0.000 C 
ATOM      2  C   UNL     1      44.775   2.869   9.678  0.00  0.00    +0.000 A 
ATOM      3  C   UNL     1      45.435   1.842   8.974  0.00  0.00    +0.000 A 
ATOM      4  C   UNL     1      46.339   2.129   7.940  0.00  0.00    +0.000 A 
ATOM      5  C   UNL     1      46.553   3.459   7.581  0.00  0.00    +0.000 A 
ATOM      6  C   UNL     1      45.898   4.482   8.268  0.00  0.00    +0.000 A 
ATOM      7  C   UNL     1      45.046   4.206   9.346  0.00  0.00    +0.000 A 
ENDROOT
BRANCH   4   8
ATOM      8  C   UNL     1      47.033   0.991   7.266  0.00  0.00    +0.000 C 
ATOM      9  N   UNL     1      46.721  -0.282   7.642  0.00  0.00    +0.000 N 
ATOM     10  O   UNL     1      47.857   1.184   6.384  0.00  0.00    +0.000 OA
ATOM     11  H   UNL     1      46.043  -0.542   8.337  0.00  0.00    +0.000 HD
ATOM     12  H   UNL     1      47.199  -1.025   7.152  0.00  0.00    +0.000 HD
ENDBRANCH   4   8
BRANCH   7  13
ATOM     13  O   UNL     1      44.465   5.188  10.115  0.00  0.00    +0.000 OA
BRANCH  13  14
ATOM     14  C   UNL     1      45.374   6.205  10.561  0.00  0.00    +0.000 C 
BRANCH  14  15
ATOM     15  C   UNL     1      46.059   5.901  11.874  0.00  0.00    +0.000 A 
ATOM     16  C   UNL     1      47.273   6.487  12.251  0.00  0.00    +0.000 A 
ATOM     17  C   UNL     1      47.844   6.185  13.491  0.00  0.00    +0.000 A 
ATOM     18  C   UNL     1      47.209   5.296  14.356  0.00  0.00    +0.000 A 
ATOM     19 CL   UNL     1      47.906   4.941  15.888  0.00  0.00    +0.000 Cl
ATOM     20  C   UNL     1      46.008   4.694  13.990  0.00  0.00    +0.000 A 
ATOM     21  C   UNL     1      45.439   4.994  12.753  0.00  0.00    +0.000 A 
ENDBRANCH  14  15
ENDBRANCH  13  14
ENDBRANCH   7  13
TORSDOF 4
ENDMDL
MODEL 3
REMARK VINA RESULT:    -7.517      1.832      2.782
REMARK INTER + INTRA:          -9.774
REMARK INTER:                  -9.173
REMARK INTRA:                  -0.601
REMARK UNBOUND:                -0.499
REMARK  Name = 
REMARK  5 active torsions:
REMARK  status: ('A' for Active; 'I' for Inactive)
REMARK    1  A    between atoms: C_1  and  C_2
REMARK    2  A    between atoms: C_4  and  C_5
REMARK    3  A    between atoms: C_10  and  O_11
REMARK    4  A    between atoms: O_11  and  C_12
REMARK    5  A    between atoms: C_12  and  C_13
REMARK                            x       y       z     vdW  Elec       q    Type
REMARK                         _______ _______ _______ _____ _____    ______ ____
ROOT
ATOM      1  C   UNL     1      44.316   6.669  11.134  0.00  0.00    +0.000 C 
ATOM      2  C   UNL     1      45.053   5.581  11.867  0.00  0.00    +0.000 A 
ATOM      3  C   UNL     1      45.936   5.938  12.904  0.00  0.00    +0.000 A 
ATOM      4  C   UNL     1      46.638   4.966  13.633  0.00  0.00    +0.000 A 
ATOM      5  C   UNL     1      46.420   3.620  13.345  0.00  0.00    +0.000 A 
ATOM      6  C   UNL     1      45.542   3.257  12.324  0.00  0.00    +0.000 A 
ATOM      7  C   UNL     1      44.890   4.224  11.547  0.00  0.00    +0.000 A 
ENDROOT
BRANCH   4   8
ATOM      8  C   UNL     1      47.589   5.421  14.692  0.00  0.00    +0.000 C 
ATOM      9  N   UNL     1      47.409   4.980  15.969  0.00  0.00    +0.000 N 
ATOM     10  O   UNL     1      48.524   6.164  14.426  0.00  0.00    +0.000 OA
ATOM     11  H   UNL     1      46.688   4.353  16.279  0.00  0.00    +0.000 HD
ATOM     12  H   UNL     1      48.083   5.297  16.653  0.00  0.00    +0.000 HD
ENDBRANCH   4   8
BRANCH   7  13
ATOM     13  O   UNL     1      44.099   3.910  10.465  0.00  0.00    +0.000 OA
BRANCH  13  14
ATOM     14  C   UNL     1      44.298   2.586   9.952  0.00  0.00    +0.000 C 
BRANCH  14  15
ATOM     15  C   UNL     1      45.264   2.501   8.791  0.00  0.00    +0.000 A 
ATOM     16  C   UNL     1      45.941   1.326   8.450  0.00  0.00    +0.000 A 
ATOM     17  C   UNL     1      46.802   1.305   7.348  0.00  0.00    +0.000 A 
ATOM     18  C   UNL     1      46.992   2.458   6.587  0.00  0.00    +0.000 A 
ATOM     19 CL   UNL     1      48.039   2.422   5.222  0.00  0.00    +0.000 Cl
ATOM     20  C   UNL     1      46.337   3.638   6.922  0.00  0.00    +0.000 A 
ATOM     21  C   UNL     1      45.479   3.660   8.022  0.00  0.00    +0.000 A 
ENDBRANCH  14  15
ENDBRANCH  13  14
ENDBRANCH   7  13
TORSDOF 4
ENDMDL
MODEL 4
REMARK VINA RESULT:    -7.400      1.798      2.508
REMARK INTER + INTRA:          -9.630
REMARK INTER:                  -9.015
REMARK INTRA:                  -0.614
REMARK UNBOUND:                -0.499
REMARK  Name = 
REMARK  5 active torsions:
REMARK  status: ('A' for Active; 'I' for Inactive)
REMARK    1  A    between atoms: C_1  and  C_2
REMARK    2  A    between atoms: C_4  and  C_5
REMARK    3  A    between atoms: C_10  and  O_11
REMARK    4  A    between atoms: O_11  and  C_12
REMARK    5  A    between atoms: C_12  and  C_13
REMARK                            x       y       z     vdW  Elec       q    Type
REMARK                         _______ _______ _______ _____ _____    ______ ____
ROOT
ATOM      1  C   UNL     1      44.736   7.577  11.231  0.00  0.00    +0.000 C 
ATOM      2  C   UNL     1      45.369   6.459  12.015  0.00  0.00    +0.000 A 
ATOM      3  C   UNL     1      46.437   6.757  12.883  0.00  0.00    +0.000 A 
ATOM      4  C   UNL     1      47.055   5.759  13.651  0.00  0.00    +0.000 A 
ATOM      5  C   UNL     1      46.568   4.455  13.580  0.00  0.00    +0.000 A 
ATOM      6  C   UNL     1      45.504   4.153  12.729  0.00  0.00    +0.000 A 
ATOM      7  C   UNL     1      44.928   5.131  11.907  0.00  0.00    +0.000 A 
ENDROOT
BRANCH   4   8
ATOM      8  C   UNL     1      48.210   6.142  14.518  0.00  0.00    +0.000 C 
ATOM      9  N   UNL     1      48.112   5.950  15.864  0.00  0.00    +0.000 N 
ATOM     10  O   UNL     1      49.235   6.607  14.038  0.00  0.00    +0.000 OA
ATOM     11  H   UNL     1      47.325   5.555  16.347  0.00  0.00    +0.000 HD
ATOM     12  H   UNL     1      48.921   6.206  16.414  0.00  0.00    +0.000 HD
ENDBRANCH   4   8
BRANCH   7  13
ATOM     13  O   UNL     1      43.950   4.852  10.979  0.00  0.00    +0.000 OA
BRANCH  13  14
ATOM     14  C   UNL     1      43.956   3.499  10.503  0.00  0.00    +0.000 C 
BRANCH  14  15
ATOM     15  C   UNL     1      44.904   3.244   9.353  0.00  0.00    +0.000 A 
ATOM     16  C   UNL     1      45.412   4.268   8.545  0.00  0.00    +0.000 A 
ATOM     17  C   UNL     1      46.307   3.970   7.513  0.00  0.00    +0.000 A 
ATOM     18  C   UNL     1      46.694   2.651   7.281  0.00  0.00    +0.000 A 
ATOM     19 CL   UNL     1      47.809   2.291   6.021  0.00  0.00    +0.000 Cl
ATOM     20  C   UNL     1      46.187   1.620   8.066  0.00  0.00    +0.000 A 
ATOM     21  C   UNL     1      45.294   1.916   9.096  0.00  0.00    +0.000 A 
ENDBRANCH  14  15
ENDBRANCH  13  14
ENDBRANCH   7  13
TORSDOF 4
ENDMDL
MODEL 5
REMARK VINA RESULT:    -6.909      4.016      6.908
REMARK INTER + INTRA:          -9.024
REMARK INTER:                  -8.875
REMARK INTRA:                  -0.149
REMARK UNBOUND:                -0.499
REMARK  Name = 
REMARK  5 active torsions:
REMARK  status: ('A' for Active; 'I' for Inactive)
REMARK    1  A    between atoms: C_1  and  C_2
REMARK    2  A    between atoms: C_4  and  C_5
REMARK    3  A    between atoms: C_10  and  O_11
REMARK    4  A    between atoms: O_11  and  C_12
REMARK    5  A    between atoms: C_12  and  C_13
REMARK                            x       y       z     vdW  Elec       q    Type
REMARK                         _______ _______ _______ _____ _____    ______ ____
ROOT
ATOM      1  C   UNL     1      43.775   2.506  10.781  0.00  0.00    +0.000 C 
ATOM      2  C   UNL     1      44.757   2.903   9.713  0.00  0.00    +0.000 A 
ATOM      3  C   UNL     1      45.425   1.893   8.993  0.00  0.00    +0.000 A 
ATOM      4  C   UNL     1      46.339   2.204   7.975  0.00  0.00    +0.000 A 
ATOM      5  C   UNL     1      46.554   3.541   7.648  0.00  0.00    +0.000 A 
ATOM      6  C   UNL     1      45.891   4.548   8.351  0.00  0.00    +0.000 A 
ATOM      7  C   UNL     1      45.029   4.247   9.414  0.00  0.00    +0.000 A 
ENDROOT
BRANCH   4   8
ATOM      8  C   UNL     1      47.041   1.081   7.284  0.00  0.00    +0.000 C 
ATOM      9  N   UNL     1      46.741  -0.199   7.642  0.00  0.00    +0.000 N 
ATOM     10  O   UNL     1      47.863   1.294   6.403  0.00  0.00    +0.000 OA
ATOM     11  H   UNL     1      46.067  -0.475   8.334  0.00  0.00    +0.000 HD
ATOM     12  H   UNL     1      47.224  -0.931   7.139  0.00  0.00    +0.000 HD
ENDBRANCH   4   8
BRANCH   7  13
ATOM     13  O   UNL     1      44.440   5.212  10.198  0.00  0.00    +0.000 OA
BRANCH  13  14
ATOM     14  C   UNL     1      44.942   5.272  11.540  0.00  0.00    +0.000 C 
BRANCH  14  15
ATOM     15  C   UNL     1      45.756   6.508  11.850  0.00  0.00    +0.000 A 
ATOM     16  C   UNL     1      47.121   6.613  11.558  0.00  0.00    +0.000 A 
ATOM     17  C   UNL     1      47.812   7.794  11.845  0.00  0.00    +0.000 A 
ATOM     18  C   UNL     1      47.146   8.871  12.429  0.00  0.00    +0.000 A 
ATOM     19 CL   UNL     1      47.997  10.327  12.764  0.00  0.00    +0.000 Cl
ATOM     20  C   UNL     1      45.793   8.777  12.738  0.00  0.00    +0.000 A 
ATOM     21  C   UNL     1      45.102   7.599  12.453  0.00  0.00    +0.000 A 
ENDBRANCH  14  15
ENDBRANCH  13  14
ENDBRANCH   7  13
TORSDOF 4
ENDMDL
MODEL 6
REMARK VINA RESULT:    -6.459      1.464      2.060
REMARK INTER + INTRA:          -8.469
REMARK INTER:                  -7.800
REMARK INTRA:                  -0.669
REMARK UNBOUND:                -0.499
REMARK  Name = 
REMARK  5 active torsions:
REMARK  status: ('A' for Active; 'I' for Inactive)
REMARK    1  A    between atoms: C_1  and  C_2
REMARK    2  A    between atoms: C_4  and  C_5
REMARK    3  A    between atoms: C_10  and  O_11
REMARK    4  A    between atoms: O_11  and  C_12
REMARK    5  A    between atoms: C_12  and  C_13
REMARK                            x       y       z     vdW  Elec       q    Type
REMARK                         _______ _______ _______ _____ _____    ______ ____
ROOT
ATOM      1  C   UNL     1      46.864   5.940  11.998  0.00  0.00    +0.000 C 
ATOM      2  C   UNL     1      45.555   6.631  11.731  0.00  0.00    +0.000 A 
ATOM      3  C   UNL     1      45.496   8.035  11.822  0.00  0.00    +0.000 A 
ATOM      4  C   UNL     1      44.308   8.736  11.567  0.00  0.00    +0.000 A 
ATOM      5  C   UNL     1      43.176   8.022  11.177  0.00  0.00    +0.000 A 
ATOM      6  C   UNL     1      43.227   6.631  11.077  0.00  0.00    +0.000 A 
ATOM      7  C   UNL     1      44.391   5.921  11.396  0.00  0.00    +0.000 A 
ENDROOT
BRANCH   4   8
ATOM      8  C   UNL     1      44.310  10.221  11.724  0.00  0.00    +0.000 C 
ATOM      9  N   UNL     1      43.141  10.850  12.031  0.00  0.00    +0.000 N 
ATOM     10  O   UNL     1      45.339  10.870  11.594  0.00  0.00    +0.000 OA
ATOM     11  H   UNL     1      42.253  10.403  12.181  0.00  0.00    +0.000 HD
ATOM     12  H   UNL     1      43.187  11.853  12.146  0.00  0.00    +0.000 HD
ENDBRANCH   4   8
BRANCH   7  13
ATOM     13  O   UNL     1      44.452   4.546  11.413  0.00  0.00    +0.000 OA
BRANCH  13  14
ATOM     14  C   UNL     1      43.889   3.915  10.254  0.00  0.00    +0.000 C 
BRANCH  14  15
ATOM     15  C   UNL     1      44.908   3.412   9.257  0.00  0.00    +0.000 A 
ATOM     16  C   UNL     1      45.219   2.056   9.107  0.00  0.00    +0.000 A 
ATOM     17  C   UNL     1      46.153   1.651   8.148  0.00  0.00    +0.000 A 
ATOM     18  C   UNL     1      46.782   2.597   7.340  0.00  0.00    +0.000 A 
ATOM     19 CL   UNL     1      47.916   2.093   6.150  0.00  0.00    +0.000 Cl
ATOM     20  C   UNL     1      46.494   3.951   7.487  0.00  0.00    +0.000 A 
ATOM     21  C   UNL     1      45.563   4.355   8.444  0.00  0.00    +0.000 A 
ENDBRANCH  14  15
ENDBRANCH  13  14
ENDBRANCH   7  13
TORSDOF 4
ENDMDL
MODEL 7
REMARK VINA RESULT:    -5.909      4.161      6.405
REMARK INTER + INTRA:          -7.790
REMARK INTER:                  -7.290
REMARK INTRA:                  -0.500
REMARK UNBOUND:                -0.499
REMARK  Name = 
REMARK  5 active torsions:
REMARK  status: ('A' for Active; 'I' for Inactive)
REMARK    1  A    between atoms: C_1  and  C_2
REMARK    2  A    between atoms: C_4  and  C_5
REMARK    3  A    between atoms: C_10  and  O_11
REMARK    4  A    between atoms: O_11  and  C_12
REMARK    5  A    between atoms: C_12  and  C_13
REMARK                            x       y       z     vdW  Elec       q    Type
REMARK                         _______ _______ _______ _____ _____    ______ ____
ROOT
ATOM      1  C   UNL     1      46.896   4.587  14.589  0.00  0.00    +0.000 C 
ATOM      2  C   UNL     1      46.340   4.811  13.209  0.00  0.00    +0.000 A 
ATOM      3  C   UNL     1      45.489   3.837  12.652  0.00  0.00    +0.000 A 
ATOM      4  C   UNL     1      44.928   4.000  11.376  0.00  0.00    +0.000 A 
ATOM      5  C   UNL     1      45.190   5.172  10.670  0.00  0.00    +0.000 A 
ATOM      6  C   UNL     1      46.025   6.146  11.217  0.00  0.00    +0.000 A 
ATOM      7  C   UNL     1      46.644   5.959  12.461  0.00  0.00    +0.000 A 
ENDROOT
BRANCH   4   8
ATOM      8  C   UNL     1      44.069   2.905  10.833  0.00  0.00    +0.000 C 
ATOM      9  N   UNL     1      44.521   2.185   9.768  0.00  0.00    +0.000 N 
ATOM     10  O   UNL     1      42.984   2.643  11.334  0.00  0.00    +0.000 OA
ATOM     11  H   UNL     1      45.404   2.309   9.304  0.00  0.00    +0.000 HD
ATOM     12  H   UNL     1      43.918   1.442   9.440  0.00  0.00    +0.000 HD
ENDBRANCH   4   8
BRANCH   7  13
ATOM     13  O   UNL     1      47.555   6.846  12.987  0.00  0.00    +0.000 OA
BRANCH  13  14
ATOM     14  C   UNL     1      47.516   8.154  12.398  0.00  0.00    +0.000 C 
BRANCH  14  15
ATOM     15  C   UNL     1      48.837   8.628  11.837  0.00  0.00    +0.000 A 
ATOM     16  C   UNL     1      49.089   9.965  11.512  0.00  0.00    +0.000 A 
ATOM     17  C   UNL     1      50.342  10.346  11.020  0.00  0.00    +0.000 A 
ATOM     18  C   UNL     1      51.344   9.393  10.847  0.00  0.00    +0.000 A 
ATOM     19 CL   UNL     1      52.889   9.868  10.259  0.00  0.00    +0.000 Cl
ATOM     20  C   UNL     1      51.105   8.056  11.152  0.00  0.00    +0.000 A 
ATOM     21  C   UNL     1      49.856   7.676  11.642  0.00  0.00    +0.000 A 
ENDBRANCH  14  15
ENDBRANCH  13  14
ENDBRANCH   7  13
TORSDOF 4
ENDMDL
MODEL 8
REMARK VINA RESULT:    -5.904      4.890      7.522
REMARK INTER + INTRA:          -7.783
REMARK INTER:                  -6.975
REMARK INTRA:                  -0.809
REMARK UNBOUND:                -0.499
REMARK  Name = 
REMARK  5 active torsions:
REMARK  status: ('A' for Active; 'I' for Inactive)
REMARK    1  A    between atoms: C_1  and  C_2
REMARK    2  A    between atoms: C_4  and  C_5
REMARK    3  A    between atoms: C_10  and  O_11
REMARK    4  A    between atoms: O_11  and  C_12
REMARK    5  A    between atoms: C_12  and  C_13
REMARK                            x       y       z     vdW  Elec       q    Type
REMARK                         _______ _______ _______ _____ _____    ______ ____
ROOT
ATOM      1  C   UNL     1      46.935   4.300  14.815  0.00  0.00    +0.000 C 
ATOM      2  C   UNL     1      46.424   4.998  13.585  0.00  0.00    +0.000 A 
ATOM      3  C   UNL     1      45.088   4.790  13.190  0.00  0.00    +0.000 A 
ATOM      4  C   UNL     1      44.551   5.428  12.061  0.00  0.00    +0.000 A 
ATOM      5  C   UNL     1      45.352   6.316  11.345  0.00  0.00    +0.000 A 
ATOM      6  C   UNL     1      46.674   6.534  11.734  0.00  0.00    +0.000 A 
ATOM      7  C   UNL     1      47.236   5.849  12.819  0.00  0.00    +0.000 A 
ENDROOT
BRANCH   4   8
ATOM      8  C   UNL     1      43.140   5.125  11.678  0.00  0.00    +0.000 C 
ATOM      9  N   UNL     1      42.218   6.129  11.727  0.00  0.00    +0.000 N 
ATOM     10  O   UNL     1      42.808   4.006  11.313  0.00  0.00    +0.000 OA
ATOM     11  H   UNL     1      42.398   7.082  11.990  0.00  0.00    +0.000 HD
ATOM     12  H   UNL     1      41.278   5.889  11.445  0.00  0.00    +0.000 HD
ENDBRANCH   4   8
BRANCH   7  13
ATOM     13  O   UNL     1      48.563   5.957  13.169  0.00  0.00    +0.000 OA
BRANCH  13  14
ATOM     14  C   UNL     1      48.996   7.296  13.443  0.00  0.00    +0.000 C 
BRANCH  14  15
ATOM     15  C   UNL     1      48.807   7.735  14.877  0.00  0.00    +0.000 A 
ATOM     16  C   UNL     1      48.259   8.974  15.228  0.00  0.00    +0.000 A 
ATOM     17  C   UNL     1      48.086   9.311  16.574  0.00  0.00    +0.000 A 
ATOM     18  C   UNL     1      48.463   8.415  17.574  0.00  0.00    +0.000 A 
ATOM     19 CL   UNL     1      48.232   8.827  19.227  0.00  0.00    +0.000 Cl
ATOM     20  C   UNL     1      49.024   7.186  17.242  0.00  0.00    +0.000 A 
ATOM     21  C   UNL     1      49.197   6.849  15.899  0.00  0.00    +0.000 A 
ENDBRANCH  14  15
ENDBRANCH  13  14
ENDBRANCH   7  13
TORSDOF 4
ENDMDL
MODEL 9
REMARK VINA RESULT:    -5.860      4.677      7.495
REMARK INTER + INTRA:          -7.730
REMARK INTER:                  -7.271
REMARK INTRA:                  -0.459
REMARK UNBOUND:                -0.499
REMARK  Name = 
REMARK  5 active torsions:
REMARK  status: ('A' for Active; 'I' for Inactive)
REMARK    1  A    between atoms: C_1  and  C_2
REMARK    2  A    between atoms: C_4  and  C_5
REMARK    3  A    between atoms: C_10  and  O_11
REMARK    4  A    between atoms: O_11  and  C_12
REMARK    5  A    between atoms: C_12  and  C_13
REMARK                            x       y       z     vdW  Elec       q    Type
REMARK                         _______ _______ _______ _____ _____    ______ ____
ROOT
ATOM      1  C   UNL     1      46.920   7.370  13.229  0.00  0.00    +0.000 C 
ATOM      2  C   UNL     1      46.456   5.949  13.065  0.00  0.00    +0.000 A 
ATOM      3  C   UNL     1      45.516   5.653  12.059  0.00  0.00    +0.000 A 
ATOM      4  C   UNL     1      45.059   4.343  11.847  0.00  0.00    +0.000 A 
ATOM      5  C   UNL     1      45.582   3.313  12.627  0.00  0.00    +0.000 A 
ATOM      6  C   UNL     1      46.519   3.596  13.621  0.00  0.00    +0.000 A 
ATOM      7  C   UNL     1      46.929   4.911  13.882  0.00  0.00    +0.000 A 
ENDROOT
BRANCH   4   8
ATOM      8  C   UNL     1      44.029   4.111  10.790  0.00  0.00    +0.000 C 
ATOM      9  N   UNL     1      43.785   5.101   9.885  0.00  0.00    +0.000 N 
ATOM     10  O   UNL     1      43.421   3.053  10.719  0.00  0.00    +0.000 OA
ATOM     11  H   UNL     1      44.247   5.992   9.847  0.00  0.00    +0.000 HD
ATOM     12  H   UNL     1      43.093   4.900   9.176  0.00  0.00    +0.000 HD
ENDBRANCH   4   8
BRANCH   7  13
ATOM     13  O   UNL     1      47.769   5.243  14.921  0.00  0.00    +0.000 OA
BRANCH  13  14
ATOM     14  C   UNL     1      47.629   4.415  16.083  0.00  0.00    +0.000 C 
BRANCH  14  15
ATOM     15  C   UNL     1      48.933   3.898  16.646  0.00  0.00    +0.000 A 
ATOM     16  C   UNL     1      49.912   4.738  17.191  0.00  0.00    +0.000 A 
ATOM     17  C   UNL     1      51.087   4.196  17.720  0.00  0.00    +0.000 A 
ATOM     18  C   UNL     1      51.292   2.817  17.703  0.00  0.00    +0.000 A 
ATOM     19 CL   UNL     1      52.732   2.154  18.371  0.00  0.00    +0.000 Cl
ATOM     20  C   UNL     1      50.335   1.970  17.152  0.00  0.00    +0.000 A 
ATOM     21  C   UNL     1      49.163   2.510  16.623  0.00  0.00    +0.000 A 
ENDBRANCH  14  15
ENDBRANCH  13  14
ENDBRANCH   7  13
TORSDOF 4
ENDMDL
