MODEL 1
REMARK VINA RESULT:    -8.093      0.000      0.000
REMARK INTER + INTRA:         -11.493
REMARK INTER:                 -10.932
REMARK INTRA:                  -0.561
REMARK UNBOUND:                -0.561
REMARK  Name = 
REMARK  7 active torsions:
REMARK  status: ('A' for Active; 'I' for Inactive)
REMARK    1  A    between atoms: N_1  and  C_2
REMARK    2  A    between atoms: C_2  and  C_3
REMARK    3  A    between atoms: C_7  and  C_8
REMARK    4  A    between atoms: C_8  and  C_9
REMARK    5  A    between atoms: C_9  and  N_10
REMARK    6  A    between atoms: C_14  and  C_15
REMARK    7  A    between atoms: C_15  and  O_17
REMARK                            x       y       z     vdW  Elec       q    Type
REMARK                         _______ _______ _______ _____ _____    ______ ____
ROOT
ATOM      1  C   UNL     1      43.125   4.238  11.096  0.00  0.00    +0.000 C 
ENDROOT
BRANCH   1   2
ATOM      2  N   UNL     1      43.873   4.822   9.975  0.00  0.00    +0.000 N 
ATOM      3  C   UNL     1      44.684   3.872   9.315  0.00  0.00    +0.000 A 
ATOM      4  C   UNL     1      45.461   4.287   8.239  0.00  0.00    +0.000 A 
ATOM      5  C   UNL     1      46.259   3.362   7.565  0.00  0.00    +0.000 A 
ATOM      6  C   UNL     1      46.241   2.052   8.003  0.00  0.00    +0.000 A 
ATOM      7  N   UNL     1      45.476   1.647   9.041  0.00  0.00    +0.000 NA
ATOM      8  N   UNL     1      44.691   2.568   9.685  0.00  0.00    +0.000 NA
ATOM      9  H   UNL     1      44.451   5.607  10.263  0.00  0.00    +0.000 HD
BRANCH   6  10
ATOM     10  C   UNL     1      47.070   1.000   7.362  0.00  0.00    +0.000 C 
ATOM     11  O   UNL     1      47.894   1.219   6.494  0.00  0.00    +0.000 OA
BRANCH  10  12
ATOM     12  O   UNL     1      46.806  -0.232   7.863  0.00  0.00    +0.000 OA
ATOM     13  H   UNL     1      47.583  -0.829   7.767  0.00  0.00    +0.000 HD
ENDBRANCH  10  12
ENDBRANCH   6  10
ENDBRANCH   1   2
BRANCH   1  14
ATOM     14  C   UNL     1      43.214   5.117  12.350  0.00  0.00    +0.000 C 
BRANCH  14  19
ATOM     15  C   UNL     1      46.481   6.951  13.111  0.00  0.00    +0.000 A 
ATOM     16  C   UNL     1      47.273   5.893  13.573  0.00  0.00    +0.000 A 
ATOM     17  C   UNL     1      46.779   4.588  13.591  0.00  0.00    +0.000 A 
ATOM     18  C   UNL     1      45.477   4.327  13.162  0.00  0.00    +0.000 A 
ATOM     19  C   UNL     1      44.663   5.370  12.701  0.00  0.00    +0.000 A 
ATOM     20  C   UNL     1      45.178   6.675  12.668  0.00  0.00    +0.000 A 
BRANCH  15  21
ATOM     21  C   UNL     1      46.988   8.372  13.159  0.00  0.00    +0.000 C 
BRANCH  21  22
ATOM     22  N   UNL     1      47.068   8.881  14.524  0.00  0.00    +0.000 NA
ATOM     23  H   UNL     1      47.182   8.098  15.163  0.00  0.00    +0.000 HD
ATOM     24  H   UNL     1      46.180   9.320  14.760  0.00  0.00    +0.000 HD
ENDBRANCH  21  22
ENDBRANCH  15  21
ENDBRANCH  14  19
ENDBRANCH   1  14
TORSDOF 7
ENDMDL
MODEL 2
REMARK VINA RESULT:    -7.969      1.890      2.504
REMARK INTER + INTRA:         -11.325
REMARK INTER:                 -10.698
REMARK INTRA:                  -0.627
REMARK UNBOUND:                -0.561
REMARK  Name = 
REMARK  7 active torsions:
REMARK  status: ('A' for Active; 'I' for Inactive)
REMARK    1  A    between atoms: N_1  and  C_2
REMARK    2  A    between atoms: C_2  and  C_3
REMARK    3  A    between atoms: C_7  and  C_8
REMARK    4  A    between atoms: C_8  and  C_9
REMARK    5  A    between atoms: C_9  and  N_10
REMARK    6  A    between atoms: C_14  and  C_15
REMARK    7  A    between atoms: C_15  and  O_17
REMARK                            x       y       z     vdW  Elec       q    Type
REMARK                         _______ _______ _______ _____ _____    ______ ____
ROOT
ATOM      1  C   UNL     1      43.436   5.226  10.292  0.00  0.00    +0.000 C 
ENDROOT
BRANCH   1   2
ATOM      2  N   UNL     1      43.795   3.803  10.334  0.00  0.00    +0.000 N 
ATOM      3  C   UNL     1      44.718   3.450   9.324  0.00  0.00    +0.000 A 
ATOM      4  C   UNL     1      45.140   2.127   9.235  0.00  0.00    +0.000 A 
ATOM      5  C   UNL     1      46.060   1.760   8.253  0.00  0.00    +0.000 A 
ATOM      6  C   UNL     1      46.522   2.743   7.400  0.00  0.00    +0.000 A 
ATOM      7  N   UNL     1      46.122   4.031   7.495  0.00  0.00    +0.000 NA
ATOM      8  N   UNL     1      45.224   4.375   8.472  0.00  0.00    +0.000 NA
ATOM      9  H   UNL     1      42.982   3.196  10.265  0.00  0.00    +0.000 HD
BRANCH   6  10
ATOM     10  C   UNL     1      47.489   2.447   6.312  0.00  0.00    +0.000 C 
ATOM     11  O   UNL     1      48.301   1.541   6.354  0.00  0.00    +0.000 OA
BRANCH  10  12
ATOM     12  O   UNL     1      47.355   3.297   5.265  0.00  0.00    +0.000 OA
ATOM     13  H   UNL     1      47.184   2.808   4.428  0.00  0.00    +0.000 HD
ENDBRANCH  10  12
ENDBRANCH   6  10
ENDBRANCH   1   2
BRANCH   1  14
ATOM     14  C   UNL     1      43.450   5.851  11.692  0.00  0.00    +0.000 C 
BRANCH  14  19
ATOM     15  C   UNL     1      46.637   5.301  13.730  0.00  0.00    +0.000 A 
ATOM     16  C   UNL     1      47.562   6.031  12.972  0.00  0.00    +0.000 A 
ATOM     17  C   UNL     1      47.153   6.740  11.841  0.00  0.00    +0.000 A 
ATOM     18  C   UNL     1      45.816   6.713  11.444  0.00  0.00    +0.000 A 
ATOM     19  C   UNL     1      44.874   5.986  12.182  0.00  0.00    +0.000 A 
ATOM     20  C   UNL     1      45.292   5.294  13.330  0.00  0.00    +0.000 A 
BRANCH  15  21
ATOM     21  C   UNL     1      47.089   4.477  14.911  0.00  0.00    +0.000 C 
BRANCH  21  22
ATOM     22  N   UNL     1      47.460   3.119  14.524  0.00  0.00    +0.000 NA
ATOM     23  H   UNL     1      47.334   2.502  15.323  0.00  0.00    +0.000 HD
ATOM     24  H   UNL     1      48.453   3.105  14.301  0.00  0.00    +0.000 HD
ENDBRANCH  21  22
ENDBRANCH  15  21
ENDBRANCH  14  19
ENDBRANCH   1  14
TORSDOF 7
ENDMDL
MODEL 3
REMARK VINA RESULT:    -7.457      3.746      6.897
REMARK INTER + INTRA:         -10.634
REMARK INTER:                 -10.237
REMARK INTRA:                  -0.397
REMARK UNBOUND:                -0.561
REMARK  Name = 
REMARK  7 active torsions:
REMARK  status: ('A' for Active; 'I' for Inactive)
REMARK    1  A    between atoms: N_1  and  C_2
REMARK    2  A    between atoms: C_2  and  C_3
REMARK    3  A    between atoms: C_7  and  C_8
REMARK    4  A    between atoms: C_8  and  C_9
REMARK    5  A    between atoms: C_9  and  N_10
REMARK    6  A    between atoms: C_14  and  C_15
REMARK    7  A    between atoms: C_15  and  O_17
REMARK                            x       y       z     vdW  Elec       q    Type
REMARK                         _______ _______ _______ _____ _____    ______ ____
ROOT
ATOM      1  C   UNL     1      44.291   4.414  10.382  0.00  0.00    +0.000 C 
ENDROOT
BRANCH   1   2
ATOM      2  N   UNL     1      45.158   5.507  10.840  0.00  0.00    +0.000 N 
ATOM      3  C   UNL     1      45.745   5.239  12.097  0.00  0.00    +0.000 A 
ATOM      4  C   UNL     1      46.583   6.194  12.662  0.00  0.00    +0.000 A 
ATOM      5  C   UNL     1      47.183   5.944  13.897  0.00  0.00    +0.000 A 
ATOM      6  C   UNL     1      46.915   4.738  14.513  0.00  0.00    +0.000 A 
ATOM      7  N   UNL     1      46.111   3.804  13.957  0.00  0.00    +0.000 NA
ATOM      8  N   UNL     1      45.538   4.064  12.738  0.00  0.00    +0.000 NA
ATOM      9  H   UNL     1      44.668   6.397  10.887  0.00  0.00    +0.000 HD
BRANCH   6  10
ATOM     10  C   UNL     1      47.492   4.387  15.836  0.00  0.00    +0.000 C 
ATOM     11  O   UNL     1      48.601   4.727  16.204  0.00  0.00    +0.000 OA
BRANCH  10  12
ATOM     12  O   UNL     1      46.636   3.652  16.586  0.00  0.00    +0.000 OA
ATOM     13  H   UNL     1      45.771   4.111  16.692  0.00  0.00    +0.000 HD
ENDBRANCH  10  12
ENDBRANCH   6  10
ENDBRANCH   1   2
BRANCH   1  14
ATOM     14  C   UNL     1      44.173   4.393   8.853  0.00  0.00    +0.000 C 
BRANCH  14  19
ATOM     15  C   UNL     1      46.676   2.471   6.695  0.00  0.00    +0.000 A 
ATOM     16  C   UNL     1      46.713   1.242   7.369  0.00  0.00    +0.000 A 
ATOM     17  C   UNL     1      45.899   1.015   8.479  0.00  0.00    +0.000 A 
ATOM     18  C   UNL     1      45.049   2.020   8.941  0.00  0.00    +0.000 A 
ATOM     19  C   UNL     1      44.998   3.258   8.289  0.00  0.00    +0.000 A 
ATOM     20  C   UNL     1      45.806   3.468   7.160  0.00  0.00    +0.000 A 
BRANCH  15  21
ATOM     21  C   UNL     1      47.608   2.744   5.540  0.00  0.00    +0.000 C 
BRANCH  21  22
ATOM     22  N   UNL     1      48.638   1.719   5.410  0.00  0.00    +0.000 NA
ATOM     23  H   UNL     1      49.424   2.105   4.892  0.00  0.00    +0.000 HD
ATOM     24  H   UNL     1      48.268   0.955   4.848  0.00  0.00    +0.000 HD
ENDBRANCH  21  22
ENDBRANCH  15  21
ENDBRANCH  14  19
ENDBRANCH   1  14
TORSDOF 7
ENDMDL
MODEL 4
REMARK VINA RESULT:    -6.661      1.703      2.313
REMARK INTER + INTRA:          -9.558
REMARK INTER:                  -9.053
REMARK INTRA:                  -0.505
REMARK UNBOUND:                -0.561
REMARK  Name = 
REMARK  7 active torsions:
REMARK  status: ('A' for Active; 'I' for Inactive)
REMARK    1  A    between atoms: N_1  and  C_2
REMARK    2  A    between atoms: C_2  and  C_3
REMARK    3  A    between atoms: C_7  and  C_8
REMARK    4  A    between atoms: C_8  and  C_9
REMARK    5  A    between atoms: C_9  and  N_10
REMARK    6  A    between atoms: C_14  and  C_15
REMARK    7  A    between atoms: C_15  and  O_17
REMARK                            x       y       z     vdW  Elec       q    Type
REMARK                         _______ _______ _______ _____ _____    ______ ____
ROOT
ATOM      1  C   UNL     1      43.501   4.742  11.077  0.00  0.00    +0.000 C 
ENDROOT
BRANCH   1   2
ATOM      2  N   UNL     1      43.786   3.346  10.722  0.00  0.00    +0.000 N 
ATOM      3  C   UNL     1      44.640   3.240   9.601  0.00  0.00    +0.000 A 
ATOM      4  C   UNL     1      44.988   1.974   9.141  0.00  0.00    +0.000 A 
ATOM      5  C   UNL     1      45.840   1.846   8.044  0.00  0.00    +0.000 A 
ATOM      6  C   UNL     1      46.310   3.002   7.453  0.00  0.00    +0.000 A 
ATOM      7  N   UNL     1      45.983   4.232   7.908  0.00  0.00    +0.000 NA
ATOM      8  N   UNL     1      45.152   4.338   8.994  0.00  0.00    +0.000 NA
ATOM      9  H   UNL     1      42.941   2.810  10.544  0.00  0.00    +0.000 HD
BRANCH   6  10
ATOM     10  C   UNL     1      47.207   2.969   6.270  0.00  0.00    +0.000 C 
ATOM     11  O   UNL     1      46.812   2.961   5.118  0.00  0.00    +0.000 OA
BRANCH  10  12
ATOM     12  O   UNL     1      48.516   2.958   6.622  0.00  0.00    +0.000 OA
ATOM     13  H   UNL     1      49.067   2.525   5.930  0.00  0.00    +0.000 HD
ENDBRANCH  10  12
ENDBRANCH   6  10
ENDBRANCH   1   2
BRANCH   1  14
ATOM     14  C   UNL     1      43.859   5.034  12.540  0.00  0.00    +0.000 C 
BRANCH  14  19
ATOM     15  C   UNL     1      47.152   6.812  13.321  0.00  0.00    +0.000 A 
ATOM     16  C   UNL     1      47.012   7.972  12.549  0.00  0.00    +0.000 A 
ATOM     17  C   UNL     1      45.844   8.208  11.823  0.00  0.00    +0.000 A 
ATOM     18  C   UNL     1      44.806   7.276  11.846  0.00  0.00    +0.000 A 
ATOM     19  C   UNL     1      44.924   6.105  12.605  0.00  0.00    +0.000 A 
ATOM     20  C   UNL     1      46.096   5.889  13.349  0.00  0.00    +0.000 A 
BRANCH  15  21
ATOM     21  C   UNL     1      48.442   6.521  14.048  0.00  0.00    +0.000 C 
BRANCH  21  22
ATOM     22  N   UNL     1      49.612   6.914  13.271  0.00  0.00    +0.000 NA
ATOM     23  H   UNL     1      50.446   6.534  13.714  0.00  0.00    +0.000 HD
ATOM     24  H   UNL     1      49.702   7.928  13.309  0.00  0.00    +0.000 HD
ENDBRANCH  21  22
ENDBRANCH  15  21
ENDBRANCH  14  19
ENDBRANCH   1  14
TORSDOF 7
ENDMDL
MODEL 5
REMARK VINA RESULT:    -6.552      4.959      6.527
REMARK INTER + INTRA:          -9.411
REMARK INTER:                  -9.075
REMARK INTRA:                  -0.336
REMARK UNBOUND:                -0.561
REMARK  Name = 
REMARK  7 active torsions:
REMARK  status: ('A' for Active; 'I' for Inactive)
REMARK    1  A    between atoms: N_1  and  C_2
REMARK    2  A    between atoms: C_2  and  C_3
REMARK    3  A    between atoms: C_7  and  C_8
REMARK    4  A    between atoms: C_8  and  C_9
REMARK    5  A    between atoms: C_9  and  N_10
REMARK    6  A    between atoms: C_14  and  C_15
REMARK    7  A    between atoms: C_15  and  O_17
REMARK                            x       y       z     vdW  Elec       q    Type
REMARK                         _______ _______ _______ _____ _____    ______ ____
ROOT
ATOM      1  C   UNL     1      47.494   3.683  15.726  0.00  0.00    +0.000 C 
ENDROOT
BRANCH   1   2
ATOM      2  N   UNL     1      47.130   4.935  15.053  0.00  0.00    +0.000 N 
ATOM      3  C   UNL     1      46.351   4.717  13.894  0.00  0.00    +0.000 A 
ATOM      4  C   UNL     1      45.942   5.815  13.145  0.00  0.00    +0.000 A 
ATOM      5  C   UNL     1      45.161   5.623  12.005  0.00  0.00    +0.000 A 
ATOM      6  C   UNL     1      44.822   4.329  11.665  0.00  0.00    +0.000 A 
ATOM      7  N   UNL     1      45.208   3.262  12.400  0.00  0.00    +0.000 NA
ATOM      8  N   UNL     1      45.967   3.472  13.523  0.00  0.00    +0.000 NA
ATOM      9  H   UNL     1      47.943   5.492  14.804  0.00  0.00    +0.000 HD
BRANCH   6  10
ATOM     10  C   UNL     1      44.010   4.021  10.460  0.00  0.00    +0.000 C 
ATOM     11  O   UNL     1      43.832   2.896  10.030  0.00  0.00    +0.000 OA
BRANCH  10  12
ATOM     12  O   UNL     1      43.485   5.138   9.900  0.00  0.00    +0.000 OA
ATOM     13  H   UNL     1      43.920   5.344   9.040  0.00  0.00    +0.000 HD
ENDBRANCH  10  12
ENDBRANCH   6  10
ENDBRANCH   1   2
BRANCH   1  14
ATOM     14  C   UNL     1      47.749   3.902  17.223  0.00  0.00    +0.000 C 
BRANCH  14  19
ATOM     15  C   UNL     1      51.336   2.625  17.566  0.00  0.00    +0.000 A 
ATOM     16  C   UNL     1      52.023   3.828  17.781  0.00  0.00    +0.000 A 
ATOM     17  C   UNL     1      51.331   5.036  17.868  0.00  0.00    +0.000 A 
ATOM     18  C   UNL     1      49.943   5.060  17.723  0.00  0.00    +0.000 A 
ATOM     19  C   UNL     1      49.235   3.872  17.502  0.00  0.00    +0.000 A 
ATOM     20  C   UNL     1      49.940   2.660  17.438  0.00  0.00    +0.000 A 
BRANCH  15  21
ATOM     21  C   UNL     1      52.089   1.328  17.400  0.00  0.00    +0.000 C 
BRANCH  21  22
ATOM     22  N   UNL     1      51.494   0.244  18.174  0.00  0.00    +0.000 NA
ATOM     23  H   UNL     1      51.658   0.415  19.164  0.00  0.00    +0.000 HD
ATOM     24  H   UNL     1      51.979  -0.622  17.947  0.00  0.00    +0.000 HD
ENDBRANCH  21  22
ENDBRANCH  15  21
ENDBRANCH  14  19
ENDBRANCH   1  14
TORSDOF 7
ENDMDL
MODEL 6
REMARK VINA RESULT:    -6.527      4.046      6.878
REMARK INTER + INTRA:          -9.377
REMARK INTER:                  -8.948
REMARK INTRA:                  -0.428
REMARK UNBOUND:                -0.561
REMARK  Name = 
REMARK  7 active torsions:
REMARK  status: ('A' for Active; 'I' for Inactive)
REMARK    1  A    between atoms: N_1  and  C_2
REMARK    2  A    between atoms: C_2  and  C_3
REMARK    3  A    between atoms: C_7  and  C_8
REMARK    4  A    between atoms: C_8  and  C_9
REMARK    5  A    between atoms: C_9  and  N_10
REMARK    6  A    between atoms: C_14  and  C_15
REMARK    7  A    between atoms: C_15  and  O_17
REMARK                            x       y       z     vdW  Elec       q    Type
REMARK                         _______ _______ _______ _____ _____    ______ ____
ROOT
ATOM      1  C   UNL     1      45.288   5.815  12.641  0.00  0.00    +0.000 C 
ENDROOT
BRANCH   1   2
ATOM      2  N   UNL     1      46.295   6.450  13.500  0.00  0.00    +0.000 N 
ATOM      3  C   UNL     1      46.929   5.525  14.360  0.00  0.00    +0.000 A 
ATOM      4  C   UNL     1      47.900   5.988  15.242  0.00  0.00    +0.000 A 
ATOM      5  C   UNL     1      48.548   5.090  16.090  0.00  0.00    +0.000 A 
ATOM      6  C   UNL     1      48.191   3.758  16.015  0.00  0.00    +0.000 A 
ATOM      7  N   UNL     1      47.257   3.306  15.149  0.00  0.00    +0.000 NA
ATOM      8  N   UNL     1      46.638   4.202  14.316  0.00  0.00    +0.000 NA
ATOM      9  H   UNL     1      45.908   7.207  14.057  0.00  0.00    +0.000 HD
BRANCH   6  10
ATOM     10  C   UNL     1      48.810   2.729  16.890  0.00  0.00    +0.000 C 
ATOM     11  O   UNL     1      48.783   2.766  18.106  0.00  0.00    +0.000 OA
BRANCH  10  12
ATOM     12  O   UNL     1      49.403   1.742  16.175  0.00  0.00    +0.000 OA
ATOM     13  H   UNL     1      50.139   1.327  16.682  0.00  0.00    +0.000 HD
ENDBRANCH  10  12
ENDBRANCH   6  10
ENDBRANCH   1   2
BRANCH   1  14
ATOM     14  C   UNL     1      45.606   6.020  11.154  0.00  0.00    +0.000 C 
BRANCH  14  19
ATOM     15  C   UNL     1      45.343   3.448   8.339  0.00  0.00    +0.000 A 
ATOM     16  C   UNL     1      44.571   2.458   8.960  0.00  0.00    +0.000 A 
ATOM     17  C   UNL     1      44.092   2.639  10.258  0.00  0.00    +0.000 A 
ATOM     18  C   UNL     1      44.395   3.807  10.959  0.00  0.00    +0.000 A 
ATOM     19  C   UNL     1      45.171   4.809  10.362  0.00  0.00    +0.000 A 
ATOM     20  C   UNL     1      45.629   4.625   9.048  0.00  0.00    +0.000 A 
BRANCH  15  21
ATOM     21  C   UNL     1      45.922   3.223   6.963  0.00  0.00    +0.000 C 
BRANCH  21  22
ATOM     22  N   UNL     1      46.941   4.212   6.626  0.00  0.00    +0.000 NA
ATOM     23  H   UNL     1      46.895   4.406   5.629  0.00  0.00    +0.000 HD
ATOM     24  H   UNL     1      47.858   3.804   6.800  0.00  0.00    +0.000 HD
ENDBRANCH  21  22
ENDBRANCH  15  21
ENDBRANCH  14  19
ENDBRANCH   1  14
TORSDOF 7
ENDMDL
MODEL 7
REMARK VINA RESULT:    -6.452      3.997      6.953
REMARK INTER + INTRA:          -9.276
REMARK INTER:                  -8.742
REMARK INTRA:                  -0.533
REMARK UNBOUND:                -0.561
REMARK  Name = 
REMARK  7 active torsions:
REMARK  status: ('A' for Active; 'I' for Inactive)
REMARK    1  A    between atoms: N_1  and  C_2
REMARK    2  A    between atoms: C_2  and  C_3
REMARK    3  A    between atoms: C_7  and  C_8
REMARK    4  A    between atoms: C_8  and  C_9
REMARK    5  A    between atoms: C_9  and  N_10
REMARK    6  A    between atoms: C_14  and  C_15
REMARK    7  A    between atoms: C_15  and  O_17
REMARK                            x       y       z     vdW  Elec       q    Type
REMARK                         _______ _______ _______ _____ _____    ______ ____
ROOT
ATOM      1  C   UNL     1      47.405   6.643  12.119  0.00  0.00    +0.000 C 
ENDROOT
BRANCH   1   2
ATOM      2  N   UNL     1      48.008   7.088  13.382  0.00  0.00    +0.000 N 
ATOM      3  C   UNL     1      47.947   6.096  14.387  0.00  0.00    +0.000 A 
ATOM      4  C   UNL     1      48.470   6.384  15.644  0.00  0.00    +0.000 A 
ATOM      5  C   UNL     1      48.432   5.414  16.646  0.00  0.00    +0.000 A 
ATOM      6  C   UNL     1      47.870   4.191  16.341  0.00  0.00    +0.000 A 
ATOM      7  N   UNL     1      47.374   3.907  15.116  0.00  0.00    +0.000 NA
ATOM      8  N   UNL     1      47.428   4.869  14.141  0.00  0.00    +0.000 NA
ATOM      9  H   UNL     1      47.582   7.942  13.735  0.00  0.00    +0.000 HD
BRANCH   6  10
ATOM     10  C   UNL     1      47.767   3.102  17.346  0.00  0.00    +0.000 C 
ATOM     11  O   UNL     1      48.727   2.525  17.823  0.00  0.00    +0.000 OA
BRANCH  10  12
ATOM     12  O   UNL     1      46.481   2.832  17.676  0.00  0.00    +0.000 OA
ATOM     13  H   UNL     1      45.921   2.726  16.872  0.00  0.00    +0.000 HD
ENDBRANCH  10  12
ENDBRANCH   6  10
ENDBRANCH   1   2
BRANCH   1  14
ATOM     14  C   UNL     1      45.975   7.175  11.960  0.00  0.00    +0.000 C 
BRANCH  14  19
ATOM     15  C   UNL     1      44.317   4.109  10.389  0.00  0.00    +0.000 A 
ATOM     16  C   UNL     1      43.421   3.748  11.403  0.00  0.00    +0.000 A 
ATOM     17  C   UNL     1      43.312   4.516  12.563  0.00  0.00    +0.000 A 
ATOM     18  C   UNL     1      44.112   5.646  12.732  0.00  0.00    +0.000 A 
ATOM     19  C   UNL     1      45.020   6.025  11.735  0.00  0.00    +0.000 A 
ATOM     20  C   UNL     1      45.106   5.257  10.563  0.00  0.00    +0.000 A 
BRANCH  15  21
ATOM     21  C   UNL     1      44.488   3.241   9.167  0.00  0.00    +0.000 C 
BRANCH  21  22
ATOM     22  N   UNL     1      44.603   1.827   9.508  0.00  0.00    +0.000 NA
ATOM     23  H   UNL     1      44.776   1.741  10.507  0.00  0.00    +0.000 HD
ATOM     24  H   UNL     1      45.422   1.445   9.039  0.00  0.00    +0.000 HD
ENDBRANCH  21  22
ENDBRANCH  15  21
ENDBRANCH  14  19
ENDBRANCH   1  14
TORSDOF 7
ENDMDL
MODEL 8
REMARK VINA RESULT:    -5.853      4.236      6.106
REMARK INTER + INTRA:          -8.467
REMARK INTER:                  -7.973
REMARK INTRA:                  -0.494
REMARK UNBOUND:                -0.561
REMARK  Name = 
REMARK  7 active torsions:
REMARK  status: ('A' for Active; 'I' for Inactive)
REMARK    1  A    between atoms: N_1  and  C_2
REMARK    2  A    between atoms: C_2  and  C_3
REMARK    3  A    between atoms: C_7  and  C_8
REMARK    4  A    between atoms: C_8  and  C_9
REMARK    5  A    between atoms: C_9  and  N_10
REMARK    6  A    between atoms: C_14  and  C_15
REMARK    7  A    between atoms: C_15  and  O_17
REMARK                            x       y       z     vdW  Elec       q    Type
REMARK                         _______ _______ _______ _____ _____    ______ ____
ROOT
ATOM      1  C   UNL     1      48.412   6.463  14.623  0.00  0.00    +0.000 C 
ENDROOT
BRANCH   1   2
ATOM      2  N   UNL     1      47.275   7.096  13.944  0.00  0.00    +0.000 N 
ATOM      3  C   UNL     1      46.355   6.150  13.438  0.00  0.00    +0.000 A 
ATOM      4  C   UNL     1      45.231   6.606  12.757  0.00  0.00    +0.000 A 
ATOM      5  C   UNL     1      44.304   5.689  12.261  0.00  0.00    +0.000 A 
ATOM      6  C   UNL     1      44.546   4.346  12.473  0.00  0.00    +0.000 A 
ATOM      7  N   UNL     1      45.632   3.904  13.146  0.00  0.00    +0.000 NA
ATOM      8  N   UNL     1      46.527   4.820  13.635  0.00  0.00    +0.000 NA
ATOM      9  H   UNL     1      47.567   7.709  13.187  0.00  0.00    +0.000 HD
BRANCH   6  10
ATOM     10  C   UNL     1      43.628   3.294  11.967  0.00  0.00    +0.000 C 
ATOM     11  O   UNL     1      42.970   3.399  10.948  0.00  0.00    +0.000 OA
BRANCH  10  12
ATOM     12  O   UNL     1      43.614   2.201  12.769  0.00  0.00    +0.000 OA
ATOM     13  H   UNL     1      43.587   2.457  13.719  0.00  0.00    +0.000 HD
ENDBRANCH  10  12
ENDBRANCH   6  10
ENDBRANCH   1   2
BRANCH   1  14
ATOM     14  C   UNL     1      48.616   7.036  16.032  0.00  0.00    +0.000 C 
BRANCH  14  19
ATOM     15  C   UNL     1      49.188   3.642  17.695  0.00  0.00    +0.000 A 
ATOM     16  C   UNL     1      48.743   3.910  18.997  0.00  0.00    +0.000 A 
ATOM     17  C   UNL     1      48.213   5.159  19.324  0.00  0.00    +0.000 A 
ATOM     18  C   UNL     1      48.137   6.162  18.358  0.00  0.00    +0.000 A 
ATOM     19  C   UNL     1      48.581   5.920  17.051  0.00  0.00    +0.000 A 
ATOM     20  C   UNL     1      49.092   4.654  16.728  0.00  0.00    +0.000 A 
BRANCH  15  21
ATOM     21  C   UNL     1      49.827   2.318  17.358  0.00  0.00    +0.000 C 
BRANCH  21  22
ATOM     22  N   UNL     1      49.432   1.836  16.038  0.00  0.00    +0.000 NA
ATOM     23  H   UNL     1      48.799   2.512  15.616  0.00  0.00    +0.000 HD
ATOM     24  H   UNL     1      48.900   0.975  16.153  0.00  0.00    +0.000 HD
ENDBRANCH  21  22
ENDBRANCH  15  21
ENDBRANCH  14  19
ENDBRANCH   1  14
TORSDOF 7
ENDMDL
MODEL 9
REMARK VINA RESULT:    -5.835      4.514      7.257
REMARK INTER + INTRA:          -8.442
REMARK INTER:                  -7.561
REMARK INTRA:                  -0.881
REMARK UNBOUND:                -0.561
REMARK  Name = 
REMARK  7 active torsions:
REMARK  status: ('A' for Active; 'I' for Inactive)
REMARK    1  A    between atoms: N_1  and  C_2
REMARK    2  A    between atoms: C_2  and  C_3
REMARK    3  A    between atoms: C_7  and  C_8
REMARK    4  A    between atoms: C_8  and  C_9
REMARK    5  A    between atoms: C_9  and  N_10
REMARK    6  A    between atoms: C_14  and  C_15
REMARK    7  A    between atoms: C_15  and  O_17
REMARK                            x       y       z     vdW  Elec       q    Type
REMARK                         _______ _______ _______ _____ _____    ______ ____
ROOT
ATOM      1  C   UNL     1      48.638   7.232  12.873  0.00  0.00    +0.000 C 
ENDROOT
BRANCH   1   2
ATOM      2  N   UNL     1      48.930   7.555  14.275  0.00  0.00    +0.000 N 
ATOM      3  C   UNL     1      48.598   6.497  15.151  0.00  0.00    +0.000 A 
ATOM      4  C   UNL     1      48.809   6.666  16.516  0.00  0.00    +0.000 A 
ATOM      5  C   UNL     1      48.500   5.629  17.397  0.00  0.00    +0.000 A 
ATOM      6  C   UNL     1      47.991   4.460  16.866  0.00  0.00    +0.000 A 
ATOM      7  N   UNL     1      47.798   4.291  15.539  0.00  0.00    +0.000 NA
ATOM      8  N   UNL     1      48.117   5.318  14.688  0.00  0.00    +0.000 NA
ATOM      9  H   UNL     1      48.458   8.400  14.585  0.00  0.00    +0.000 HD
BRANCH   6  10
ATOM     10  C   UNL     1      47.615   3.308  17.724  0.00  0.00    +0.000 C 
ATOM     11  O   UNL     1      46.557   2.712  17.635  0.00  0.00    +0.000 OA
BRANCH  10  12
ATOM     12  O   UNL     1      48.589   2.994  18.612  0.00  0.00    +0.000 OA
ATOM     13  H   UNL     1      48.250   2.397  19.318  0.00  0.00    +0.000 HD
ENDBRANCH  10  12
ENDBRANCH   6  10
ENDBRANCH   1   2
BRANCH   1  14
ATOM     14  C   UNL     1      47.537   8.136  12.305  0.00  0.00    +0.000 C 
BRANCH  14  19
ATOM     15  C   UNL     1      45.218   5.130  11.860  0.00  0.00    +0.000 A 
ATOM     16  C   UNL     1      44.025   5.770  11.499  0.00  0.00    +0.000 A 
ATOM     17  C   UNL     1      43.980   7.157  11.348  0.00  0.00    +0.000 A 
ATOM     18  C   UNL     1      45.123   7.923  11.573  0.00  0.00    +0.000 A 
ATOM     19  C   UNL     1      46.326   7.307  11.941  0.00  0.00    +0.000 A 
ATOM     20  C   UNL     1      46.366   5.909  12.069  0.00  0.00    +0.000 A 
BRANCH  15  21
ATOM     21  C   UNL     1      45.251   3.639  12.094  0.00  0.00    +0.000 C 
BRANCH  21  22
ATOM     22  N   UNL     1      46.118   3.277  13.210  0.00  0.00    +0.000 NA
ATOM     23  H   UNL     1      45.550   3.161  14.046  0.00  0.00    +0.000 HD
ATOM     24  H   UNL     1      46.751   4.053  13.395  0.00  0.00    +0.000 HD
ENDBRANCH  21  22
ENDBRANCH  15  21
ENDBRANCH  14  19
ENDBRANCH   1  14
TORSDOF 7
ENDMDL
