MODEL 1
REMARK VINA RESULT:    -7.571      0.000      0.000
REMARK INTER + INTRA:         -11.884
REMARK INTER:                 -10.670
REMARK INTRA:                  -1.215
REMARK UNBOUND:                -1.215
REMARK  Name = 
REMARK  7 active torsions:
REMARK  status: ('A' for Active; 'I' for Inactive)
REMARK    1  A    between atoms: C_2  and  C_3
REMARK    2  A    between atoms: C_8  and  C_9
REMARK    3  A    between atoms: N_11  and  C_12
REMARK    4  A    between atoms: C_12  and  C_13
REMARK    5  A    between atoms: C_16  and  C_17
REMARK    6  A    between atoms: C_17  and  N_18
REMARK    7  A    between atoms: C_19  and  C_21
REMARK                            x       y       z     vdW  Elec       q    Type
REMARK                         _______ _______ _______ _____ _____    ______ ____
ROOT
ATOM      1  C   UNL     1      50.103   7.096  15.675  0.00  0.00    +0.000 A 
ATOM      2  C   UNL     1      48.827   6.521  15.596  0.00  0.00    +0.000 A 
ATOM      3  C   UNL     1      48.039   6.682  14.451  0.00  0.00    +0.000 A 
ATOM      4  C   UNL     1      48.517   7.400  13.347  0.00  0.00    +0.000 A 
ATOM      5  C   UNL     1      49.792   7.978  13.428  0.00  0.00    +0.000 A 
ATOM      6  C   UNL     1      50.579   7.823  14.575  0.00  0.00    +0.000 A 
ENDROOT
BRANCH   1   7
ATOM      7  C   UNL     1      50.939   6.935  16.921  0.00  0.00    +0.000 C 
BRANCH   7  10
ATOM      8  C   UNL     1      51.076   4.682  17.912  0.00  0.00    +0.000 C 
ATOM      9  O   UNL     1      50.116   4.884  18.651  0.00  0.00    +0.000 OA
ATOM     10  N   UNL     1      51.537   5.618  17.015  0.00  0.00    +0.000 N 
ATOM     11  H   UNL     1      52.242   5.392  16.327  0.00  0.00    +0.000 HD
BRANCH   8  17
ATOM     12  C   UNL     1      51.258   2.172  17.381  0.00  0.00    +0.000 A 
ATOM     13  C   UNL     1      52.035   0.999  17.424  0.00  0.00    +0.000 A 
ATOM     14  C   UNL     1      53.284   0.991  18.045  0.00  0.00    +0.000 A 
ATOM     15  C   UNL     1      53.770   2.153  18.633  0.00  0.00    +0.000 A 
ATOM     16  C   UNL     1      53.012   3.325  18.587  0.00  0.00    +0.000 A 
ATOM     17  C   UNL     1      51.750   3.351  17.969  0.00  0.00    +0.000 A 
BRANCH  12  19
ATOM     18  N   UNL     1      48.991   2.007  16.139  0.00  0.00    +0.000 NA
ATOM     19  C   UNL     1      49.992   2.102  16.716  0.00  0.00    +0.000 C 
ENDBRANCH  12  19
ENDBRANCH   8  17
ENDBRANCH   7  10
ENDBRANCH   1   7
BRANCH   4  20
ATOM     20  C   UNL     1      47.672   7.569  12.109  0.00  0.00    +0.000 C 
BRANCH  20  21
ATOM     21  N   UNL     1      46.949   6.364  11.786  0.00  0.00    +0.000 N 
ATOM     22  C   UNL     1      45.578   6.328  11.804  0.00  0.00    +0.000 C 
ATOM     23  O   UNL     1      44.904   7.326  12.049  0.00  0.00    +0.000 OA
ATOM     24  H   UNL     1      47.473   5.494  11.803  0.00  0.00    +0.000 HD
BRANCH  22  25
ATOM     25  C   UNL     1      44.946   5.049  11.451  0.00  0.00    +0.000 A 
ATOM     26  C   UNL     1      44.185   4.372  12.395  0.00  0.00    +0.000 A 
ATOM     27  S   UNL     1      43.486   2.931  11.808  0.00  0.00    +0.000 S 
ATOM     28  C   UNL     1      44.218   3.132  10.285  0.00  0.00    +0.000 A 
ATOM     29  N   UNL     1      44.044   2.213   9.298  0.00  0.00    +0.000 NA
ATOM     30  C   UNL     1      44.680   2.475   8.205  0.00  0.00    +0.000 A 
ATOM     31  N   UNL     1      45.468   3.581   8.009  0.00  0.00    +0.000 N 
ATOM     32  C   UNL     1      45.650   4.547   8.965  0.00  0.00    +0.000 A 
ATOM     33  O   UNL     1      46.334   5.543   8.743  0.00  0.00    +0.000 OA
ATOM     34  C   UNL     1      44.969   4.295  10.220  0.00  0.00    +0.000 A 
ATOM     35  H   UNL     1      45.933   3.732   7.126  0.00  0.00    +0.000 HD
ENDBRANCH  22  25
ENDBRANCH  20  21
ENDBRANCH   4  20
TORSDOF 7
ENDMDL
MODEL 2
REMARK VINA RESULT:    -7.268      2.948      9.640
REMARK INTER + INTRA:         -11.457
REMARK INTER:                 -10.447
REMARK INTRA:                  -1.010
REMARK UNBOUND:                -1.215
REMARK  Name = 
REMARK  7 active torsions:
REMARK  status: ('A' for Active; 'I' for Inactive)
REMARK    1  A    between atoms: C_2  and  C_3
REMARK    2  A    between atoms: C_8  and  C_9
REMARK    3  A    between atoms: N_11  and  C_12
REMARK    4  A    between atoms: C_12  and  C_13
REMARK    5  A    between atoms: C_16  and  C_17
REMARK    6  A    between atoms: C_17  and  N_18
REMARK    7  A    between atoms: C_19  and  C_21
REMARK                            x       y       z     vdW  Elec       q    Type
REMARK                         _______ _______ _______ _____ _____    ______ ____
ROOT
ATOM      1  C   UNL     1      47.447   5.731  14.515  0.00  0.00    +0.000 A 
ATOM      2  C   UNL     1      48.327   6.247  15.476  0.00  0.00    +0.000 A 
ATOM      3  C   UNL     1      48.624   5.524  16.636  0.00  0.00    +0.000 A 
ATOM      4  C   UNL     1      48.070   4.255  16.851  0.00  0.00    +0.000 A 
ATOM      5  C   UNL     1      47.187   3.741  15.892  0.00  0.00    +0.000 A 
ATOM      6  C   UNL     1      46.884   4.466  14.733  0.00  0.00    +0.000 A 
ENDROOT
BRANCH   1   7
ATOM      7  C   UNL     1      47.115   6.526  13.276  0.00  0.00    +0.000 C 
BRANCH   7  10
ATOM      8  C   UNL     1      45.566   5.611  11.591  0.00  0.00    +0.000 C 
ATOM      9  O   UNL     1      44.627   6.289  11.998  0.00  0.00    +0.000 OA
ATOM     10  N   UNL     1      46.827   5.676  12.138  0.00  0.00    +0.000 N 
ATOM     11  H   UNL     1      47.615   5.210  11.711  0.00  0.00    +0.000 HD
BRANCH   8  17
ATOM     12  C   UNL     1      44.548   3.534  10.466  0.00  0.00    +0.000 A 
ATOM     13  C   UNL     1      44.327   2.810   9.279  0.00  0.00    +0.000 A 
ATOM     14  C   UNL     1      44.882   3.232   8.071  0.00  0.00    +0.000 A 
ATOM     15  C   UNL     1      45.665   4.380   8.034  0.00  0.00    +0.000 A 
ATOM     16  C   UNL     1      45.881   5.112   9.204  0.00  0.00    +0.000 A 
ATOM     17  C   UNL     1      45.334   4.700  10.431  0.00  0.00    +0.000 A 
BRANCH  12  19
ATOM     18  N   UNL     1      43.475   2.596  12.629  0.00  0.00    +0.000 NA
ATOM     19  C   UNL     1      43.936   3.042  11.663  0.00  0.00    +0.000 C 
ENDBRANCH  12  19
ENDBRANCH   8  17
ENDBRANCH   7  10
ENDBRANCH   1   7
BRANCH   4  20
ATOM     20  C   UNL     1      48.395   3.470  18.097  0.00  0.00    +0.000 C 
BRANCH  20  21
ATOM     21  N   UNL     1      49.810   3.222  18.220  0.00  0.00    +0.000 N 
ATOM     22  C   UNL     1      50.454   2.337  17.392  0.00  0.00    +0.000 C 
ATOM     23  O   UNL     1      49.868   1.752  16.484  0.00  0.00    +0.000 OA
ATOM     24  H   UNL     1      50.256   3.513  19.084  0.00  0.00    +0.000 HD
BRANCH  22  25
ATOM     25  C   UNL     1      51.899   2.167  17.603  0.00  0.00    +0.000 A 
ATOM     26  C   UNL     1      52.432   0.891  17.732  0.00  0.00    +0.000 A 
ATOM     27  S   UNL     1      54.127   0.872  17.923  0.00  0.00    +0.000 S 
ATOM     28  C   UNL     1      54.204   2.572  17.891  0.00  0.00    +0.000 A 
ATOM     29  N   UNL     1      55.391   3.221  18.032  0.00  0.00    +0.000 NA
ATOM     30  C   UNL     1      55.301   4.509  18.018  0.00  0.00    +0.000 A 
ATOM     31  N   UNL     1      54.129   5.206  17.868  0.00  0.00    +0.000 N 
ATOM     32  C   UNL     1      52.913   4.594  17.694  0.00  0.00    +0.000 A 
ATOM     33  O   UNL     1      51.887   5.249  17.526  0.00  0.00    +0.000 OA
ATOM     34  C   UNL     1      52.955   3.144  17.716  0.00  0.00    +0.000 A 
ATOM     35  H   UNL     1      54.127   6.215  17.858  0.00  0.00    +0.000 HD
ENDBRANCH  22  25
ENDBRANCH  20  21
ENDBRANCH   4  20
TORSDOF 7
ENDMDL
MODEL 3
REMARK VINA RESULT:    -7.142      3.034      9.619
REMARK INTER + INTRA:         -11.280
REMARK INTER:                 -10.262
REMARK INTRA:                  -1.017
REMARK UNBOUND:                -1.215
REMARK  Name = 
REMARK  7 active torsions:
REMARK  status: ('A' for Active; 'I' for Inactive)
REMARK    1  A    between atoms: C_2  and  C_3
REMARK    2  A    between atoms: C_8  and  C_9
REMARK    3  A    between atoms: N_11  and  C_12
REMARK    4  A    between atoms: C_12  and  C_13
REMARK    5  A    between atoms: C_16  and  C_17
REMARK    6  A    between atoms: C_17  and  N_18
REMARK    7  A    between atoms: C_19  and  C_21
REMARK                            x       y       z     vdW  Elec       q    Type
REMARK                         _______ _______ _______ _____ _____    ______ ____
ROOT
ATOM      1  C   UNL     1      47.367   6.295  13.958  0.00  0.00    +0.000 A 
ATOM      2  C   UNL     1      46.881   5.050  14.381  0.00  0.00    +0.000 A 
ATOM      3  C   UNL     1      47.333   4.473  15.573  0.00  0.00    +0.000 A 
ATOM      4  C   UNL     1      48.260   5.139  16.385  0.00  0.00    +0.000 A 
ATOM      5  C   UNL     1      48.749   6.382  15.960  0.00  0.00    +0.000 A 
ATOM      6  C   UNL     1      48.303   6.958  14.764  0.00  0.00    +0.000 A 
ENDROOT
BRANCH   1   7
ATOM      7  C   UNL     1      46.891   6.902  12.661  0.00  0.00    +0.000 C 
BRANCH   7  10
ATOM      8  C   UNL     1      45.419   5.632  11.146  0.00  0.00    +0.000 C 
ATOM      9  O   UNL     1      44.416   6.238  11.515  0.00  0.00    +0.000 OA
ATOM     10  N   UNL     1      46.677   5.903  11.633  0.00  0.00    +0.000 N 
ATOM     11  H   UNL     1      47.504   5.487  11.227  0.00  0.00    +0.000 HD
BRANCH   8  17
ATOM     12  C   UNL     1      44.575   3.365  10.272  0.00  0.00    +0.000 A 
ATOM     13  C   UNL     1      44.420   2.493   9.178  0.00  0.00    +0.000 A 
ATOM     14  C   UNL     1      44.946   2.815   7.927  0.00  0.00    +0.000 A 
ATOM     15  C   UNL     1      45.636   4.010   7.755  0.00  0.00    +0.000 A 
ATOM     16  C   UNL     1      45.786   4.887   8.831  0.00  0.00    +0.000 A 
ATOM     17  C   UNL     1      45.267   4.578  10.100  0.00  0.00    +0.000 A 
BRANCH  12  19
ATOM     18  N   UNL     1      43.533   2.704  12.549  0.00  0.00    +0.000 NA
ATOM     19  C   UNL     1      43.997   2.968  11.520  0.00  0.00    +0.000 C 
ENDBRANCH  12  19
ENDBRANCH   8  17
ENDBRANCH   7  10
ENDBRANCH   1   7
BRANCH   4  20
ATOM     20  C   UNL     1      48.743   4.522  17.674  0.00  0.00    +0.000 C 
BRANCH  20  21
ATOM     21  N   UNL     1      50.106   4.062  17.569  0.00  0.00    +0.000 N 
ATOM     22  C   UNL     1      51.003   4.250  18.591  0.00  0.00    +0.000 C 
ATOM     23  O   UNL     1      50.678   4.775  19.653  0.00  0.00    +0.000 OA
ATOM     24  H   UNL     1      50.446   3.837  16.640  0.00  0.00    +0.000 HD
BRANCH  22  25
ATOM     25  C   UNL     1      52.363   3.735  18.378  0.00  0.00    +0.000 A 
ATOM     26  C   UNL     1      53.457   4.551  18.635  0.00  0.00    +0.000 A 
ATOM     27  S   UNL     1      54.959   3.783  18.382  0.00  0.00    +0.000 S 
ATOM     28  C   UNL     1      54.201   2.348  17.871  0.00  0.00    +0.000 A 
ATOM     29  N   UNL     1      54.934   1.272  17.476  0.00  0.00    +0.000 NA
ATOM     30  C   UNL     1      54.232   0.262  17.086  0.00  0.00    +0.000 A 
ATOM     31  N   UNL     1      52.860   0.228  17.062  0.00  0.00    +0.000 N 
ATOM     32  C   UNL     1      52.081   1.279  17.477  0.00  0.00    +0.000 A 
ATOM     33  O   UNL     1      50.855   1.202  17.476  0.00  0.00    +0.000 OA
ATOM     34  C   UNL     1      52.821   2.448  17.913  0.00  0.00    +0.000 A 
ATOM     35  H   UNL     1      52.370  -0.597  16.752  0.00  0.00    +0.000 HD
ENDBRANCH  22  25
ENDBRANCH  20  21
ENDBRANCH   4  20
TORSDOF 7
ENDMDL
MODEL 4
REMARK VINA RESULT:    -6.960      4.480     10.137
REMARK INTER + INTRA:         -11.022
REMARK INTER:                  -9.916
REMARK INTRA:                  -1.106
REMARK UNBOUND:                -1.215
REMARK  Name = 
REMARK  7 active torsions:
REMARK  status: ('A' for Active; 'I' for Inactive)
REMARK    1  A    between atoms: C_2  and  C_3
REMARK    2  A    between atoms: C_8  and  C_9
REMARK    3  A    between atoms: N_11  and  C_12
REMARK    4  A    between atoms: C_12  and  C_13
REMARK    5  A    between atoms: C_16  and  C_17
REMARK    6  A    between atoms: C_17  and  N_18
REMARK    7  A    between atoms: C_19  and  C_21
REMARK                            x       y       z     vdW  Elec       q    Type
REMARK                         _______ _______ _______ _____ _____    ______ ____
ROOT
ATOM      1  C   UNL     1      48.827   3.406  17.305  0.00  0.00    +0.000 A 
ATOM      2  C   UNL     1      49.358   2.138  17.036  0.00  0.00    +0.000 A 
ATOM      3  C   UNL     1      50.713   1.866  17.256  0.00  0.00    +0.000 A 
ATOM      4  C   UNL     1      51.564   2.849  17.777  0.00  0.00    +0.000 A 
ATOM      5  C   UNL     1      51.035   4.119  18.043  0.00  0.00    +0.000 A 
ATOM      6  C   UNL     1      49.680   4.394  17.818  0.00  0.00    +0.000 A 
ENDROOT
BRANCH   1   7
ATOM      7  C   UNL     1      47.370   3.698  17.046  0.00  0.00    +0.000 C 
BRANCH   7  10
ATOM      8  C   UNL     1      47.127   4.231  14.652  0.00  0.00    +0.000 C 
ATOM      9  O   UNL     1      47.191   3.050  14.321  0.00  0.00    +0.000 OA
ATOM     10  N   UNL     1      47.183   4.644  15.963  0.00  0.00    +0.000 N 
ATOM     11  H   UNL     1      47.001   5.602  16.226  0.00  0.00    +0.000 HD
BRANCH   8  17
ATOM     12  C   UNL     1      45.815   5.386  12.765  0.00  0.00    +0.000 A 
ATOM     13  C   UNL     1      45.729   6.459  11.857  0.00  0.00    +0.000 A 
ATOM     14  C   UNL     1      46.759   7.394  11.757  0.00  0.00    +0.000 A 
ATOM     15  C   UNL     1      47.887   7.268  12.561  0.00  0.00    +0.000 A 
ATOM     16  C   UNL     1      47.977   6.214  13.472  0.00  0.00    +0.000 A 
ATOM     17  C   UNL     1      46.952   5.259  13.583  0.00  0.00    +0.000 A 
BRANCH  12  19
ATOM     18  N   UNL     1      43.856   3.696  12.884  0.00  0.00    +0.000 NA
ATOM     19  C   UNL     1      44.713   4.474  12.816  0.00  0.00    +0.000 C 
ENDBRANCH  12  19
ENDBRANCH   8  17
ENDBRANCH   7  10
ENDBRANCH   1   7
BRANCH   4  20
ATOM     20  C   UNL     1      53.024   2.557  18.022  0.00  0.00    +0.000 C 
BRANCH  20  21
ATOM     21  N   UNL     1      53.335   1.165  17.804  0.00  0.00    +0.000 N 
ATOM     22  C   UNL     1      54.155   0.475  18.660  0.00  0.00    +0.000 C 
ATOM     23  O   UNL     1      54.623   0.992  19.671  0.00  0.00    +0.000 OA
ATOM     24  H   UNL     1      53.149   0.792  16.878  0.00  0.00    +0.000 HD
BRANCH  22  25
ATOM     25  C   UNL     1      54.398  -0.940  18.344  0.00  0.00    +0.000 A 
ATOM     26  C   UNL     1      54.147  -1.914  19.302  0.00  0.00    +0.000 A 
ATOM     27  S   UNL     1      54.437  -3.504  18.756  0.00  0.00    +0.000 S 
ATOM     28  C   UNL     1      54.957  -2.945  17.236  0.00  0.00    +0.000 A 
ATOM     29  N   UNL     1      55.380  -3.814  16.278  0.00  0.00    +0.000 NA
ATOM     30  C   UNL     1      55.773  -3.253  15.184  0.00  0.00    +0.000 A 
ATOM     31  N   UNL     1      55.775  -1.899  14.959  0.00  0.00    +0.000 N 
ATOM     32  C   UNL     1      55.332  -0.989  15.885  0.00  0.00    +0.000 A 
ATOM     33  O   UNL     1      55.314   0.215  15.636  0.00  0.00    +0.000 OA
ATOM     34  C   UNL     1      54.890  -1.565  17.140  0.00  0.00    +0.000 A 
ATOM     35  H   UNL     1      56.089  -1.524  14.077  0.00  0.00    +0.000 HD
ENDBRANCH  22  25
ENDBRANCH  20  21
ENDBRANCH   4  20
TORSDOF 7
ENDMDL
MODEL 5
REMARK VINA RESULT:    -6.947      2.748      8.969
REMARK INTER + INTRA:         -11.005
REMARK INTER:                  -9.958
REMARK INTRA:                  -1.047
REMARK UNBOUND:                -1.215
REMARK  Name = 
REMARK  7 active torsions:
REMARK  status: ('A' for Active; 'I' for Inactive)
REMARK    1  A    between atoms: C_2  and  C_3
REMARK    2  A    between atoms: C_8  and  C_9
REMARK    3  A    between atoms: N_11  and  C_12
REMARK    4  A    between atoms: C_12  and  C_13
REMARK    5  A    between atoms: C_16  and  C_17
REMARK    6  A    between atoms: C_17  and  N_18
REMARK    7  A    between atoms: C_19  and  C_21
REMARK                            x       y       z     vdW  Elec       q    Type
REMARK                         _______ _______ _______ _____ _____    ______ ____
ROOT
ATOM      1  C   UNL     1      46.822   7.672  13.219  0.00  0.00    +0.000 A 
ATOM      2  C   UNL     1      47.570   6.582  13.685  0.00  0.00    +0.000 A 
ATOM      3  C   UNL     1      48.675   6.778  14.521  0.00  0.00    +0.000 A 
ATOM      4  C   UNL     1      49.043   8.065  14.932  0.00  0.00    +0.000 A 
ATOM      5  C   UNL     1      48.298   9.156  14.463  0.00  0.00    +0.000 A 
ATOM      6  C   UNL     1      47.195   8.962  13.622  0.00  0.00    +0.000 A 
ENDROOT
BRANCH   1   7
ATOM      7  C   UNL     1      45.643   7.455  12.302  0.00  0.00    +0.000 C 
BRANCH   7  10
ATOM      8  C   UNL     1      44.757   5.639  10.890  0.00  0.00    +0.000 C 
ATOM      9  O   UNL     1      43.593   5.980  11.078  0.00  0.00    +0.000 OA
ATOM     10  N   UNL     1      45.830   6.314  11.429  0.00  0.00    +0.000 N 
ATOM     11  H   UNL     1      46.780   6.099  11.161  0.00  0.00    +0.000 HD
BRANCH   8  17
ATOM     12  C   UNL     1      44.596   3.145  10.280  0.00  0.00    +0.000 A 
ATOM     13  C   UNL     1      44.823   2.136   9.326  0.00  0.00    +0.000 A 
ATOM     14  C   UNL     1      45.466   2.421   8.122  0.00  0.00    +0.000 A 
ATOM     15  C   UNL     1      45.892   3.718   7.857  0.00  0.00    +0.000 A 
ATOM     16  C   UNL     1      45.662   4.730   8.792  0.00  0.00    +0.000 A 
ATOM     17  C   UNL     1      45.020   4.460  10.013  0.00  0.00    +0.000 A 
BRANCH  12  19
ATOM     18  N   UNL     1      43.423   2.487  12.494  0.00  0.00    +0.000 NA
ATOM     19  C   UNL     1      43.920   2.775  11.486  0.00  0.00    +0.000 C 
ENDBRANCH  12  19
ENDBRANCH   8  17
ENDBRANCH   7  10
ENDBRANCH   1   7
BRANCH   4  20
ATOM     20  C   UNL     1      50.230   8.278  15.838  0.00  0.00    +0.000 C 
BRANCH  20  21
ATOM     21  N   UNL     1      50.900   7.038  16.143  0.00  0.00    +0.000 N 
ATOM     22  C   UNL     1      51.228   6.702  17.432  0.00  0.00    +0.000 C 
ATOM     23  O   UNL     1      50.928   7.415  18.386  0.00  0.00    +0.000 OA
ATOM     24  H   UNL     1      51.348   6.554  15.371  0.00  0.00    +0.000 HD
BRANCH  22  25
ATOM     25  C   UNL     1      51.902   5.410  17.627  0.00  0.00    +0.000 A 
ATOM     26  C   UNL     1      53.245   5.380  17.979  0.00  0.00    +0.000 A 
ATOM     27  S   UNL     1      53.858   3.805  18.211  0.00  0.00    +0.000 S 
ATOM     28  C   UNL     1      52.364   3.104  17.798  0.00  0.00    +0.000 A 
ATOM     29  N   UNL     1      52.208   1.753  17.774  0.00  0.00    +0.000 NA
ATOM     30  C   UNL     1      51.032   1.357  17.416  0.00  0.00    +0.000 A 
ATOM     31  N   UNL     1      49.995   2.193  17.088  0.00  0.00    +0.000 N 
ATOM     32  C   UNL     1      50.099   3.561  17.126  0.00  0.00    +0.000 A 
ATOM     33  O   UNL     1      49.138   4.280  16.860  0.00  0.00    +0.000 OA
ATOM     34  C   UNL     1      51.405   4.060  17.508  0.00  0.00    +0.000 A 
ATOM     35  H   UNL     1      49.096   1.820  16.823  0.00  0.00    +0.000 HD
ENDBRANCH  22  25
ENDBRANCH  20  21
ENDBRANCH   4  20
TORSDOF 7
ENDMDL
MODEL 6
REMARK VINA RESULT:    -6.714      3.250      8.728
REMARK INTER + INTRA:         -10.676
REMARK INTER:                 -10.426
REMARK INTRA:                  -0.250
REMARK UNBOUND:                -1.215
REMARK  Name = 
REMARK  7 active torsions:
REMARK  status: ('A' for Active; 'I' for Inactive)
REMARK    1  A    between atoms: C_2  and  C_3
REMARK    2  A    between atoms: C_8  and  C_9
REMARK    3  A    between atoms: N_11  and  C_12
REMARK    4  A    between atoms: C_12  and  C_13
REMARK    5  A    between atoms: C_16  and  C_17
REMARK    6  A    between atoms: C_17  and  N_18
REMARK    7  A    between atoms: C_19  and  C_21
REMARK                            x       y       z     vdW  Elec       q    Type
REMARK                         _______ _______ _______ _____ _____    ______ ____
ROOT
ATOM      1  C   UNL     1      44.911   6.692  11.396  0.00  0.00    +0.000 A 
ATOM      2  C   UNL     1      44.933   8.084  11.558  0.00  0.00    +0.000 A 
ATOM      3  C   UNL     1      45.837   8.689  12.439  0.00  0.00    +0.000 A 
ATOM      4  C   UNL     1      46.759   7.918  13.159  0.00  0.00    +0.000 A 
ATOM      5  C   UNL     1      46.734   6.525  13.001  0.00  0.00    +0.000 A 
ATOM      6  C   UNL     1      45.826   5.919  12.124  0.00  0.00    +0.000 A 
ENDROOT
BRANCH   1   7
ATOM      7  C   UNL     1      43.920   6.046  10.460  0.00  0.00    +0.000 C 
BRANCH   7  10
ATOM      8  C   UNL     1      45.473   4.794   9.012  0.00  0.00    +0.000 C 
ATOM      9  O   UNL     1      46.073   5.811   8.675  0.00  0.00    +0.000 OA
ATOM     10  N   UNL     1      44.421   4.807   9.899  0.00  0.00    +0.000 N 
ATOM     11  H   UNL     1      44.024   3.952  10.264  0.00  0.00    +0.000 HD
BRANCH   8  17
ATOM     12  C   UNL     1      45.421   2.228   8.837  0.00  0.00    +0.000 A 
ATOM     13  C   UNL     1      45.865   1.071   8.171  0.00  0.00    +0.000 A 
ATOM     14  C   UNL     1      46.804   1.154   7.143  0.00  0.00    +0.000 A 
ATOM     15  C   UNL     1      47.312   2.393   6.769  0.00  0.00    +0.000 A 
ATOM     16  C   UNL     1      46.870   3.549   7.417  0.00  0.00    +0.000 A 
ATOM     17  C   UNL     1      45.928   3.484   8.458  0.00  0.00    +0.000 A 
BRANCH  12  19
ATOM     18  N   UNL     1      43.634   1.977  10.695  0.00  0.00    +0.000 NA
ATOM     19  C   UNL     1      44.449   2.062   9.874  0.00  0.00    +0.000 C 
ENDBRANCH  12  19
ENDBRANCH   8  17
ENDBRANCH   7  10
ENDBRANCH   1   7
BRANCH   4  20
ATOM     20  C   UNL     1      47.739   8.567  14.104  0.00  0.00    +0.000 C 
BRANCH  20  21
ATOM     21  N   UNL     1      47.990   7.746  15.263  0.00  0.00    +0.000 N 
ATOM     22  C   UNL     1      49.225   7.194  15.492  0.00  0.00    +0.000 C 
ATOM     23  O   UNL     1      50.181   7.408  14.751  0.00  0.00    +0.000 OA
ATOM     24  H   UNL     1      47.179   7.380  15.752  0.00  0.00    +0.000 HD
BRANCH  22  25
ATOM     25  C   UNL     1      49.368   6.380  16.708  0.00  0.00    +0.000 A 
ATOM     26  C   UNL     1      50.198   6.813  17.734  0.00  0.00    +0.000 A 
ATOM     27  S   UNL     1      50.212   5.776  19.088  0.00  0.00    +0.000 S 
ATOM     28  C   UNL     1      49.150   4.683  18.331  0.00  0.00    +0.000 A 
ATOM     29  N   UNL     1      48.765   3.537  18.953  0.00  0.00    +0.000 NA
ATOM     30  C   UNL     1      47.982   2.787  18.254  0.00  0.00    +0.000 A 
ATOM     31  N   UNL     1      47.542   3.084  16.988  0.00  0.00    +0.000 N 
ATOM     32  C   UNL     1      47.882   4.241  16.334  0.00  0.00    +0.000 A 
ATOM     33  O   UNL     1      47.441   4.493  15.215  0.00  0.00    +0.000 OA
ATOM     34  C   UNL     1      48.774   5.116  17.070  0.00  0.00    +0.000 A 
ATOM     35  H   UNL     1      46.923   2.458  16.497  0.00  0.00    +0.000 HD
ENDBRANCH  22  25
ENDBRANCH  20  21
ENDBRANCH   4  20
TORSDOF 7
ENDMDL
MODEL 7
REMARK VINA RESULT:    -6.697      5.563      8.802
REMARK INTER + INTRA:         -10.653
REMARK INTER:                  -9.612
REMARK INTRA:                  -1.041
REMARK UNBOUND:                -1.215
REMARK  Name = 
REMARK  7 active torsions:
REMARK  status: ('A' for Active; 'I' for Inactive)
REMARK    1  A    between atoms: C_2  and  C_3
REMARK    2  A    between atoms: C_8  and  C_9
REMARK    3  A    between atoms: N_11  and  C_12
REMARK    4  A    between atoms: C_12  and  C_13
REMARK    5  A    between atoms: C_16  and  C_17
REMARK    6  A    between atoms: C_17  and  N_18
REMARK    7  A    between atoms: C_19  and  C_21
REMARK                            x       y       z     vdW  Elec       q    Type
REMARK                         _______ _______ _______ _____ _____    ______ ____
ROOT
ATOM      1  C   UNL     1      48.068   7.873  12.456  0.00  0.00    +0.000 A 
ATOM      2  C   UNL     1      49.267   7.174  12.260  0.00  0.00    +0.000 A 
ATOM      3  C   UNL     1      50.401   7.823  11.761  0.00  0.00    +0.000 A 
ATOM      4  C   UNL     1      50.373   9.194  11.472  0.00  0.00    +0.000 A 
ATOM      5  C   UNL     1      49.173   9.893  11.664  0.00  0.00    +0.000 A 
ATOM      6  C   UNL     1      48.035   9.243  12.158  0.00  0.00    +0.000 A 
ENDROOT
BRANCH   1   7
ATOM      7  C   UNL     1      46.843   7.162  12.975  0.00  0.00    +0.000 C 
BRANCH   7  10
ATOM      8  C   UNL     1      45.502   6.038  11.239  0.00  0.00    +0.000 C 
ATOM      9  O   UNL     1      44.864   7.057  10.987  0.00  0.00    +0.000 OA
ATOM     10  N   UNL     1      46.505   5.998  12.180  0.00  0.00    +0.000 N 
ATOM     11  H   UNL     1      47.103   5.190  12.283  0.00  0.00    +0.000 HD
BRANCH   8  17
ATOM     12  C   UNL     1      44.433   3.716  10.949  0.00  0.00    +0.000 A 
ATOM     13  C   UNL     1      44.131   2.643  10.088  0.00  0.00    +0.000 A 
ATOM     14  C   UNL     1      44.578   2.638   8.767  0.00  0.00    +0.000 A 
ATOM     15  C   UNL     1      45.334   3.703   8.290  0.00  0.00    +0.000 A 
ATOM     16  C   UNL     1      45.631   4.777   9.132  0.00  0.00    +0.000 A 
ATOM     17  C   UNL     1      45.193   4.797  10.467  0.00  0.00    +0.000 A 
BRANCH  12  19
ATOM     18  N   UNL     1      43.507   3.544  13.361  0.00  0.00    +0.000 NA
ATOM     19  C   UNL     1      43.930   3.652  12.286  0.00  0.00    +0.000 C 
ENDBRANCH  12  19
ENDBRANCH   8  17
ENDBRANCH   7  10
ENDBRANCH   1   7
BRANCH   4  20
ATOM     20  C   UNL     1      51.597   9.898  10.941  0.00  0.00    +0.000 C 
BRANCH  20  21
ATOM     21  N   UNL     1      52.027   9.345   9.680  0.00  0.00    +0.000 N 
ATOM     22  C   UNL     1      53.235   8.707   9.556  0.00  0.00    +0.000 C 
ATOM     23  O   UNL     1      53.983   8.538  10.516  0.00  0.00    +0.000 OA
ATOM     24  H   UNL     1      51.542   9.665   8.848  0.00  0.00    +0.000 HD
BRANCH  22  25
ATOM     25  C   UNL     1      53.568   8.177   8.226  0.00  0.00    +0.000 A 
ATOM     26  C   UNL     1      53.777   9.052   7.167  0.00  0.00    +0.000 A 
ATOM     27  S   UNL     1      54.200   8.275   5.709  0.00  0.00    +0.000 S 
ATOM     28  C   UNL     1      54.068   6.738   6.426  0.00  0.00    +0.000 A 
ATOM     29  N   UNL     1      54.283   5.607   5.701  0.00  0.00    +0.000 NA
ATOM     30  C   UNL     1      54.121   4.510   6.362  0.00  0.00    +0.000 A 
ATOM     31  N   UNL     1      53.770   4.443   7.687  0.00  0.00    +0.000 N 
ATOM     32  C   UNL     1      53.571   5.557   8.463  0.00  0.00    +0.000 A 
ATOM     33  O   UNL     1      53.292   5.460   9.656  0.00  0.00    +0.000 OA
ATOM     34  C   UNL     1      53.726   6.818   7.766  0.00  0.00    +0.000 A 
ATOM     35  H   UNL     1      53.667   3.552   8.149  0.00  0.00    +0.000 HD
ENDBRANCH  22  25
ENDBRANCH  20  21
ENDBRANCH   4  20
TORSDOF 7
ENDMDL
MODEL 8
REMARK VINA RESULT:    -6.602      2.504      9.326
REMARK INTER + INTRA:         -10.518
REMARK INTER:                  -9.489
REMARK INTRA:                  -1.029
REMARK UNBOUND:                -1.215
REMARK  Name = 
REMARK  7 active torsions:
REMARK  status: ('A' for Active; 'I' for Inactive)
REMARK    1  A    between atoms: C_2  and  C_3
REMARK    2  A    between atoms: C_8  and  C_9
REMARK    3  A    between atoms: N_11  and  C_12
REMARK    4  A    between atoms: C_12  and  C_13
REMARK    5  A    between atoms: C_16  and  C_17
REMARK    6  A    between atoms: C_17  and  N_18
REMARK    7  A    between atoms: C_19  and  C_21
REMARK                            x       y       z     vdW  Elec       q    Type
REMARK                         _______ _______ _______ _____ _____    ______ ____
ROOT
ATOM      1  C   UNL     1      47.455   7.815  13.361  0.00  0.00    +0.000 A 
ATOM      2  C   UNL     1      47.533   8.884  14.264  0.00  0.00    +0.000 A 
ATOM      3  C   UNL     1      48.242   8.756  15.464  0.00  0.00    +0.000 A 
ATOM      4  C   UNL     1      48.914   7.567  15.776  0.00  0.00    +0.000 A 
ATOM      5  C   UNL     1      48.832   6.497  14.874  0.00  0.00    +0.000 A 
ATOM      6  C   UNL     1      48.118   6.621  13.676  0.00  0.00    +0.000 A 
ENDROOT
BRANCH   1   7
ATOM      7  C   UNL     1      46.670   7.953  12.079  0.00  0.00    +0.000 C 
BRANCH   7  10
ATOM      8  C   UNL     1      45.254   6.218  11.050  0.00  0.00    +0.000 C 
ATOM      9  O   UNL     1      44.223   6.855  11.252  0.00  0.00    +0.000 OA
ATOM     10  N   UNL     1      46.501   6.684  11.399  0.00  0.00    +0.000 N 
ATOM     11  H   UNL     1      47.344   6.209  11.112  0.00  0.00    +0.000 HD
BRANCH   8  17
ATOM     12  C   UNL     1      44.569   3.741  10.930  0.00  0.00    +0.000 A 
ATOM     13  C   UNL     1      44.444   2.577  10.149  0.00  0.00    +0.000 A 
ATOM     14  C   UNL     1      44.890   2.551   8.828  0.00  0.00    +0.000 A 
ATOM     15  C   UNL     1      45.469   3.686   8.272  0.00  0.00    +0.000 A 
ATOM     16  C   UNL     1      45.588   4.850   9.035  0.00  0.00    +0.000 A 
ATOM     17  C   UNL     1      45.149   4.894  10.368  0.00  0.00    +0.000 A 
BRANCH  12  19
ATOM     18  N   UNL     1      43.674   3.593  13.356  0.00  0.00    +0.000 NA
ATOM     19  C   UNL     1      44.077   3.692  12.273  0.00  0.00    +0.000 C 
ENDBRANCH  12  19
ENDBRANCH   8  17
ENDBRANCH   7  10
ENDBRANCH   1   7
BRANCH   4  20
ATOM     20  C   UNL     1      49.685   7.430  17.065  0.00  0.00    +0.000 C 
BRANCH  20  21
ATOM     21  N   UNL     1      50.381   6.168  17.140  0.00  0.00    +0.000 N 
ATOM     22  C   UNL     1      49.869   5.113  17.853  0.00  0.00    +0.000 C 
ATOM     23  O   UNL     1      48.780   5.177  18.419  0.00  0.00    +0.000 OA
ATOM     24  H   UNL     1      51.361   6.167  16.878  0.00  0.00    +0.000 HD
BRANCH  22  25
ATOM     25  C   UNL     1      50.659   3.873  17.855  0.00  0.00    +0.000 A 
ATOM     26  C   UNL     1      50.158   2.735  17.237  0.00  0.00    +0.000 A 
ATOM     27  S   UNL     1      51.221   1.402  17.291  0.00  0.00    +0.000 S 
ATOM     28  C   UNL     1      52.367   2.282  18.188  0.00  0.00    +0.000 A 
ATOM     29  N   UNL     1      53.530   1.705  18.594  0.00  0.00    +0.000 NA
ATOM     30  C   UNL     1      54.295   2.478  19.291  0.00  0.00    +0.000 A 
ATOM     31  N   UNL     1      54.003   3.780  19.612  0.00  0.00    +0.000 N 
ATOM     32  C   UNL     1      52.856   4.410  19.200  0.00  0.00    +0.000 A 
ATOM     33  O   UNL     1      52.643   5.589  19.475  0.00  0.00    +0.000 OA
ATOM     34  C   UNL     1      51.953   3.583  18.424  0.00  0.00    +0.000 A 
ATOM     35  H   UNL     1      54.648   4.334  20.154  0.00  0.00    +0.000 HD
ENDBRANCH  22  25
ENDBRANCH  20  21
ENDBRANCH   4  20
TORSDOF 7
ENDMDL
MODEL 9
REMARK VINA RESULT:    -5.682      5.827      9.046
REMARK INTER + INTRA:          -9.222
REMARK INTER:                  -8.156
REMARK INTRA:                  -1.065
REMARK UNBOUND:                -1.215
REMARK  Name = 
REMARK  7 active torsions:
REMARK  status: ('A' for Active; 'I' for Inactive)
REMARK    1  A    between atoms: C_2  and  C_3
REMARK    2  A    between atoms: C_8  and  C_9
REMARK    3  A    between atoms: N_11  and  C_12
REMARK    4  A    between atoms: C_12  and  C_13
REMARK    5  A    between atoms: C_16  and  C_17
REMARK    6  A    between atoms: C_17  and  N_18
REMARK    7  A    between atoms: C_19  and  C_21
REMARK                            x       y       z     vdW  Elec       q    Type
REMARK                         _______ _______ _______ _____ _____    ______ ____
ROOT
ATOM      1  C   UNL     1      47.023   8.091  12.399  0.00  0.00    +0.000 A 
ATOM      2  C   UNL     1      48.372   7.720  12.306  0.00  0.00    +0.000 A 
ATOM      3  C   UNL     1      49.352   8.660  11.972  0.00  0.00    +0.000 A 
ATOM      4  C   UNL     1      49.012  10.001  11.748  0.00  0.00    +0.000 A 
ATOM      5  C   UNL     1      47.663  10.372  11.837  0.00  0.00    +0.000 A 
ATOM      6  C   UNL     1      46.680   9.430  12.166  0.00  0.00    +0.000 A 
ENDROOT
BRANCH   1   7
ATOM      7  C   UNL     1      45.969   7.066  12.739  0.00  0.00    +0.000 C 
BRANCH   7  10
ATOM      8  C   UNL     1      44.896   5.633  11.045  0.00  0.00    +0.000 C 
ATOM      9  O   UNL     1      43.872   6.310  11.034  0.00  0.00    +0.000 OA
ATOM     10  N   UNL     1      45.985   5.938  11.830  0.00  0.00    +0.000 N 
ATOM     11  H   UNL     1      46.863   5.448  11.732  0.00  0.00    +0.000 HD
BRANCH   8  17
ATOM     12  C   UNL     1      44.442   3.176  10.435  0.00  0.00    +0.000 A 
ATOM     13  C   UNL     1      44.495   2.161   9.460  0.00  0.00    +0.000 A 
ATOM     14  C   UNL     1      45.069   2.399   8.211  0.00  0.00    +0.000 A 
ATOM     15  C   UNL     1      45.600   3.651   7.922  0.00  0.00    +0.000 A 
ATOM     16  C   UNL     1      45.543   4.667   8.878  0.00  0.00    +0.000 A 
ATOM     17  C   UNL     1      44.973   4.446  10.143  0.00  0.00    +0.000 A 
BRANCH  12  19
ATOM     18  N   UNL     1      43.372   2.631  12.730  0.00  0.00    +0.000 NA
ATOM     19  C   UNL     1      43.827   2.858  11.687  0.00  0.00    +0.000 C 
ENDBRANCH  12  19
ENDBRANCH   8  17
ENDBRANCH   7  10
ENDBRANCH   1   7
BRANCH   4  20
ATOM     20  C   UNL     1      50.068  11.019  11.395  0.00  0.00    +0.000 C 
BRANCH  20  21
ATOM     21  N   UNL     1      51.336  10.396  11.108  0.00  0.00    +0.000 N 
ATOM     22  C   UNL     1      51.931  10.522   9.877  0.00  0.00    +0.000 C 
ATOM     23  O   UNL     1      51.436  11.204   8.983  0.00  0.00    +0.000 OA
ATOM     24  H   UNL     1      51.642   9.661  11.738  0.00  0.00    +0.000 HD
BRANCH  22  25
ATOM     25  C   UNL     1      53.226   9.850   9.698  0.00  0.00    +0.000 A 
ATOM     26  C   UNL     1      54.348  10.595   9.360  0.00  0.00    +0.000 A 
ATOM     27  S   UNL     1      55.775   9.669   9.238  0.00  0.00    +0.000 S 
ATOM     28  C   UNL     1      54.935   8.230   9.582  0.00  0.00    +0.000 A 
ATOM     29  N   UNL     1      55.580   7.033   9.609  0.00  0.00    +0.000 NA
ATOM     30  C   UNL     1      54.817   6.020   9.853  0.00  0.00    +0.000 A 
ATOM     31  N   UNL     1      53.466   6.099  10.080  0.00  0.00    +0.000 N 
ATOM     32  C   UNL     1      52.779   7.287  10.090  0.00  0.00    +0.000 A 
ATOM     33  O   UNL     1      51.575   7.325  10.332  0.00  0.00    +0.000 OA
ATOM     34  C   UNL     1      53.587   8.457   9.807  0.00  0.00    +0.000 A 
ATOM     35  H   UNL     1      52.926   5.269  10.273  0.00  0.00    +0.000 HD
ENDBRANCH  22  25
ENDBRANCH  20  21
ENDBRANCH   4  20
TORSDOF 7
ENDMDL
