MODEL 1
REMARK VINA RESULT:    -7.457      0.000      0.000
REMARK INTER + INTRA:         -10.978
REMARK INTER:                 -10.073
REMARK INTRA:                  -0.905
REMARK UNBOUND:                -0.905
REMARK  Name = 
REMARK  6 active torsions:
REMARK  status: ('A' for Active; 'I' for Inactive)
REMARK    1  A    between atoms: C_2  and  C_3
REMARK    2  A    between atoms: C_7  and  C_8
REMARK    3  A    between atoms: C_8  and  C_9
REMARK    4  A    between atoms: C_12  and  C_13
REMARK    5  A    between atoms: C_13  and  N_14
REMARK    6  A    between atoms: C_15  and  C_17
REMARK                            x       y       z     vdW  Elec       q    Type
REMARK                         _______ _______ _______ _____ _____    ______ ____
ROOT
ATOM      1  C   UNL     1      47.124   4.814  15.402  0.00  0.00    +0.000 C 
ENDROOT
BRANCH   1   5
ATOM      2  C   UNL     1      45.211   4.171  11.711  0.00  0.00    +0.000 A 
ATOM      3  C   UNL     1      45.719   3.112  12.455  0.00  0.00    +0.000 A 
ATOM      4  N   UNL     1      46.359   3.281  13.637  0.00  0.00    +0.000 NA
ATOM      5  C   UNL     1      46.480   4.565  14.065  0.00  0.00    +0.000 A 
ATOM      6  C   UNL     1      46.013   5.628  13.301  0.00  0.00    +0.000 A 
ATOM      7  N   UNL     1      45.368   5.456  12.121  0.00  0.00    +0.000 NA
BRANCH   2   8
ATOM      8  C   UNL     1      44.405   3.917  10.461  0.00  0.00    +0.000 C 
BRANCH   8  13
ATOM      9  C   UNL     1      46.259   1.771   7.895  0.00  0.00    +0.000 A 
ATOM     10  C   UNL     1      46.680   2.731   6.972  0.00  0.00    +0.000 A 
ATOM     11  C   UNL     1      46.402   4.079   7.196  0.00  0.00    +0.000 A 
ATOM     12  C   UNL     1      45.696   4.471   8.339  0.00  0.00    +0.000 A 
ATOM     13  C   UNL     1      45.241   3.514   9.259  0.00  0.00    +0.000 A 
ATOM     14  C   UNL     1      45.535   2.166   9.026  0.00  0.00    +0.000 A 
BRANCH   9  16
ATOM     15  N   UNL     1      46.811  -0.733   7.542  0.00  0.00    +0.000 NA
ATOM     16  C   UNL     1      46.570   0.391   7.694  0.00  0.00    +0.000 C 
ENDBRANCH   9  16
ENDBRANCH   8  13
ENDBRANCH   2   8
ENDBRANCH   1   5
BRANCH   1  17
ATOM     17  N   UNL     1      47.913   6.021  15.427  0.00  0.00    +0.000 N 
ATOM     18  C   UNL     1      49.106   6.084  16.099  0.00  0.00    +0.000 C 
ATOM     19  O   UNL     1      49.583   5.109  16.674  0.00  0.00    +0.000 OA
ATOM     20  H   UNL     1      47.434   6.879  15.172  0.00  0.00    +0.000 HD
BRANCH  18  21
ATOM     21  C   UNL     1      49.821   7.357  16.022  0.00  0.00    +0.000 A 
ATOM     22  C   UNL     1      50.186   8.021  17.184  0.00  0.00    +0.000 A 
ATOM     23  S   UNL     1      51.067   9.454  16.897  0.00  0.00    +0.000 S 
ATOM     24  C   UNL     1      50.937   9.262  15.210  0.00  0.00    +0.000 A 
ATOM     25  N   UNL     1      51.470  10.174  14.355  0.00  0.00    +0.000 NA
ATOM     26  C   UNL     1      51.261   9.919  13.105  0.00  0.00    +0.000 A 
ATOM     27  N   UNL     1      50.574   8.830  12.633  0.00  0.00    +0.000 N 
ATOM     28  C   UNL     1      50.045   7.868  13.459  0.00  0.00    +0.000 A 
ATOM     29  O   UNL     1      49.481   6.878  13.006  0.00  0.00    +0.000 OA
ATOM     30  C   UNL     1      50.245   8.113  14.873  0.00  0.00    +0.000 A 
ATOM     31  H   UNL     1      50.452   8.681  11.643  0.00  0.00    +0.000 HD
ENDBRANCH  18  21
ENDBRANCH   1  17
TORSDOF 6
ENDMDL
MODEL 2
REMARK VINA RESULT:    -7.368      2.128      3.338
REMARK INTER + INTRA:         -10.857
REMARK INTER:                  -9.936
REMARK INTRA:                  -0.921
REMARK UNBOUND:                -0.905
REMARK  Name = 
REMARK  6 active torsions:
REMARK  status: ('A' for Active; 'I' for Inactive)
REMARK    1  A    between atoms: C_2  and  C_3
REMARK    2  A    between atoms: C_7  and  C_8
REMARK    3  A    between atoms: C_8  and  C_9
REMARK    4  A    between atoms: C_12  and  C_13
REMARK    5  A    between atoms: C_13  and  N_14
REMARK    6  A    between atoms: C_15  and  C_17
REMARK                            x       y       z     vdW  Elec       q    Type
REMARK                         _______ _______ _______ _____ _____    ______ ____
ROOT
ATOM      1  C   UNL     1      46.767   8.693  13.077  0.00  0.00    +0.000 C 
ENDROOT
BRANCH   1   5
ATOM      2  C   UNL     1      44.983   5.314  11.317  0.00  0.00    +0.000 A 
ATOM      3  C   UNL     1      44.377   6.564  11.258  0.00  0.00    +0.000 A 
ATOM      4  N   UNL     1      44.910   7.671  11.829  0.00  0.00    +0.000 NA
ATOM      5  C   UNL     1      46.092   7.490  12.476  0.00  0.00    +0.000 A 
ATOM      6  C   UNL     1      46.676   6.233  12.575  0.00  0.00    +0.000 A 
ATOM      7  N   UNL     1      46.144   5.128  11.997  0.00  0.00    +0.000 NA
BRANCH   2   8
ATOM      8  C   UNL     1      44.406   4.142  10.563  0.00  0.00    +0.000 C 
BRANCH   8  13
ATOM      9  C   UNL     1      46.213   1.930   8.020  0.00  0.00    +0.000 A 
ATOM     10  C   UNL     1      46.663   2.871   7.091  0.00  0.00    +0.000 A 
ATOM     11  C   UNL     1      46.418   4.228   7.304  0.00  0.00    +0.000 A 
ATOM     12  C   UNL     1      45.719   4.646   8.441  0.00  0.00    +0.000 A 
ATOM     13  C   UNL     1      45.236   3.708   9.367  0.00  0.00    +0.000 A 
ATOM     14  C   UNL     1      45.496   2.351   9.146  0.00  0.00    +0.000 A 
BRANCH   9  16
ATOM     15  N   UNL     1      46.728  -0.583   7.666  0.00  0.00    +0.000 NA
ATOM     16  C   UNL     1      46.490   0.540   7.830  0.00  0.00    +0.000 C 
ENDBRANCH   9  16
ENDBRANCH   8  13
ENDBRANCH   2   8
ENDBRANCH   1   5
BRANCH   1  17
ATOM     17  N   UNL     1      47.131   8.498  14.460  0.00  0.00    +0.000 N 
ATOM     18  C   UNL     1      48.186   9.167  15.024  0.00  0.00    +0.000 C 
ATOM     19  O   UNL     1      48.844   9.993  14.398  0.00  0.00    +0.000 OA
ATOM     20  H   UNL     1      46.765   7.665  14.909  0.00  0.00    +0.000 HD
BRANCH  18  21
ATOM     21  C   UNL     1      48.431   8.901  16.441  0.00  0.00    +0.000 A 
ATOM     22  C   UNL     1      48.351   9.932  17.366  0.00  0.00    +0.000 A 
ATOM     23  S   UNL     1      48.605   9.421  18.973  0.00  0.00    +0.000 S 
ATOM     24  C   UNL     1      48.888   7.817  18.477  0.00  0.00    +0.000 A 
ATOM     25  N   UNL     1      49.192   6.845  19.378  0.00  0.00    +0.000 NA
ATOM     26  C   UNL     1      49.419   5.686  18.854  0.00  0.00    +0.000 A 
ATOM     27  N   UNL     1      49.363   5.408  17.513  0.00  0.00    +0.000 N 
ATOM     28  C   UNL     1      49.031   6.351  16.570  0.00  0.00    +0.000 A 
ATOM     29  O   UNL     1      48.937   6.062  15.383  0.00  0.00    +0.000 OA
ATOM     30  C   UNL     1      48.775   7.673  17.107  0.00  0.00    +0.000 A 
ATOM     31  H   UNL     1      49.542   4.478  17.166  0.00  0.00    +0.000 HD
ENDBRANCH  18  21
ENDBRANCH   1  17
TORSDOF 6
ENDMDL
MODEL 3
REMARK VINA RESULT:    -7.347      2.526      3.969
REMARK INTER + INTRA:         -10.829
REMARK INTER:                 -10.372
REMARK INTRA:                  -0.457
REMARK UNBOUND:                -0.905
REMARK  Name = 
REMARK  6 active torsions:
REMARK  status: ('A' for Active; 'I' for Inactive)
REMARK    1  A    between atoms: C_2  and  C_3
REMARK    2  A    between atoms: C_7  and  C_8
REMARK    3  A    between atoms: C_8  and  C_9
REMARK    4  A    between atoms: C_12  and  C_13
REMARK    5  A    between atoms: C_13  and  N_14
REMARK    6  A    between atoms: C_15  and  C_17
REMARK                            x       y       z     vdW  Elec       q    Type
REMARK                         _______ _______ _______ _____ _____    ______ ____
ROOT
ATOM      1  C   UNL     1      47.468   7.026  13.778  0.00  0.00    +0.000 C 
ENDROOT
BRANCH   1   5
ATOM      2  C   UNL     1      45.140   4.859  11.025  0.00  0.00    +0.000 A 
ATOM      3  C   UNL     1      45.693   6.091  10.692  0.00  0.00    +0.000 A 
ATOM      4  N   UNL     1      46.431   6.827  11.557  0.00  0.00    +0.000 NA
ATOM      5  C   UNL     1      46.605   6.287  12.792  0.00  0.00    +0.000 A 
ATOM      6  C   UNL     1      46.015   5.078  13.141  0.00  0.00    +0.000 A 
ATOM      7  N   UNL     1      45.281   4.341  12.272  0.00  0.00    +0.000 NA
BRANCH   2   8
ATOM      8  C   UNL     1      44.427   4.029   9.986  0.00  0.00    +0.000 C 
BRANCH   8  13
ATOM      9  C   UNL     1      46.370   1.597   7.764  0.00  0.00    +0.000 A 
ATOM     10  C   UNL     1      46.917   2.457   6.810  0.00  0.00    +0.000 A 
ATOM     11  C   UNL     1      46.694   3.831   6.904  0.00  0.00    +0.000 A 
ATOM     12  C   UNL     1      45.918   4.347   7.948  0.00  0.00    +0.000 A 
ATOM     13  C   UNL     1      45.337   3.491   8.896  0.00  0.00    +0.000 A 
ATOM     14  C   UNL     1      45.577   2.116   8.795  0.00  0.00    +0.000 A 
BRANCH   9  16
ATOM     15  N   UNL     1      46.812  -0.951   7.643  0.00  0.00    +0.000 NA
ATOM     16  C   UNL     1      46.623   0.192   7.698  0.00  0.00    +0.000 C 
ENDBRANCH   9  16
ENDBRANCH   8  13
ENDBRANCH   2   8
ENDBRANCH   1   5
BRANCH   1  17
ATOM     17  N   UNL     1      47.519   6.383  15.069  0.00  0.00    +0.000 N 
ATOM     18  C   UNL     1      48.705   6.199  15.731  0.00  0.00    +0.000 C 
ATOM     19  O   UNL     1      49.773   6.607  15.282  0.00  0.00    +0.000 OA
ATOM     20  H   UNL     1      46.705   5.839  15.334  0.00  0.00    +0.000 HD
BRANCH  18  21
ATOM     21  C   UNL     1      48.616   5.561  17.043  0.00  0.00    +0.000 A 
ATOM     22  C   UNL     1      48.803   4.191  17.165  0.00  0.00    +0.000 A 
ATOM     23  S   UNL     1      48.725   3.637  18.777  0.00  0.00    +0.000 S 
ATOM     24  C   UNL     1      48.382   5.201  19.356  0.00  0.00    +0.000 A 
ATOM     25  N   UNL     1      48.176   5.432  20.680  0.00  0.00    +0.000 NA
ATOM     26  C   UNL     1      47.888   6.658  20.968  0.00  0.00    +0.000 A 
ATOM     27  N   UNL     1      47.794   7.676  20.055  0.00  0.00    +0.000 N 
ATOM     28  C   UNL     1      48.024   7.495  18.712  0.00  0.00    +0.000 A 
ATOM     29  O   UNL     1      47.985   8.435  17.925  0.00  0.00    +0.000 OA
ATOM     30  C   UNL     1      48.343   6.133  18.335  0.00  0.00    +0.000 A 
ATOM     31  H   UNL     1      47.574   8.617  20.345  0.00  0.00    +0.000 HD
ENDBRANCH  18  21
ENDBRANCH   1  17
TORSDOF 6
ENDMDL
MODEL 4
REMARK VINA RESULT:    -7.342      2.404      4.106
REMARK INTER + INTRA:         -10.822
REMARK INTER:                  -9.966
REMARK INTRA:                  -0.857
REMARK UNBOUND:                -0.905
REMARK  Name = 
REMARK  6 active torsions:
REMARK  status: ('A' for Active; 'I' for Inactive)
REMARK    1  A    between atoms: C_2  and  C_3
REMARK    2  A    between atoms: C_7  and  C_8
REMARK    3  A    between atoms: C_8  and  C_9
REMARK    4  A    between atoms: C_12  and  C_13
REMARK    5  A    between atoms: C_13  and  N_14
REMARK    6  A    between atoms: C_15  and  C_17
REMARK                            x       y       z     vdW  Elec       q    Type
REMARK                         _______ _______ _______ _____ _____    ______ ____
ROOT
ATOM      1  C   UNL     1      47.573   8.332  13.768  0.00  0.00    +0.000 C 
ENDROOT
BRANCH   1   5
ATOM      2  C   UNL     1      44.754   6.435  11.287  0.00  0.00    +0.000 A 
ATOM      3  C   UNL     1      45.939   5.804  11.649  0.00  0.00    +0.000 A 
ATOM      4  N   UNL     1      46.879   6.389  12.429  0.00  0.00    +0.000 NA
ATOM      5  C   UNL     1      46.597   7.652  12.847  0.00  0.00    +0.000 A 
ATOM      6  C   UNL     1      45.435   8.301  12.448  0.00  0.00    +0.000 A 
ATOM      7  N   UNL     1      44.493   7.711  11.672  0.00  0.00    +0.000 NA
BRANCH   2   8
ATOM      8  C   UNL     1      43.692   5.694  10.515  0.00  0.00    +0.000 C 
BRANCH   8  13
ATOM      9  C   UNL     1      45.413   3.246   8.134  0.00  0.00    +0.000 A 
ATOM     10  C   UNL     1      45.190   2.023   8.771  0.00  0.00    +0.000 A 
ATOM     11  C   UNL     1      44.447   1.981   9.951  0.00  0.00    +0.000 A 
ATOM     12  C   UNL     1      43.932   3.161  10.500  0.00  0.00    +0.000 A 
ATOM     13  C   UNL     1      44.175   4.399   9.886  0.00  0.00    +0.000 A 
ATOM     14  C   UNL     1      44.914   4.426   8.698  0.00  0.00    +0.000 A 
BRANCH   9  16
ATOM     15  N   UNL     1      46.731   3.320   5.907  0.00  0.00    +0.000 NA
ATOM     16  C   UNL     1      46.142   3.296   6.905  0.00  0.00    +0.000 C 
ENDBRANCH   9  16
ENDBRANCH   8  13
ENDBRANCH   2   8
ENDBRANCH   1   5
BRANCH   1  17
ATOM     17  N   UNL     1      47.890   7.540  14.932  0.00  0.00    +0.000 N 
ATOM     18  C   UNL     1      49.125   6.970  15.095  0.00  0.00    +0.000 C 
ATOM     19  O   UNL     1      50.033   7.138  14.286  0.00  0.00    +0.000 OA
ATOM     20  H   UNL     1      47.102   7.199  15.473  0.00  0.00    +0.000 HD
BRANCH  18  21
ATOM     21  C   UNL     1      49.326   6.216  16.332  0.00  0.00    +0.000 A 
ATOM     22  C   UNL     1      50.325   6.590  17.219  0.00  0.00    +0.000 A 
ATOM     23  S   UNL     1      50.367   5.635  18.633  0.00  0.00    +0.000 S 
ATOM     24  C   UNL     1      49.090   4.656  18.076  0.00  0.00    +0.000 A 
ATOM     25  N   UNL     1      48.633   3.609  18.813  0.00  0.00    +0.000 NA
ATOM     26  C   UNL     1      47.688   2.933  18.249  0.00  0.00    +0.000 A 
ATOM     27  N   UNL     1      47.153   3.211  17.017  0.00  0.00    +0.000 N 
ATOM     28  C   UNL     1      47.563   4.276  16.251  0.00  0.00    +0.000 A 
ATOM     29  O   UNL     1      47.031   4.531  15.177  0.00  0.00    +0.000 OA
ATOM     30  C   UNL     1      48.630   5.062  16.837  0.00  0.00    +0.000 A 
ATOM     31  H   UNL     1      46.409   2.649  16.634  0.00  0.00    +0.000 HD
ENDBRANCH  18  21
ENDBRANCH   1  17
TORSDOF 6
ENDMDL
MODEL 5
REMARK VINA RESULT:    -7.227      2.003      2.916
REMARK INTER + INTRA:         -10.667
REMARK INTER:                  -9.860
REMARK INTRA:                  -0.808
REMARK UNBOUND:                -0.905
REMARK  Name = 
REMARK  6 active torsions:
REMARK  status: ('A' for Active; 'I' for Inactive)
REMARK    1  A    between atoms: C_2  and  C_3
REMARK    2  A    between atoms: C_7  and  C_8
REMARK    3  A    between atoms: C_8  and  C_9
REMARK    4  A    between atoms: C_12  and  C_13
REMARK    5  A    between atoms: C_13  and  N_14
REMARK    6  A    between atoms: C_15  and  C_17
REMARK                            x       y       z     vdW  Elec       q    Type
REMARK                         _______ _______ _______ _____ _____    ______ ____
ROOT
ATOM      1  C   UNL     1      47.513   4.683  15.504  0.00  0.00    +0.000 C 
ENDROOT
BRANCH   1   5
ATOM      2  C   UNL     1      45.425   4.259  11.876  0.00  0.00    +0.000 A 
ATOM      3  C   UNL     1      45.875   3.150  12.585  0.00  0.00    +0.000 A 
ATOM      4  N   UNL     1      46.568   3.247  13.745  0.00  0.00    +0.000 NA
ATOM      5  C   UNL     1      46.804   4.510  14.188  0.00  0.00    +0.000 A 
ATOM      6  C   UNL     1      46.394   5.619  13.458  0.00  0.00    +0.000 A 
ATOM      7  N   UNL     1      45.697   5.520  12.300  0.00  0.00    +0.000 NA
BRANCH   2   8
ATOM      8  C   UNL     1      44.557   4.091  10.654  0.00  0.00    +0.000 C 
BRANCH   8  13
ATOM      9  C   UNL     1      46.230   1.904   7.999  0.00  0.00    +0.000 A 
ATOM     10  C   UNL     1      46.618   2.854   7.051  0.00  0.00    +0.000 A 
ATOM     11  C   UNL     1      46.376   4.207   7.284  0.00  0.00    +0.000 A 
ATOM     12  C   UNL     1      45.741   4.614   8.463  0.00  0.00    +0.000 A 
ATOM     13  C   UNL     1      45.319   3.669   9.410  0.00  0.00    +0.000 A 
ATOM     14  C   UNL     1      45.576   2.315   9.167  0.00  0.00    +0.000 A 
BRANCH   9  16
ATOM     15  N   UNL     1      46.714  -0.611   7.620  0.00  0.00    +0.000 NA
ATOM     16  C   UNL     1      46.506   0.518   7.787  0.00  0.00    +0.000 C 
ENDBRANCH   9  16
ENDBRANCH   8  13
ENDBRANCH   2   8
ENDBRANCH   1   5
BRANCH   1  17
ATOM     17  N   UNL     1      47.708   6.069  15.856  0.00  0.00    +0.000 N 
ATOM     18  C   UNL     1      48.941   6.552  16.206  0.00  0.00    +0.000 C 
ATOM     19  O   UNL     1      49.946   5.846  16.197  0.00  0.00    +0.000 OA
ATOM     20  H   UNL     1      46.874   6.594  16.099  0.00  0.00    +0.000 HD
BRANCH  18  21
ATOM     21  C   UNL     1      49.009   7.981  16.513  0.00  0.00    +0.000 A 
ATOM     22  C   UNL     1      49.730   8.835  15.691  0.00  0.00    +0.000 A 
ATOM     23  S   UNL     1      49.641  10.470  16.170  0.00  0.00    +0.000 S 
ATOM     24  C   UNL     1      48.684  10.080  17.523  0.00  0.00    +0.000 A 
ATOM     25  N   UNL     1      48.265  11.040  18.389  0.00  0.00    +0.000 NA
ATOM     26  C   UNL     1      47.580  10.593  19.389  0.00  0.00    +0.000 A 
ATOM     27  N   UNL     1      47.268   9.274  19.598  0.00  0.00    +0.000 N 
ATOM     28  C   UNL     1      47.644   8.274  18.733  0.00  0.00    +0.000 A 
ATOM     29  O   UNL     1      47.307   7.110  18.918  0.00  0.00    +0.000 OA
ATOM     30  C   UNL     1      48.425   8.724  17.598  0.00  0.00    +0.000 A 
ATOM     31  H   UNL     1      46.721   8.989  20.395  0.00  0.00    +0.000 HD
ENDBRANCH  18  21
ENDBRANCH   1  17
TORSDOF 6
ENDMDL
MODEL 6
REMARK VINA RESULT:    -7.151      3.941      5.263
REMARK INTER + INTRA:         -10.564
REMARK INTER:                  -9.828
REMARK INTRA:                  -0.736
REMARK UNBOUND:                -0.905
REMARK  Name = 
REMARK  6 active torsions:
REMARK  status: ('A' for Active; 'I' for Inactive)
REMARK    1  A    between atoms: C_2  and  C_3
REMARK    2  A    between atoms: C_7  and  C_8
REMARK    3  A    between atoms: C_8  and  C_9
REMARK    4  A    between atoms: C_12  and  C_13
REMARK    5  A    between atoms: C_13  and  N_14
REMARK    6  A    between atoms: C_15  and  C_17
REMARK                            x       y       z     vdW  Elec       q    Type
REMARK                         _______ _______ _______ _____ _____    ______ ____
ROOT
ATOM      1  C   UNL     1      48.091   2.854  17.340  0.00  0.00    +0.000 C 
ENDROOT
BRANCH   1   5
ATOM      2  C   UNL     1      47.331   5.317  14.015  0.00  0.00    +0.000 A 
ATOM      3  C   UNL     1      47.132   3.942  13.956  0.00  0.00    +0.000 A 
ATOM      4  N   UNL     1      47.384   3.114  14.998  0.00  0.00    +0.000 NA
ATOM      5  C   UNL     1      47.852   3.711  16.126  0.00  0.00    +0.000 A 
ATOM      6  C   UNL     1      48.094   5.079  16.172  0.00  0.00    +0.000 A 
ATOM      7  N   UNL     1      47.836   5.906  15.130  0.00  0.00    +0.000 NA
BRANCH   2   8
ATOM      8  C   UNL     1      46.922   6.205  12.866  0.00  0.00    +0.000 C 
BRANCH   8  13
ATOM      9  C   UNL     1      44.493   4.727  10.308  0.00  0.00    +0.000 A 
ATOM     10  C   UNL     1      43.268   4.869  10.964  0.00  0.00    +0.000 A 
ATOM     11  C   UNL     1      43.217   5.480  12.216  0.00  0.00    +0.000 A 
ATOM     12  C   UNL     1      44.391   5.943  12.820  0.00  0.00    +0.000 A 
ATOM     13  C   UNL     1      45.633   5.779  12.186  0.00  0.00    +0.000 A 
ATOM     14  C   UNL     1      45.667   5.173  10.926  0.00  0.00    +0.000 A 
BRANCH   9  16
ATOM     15  N   UNL     1      44.611   3.646   7.959  0.00  0.00    +0.000 NA
ATOM     16  C   UNL     1      44.552   4.136   9.008  0.00  0.00    +0.000 C 
ENDBRANCH   9  16
ENDBRANCH   8  13
ENDBRANCH   2   8
ENDBRANCH   1   5
BRANCH   1  17
ATOM     17  N   UNL     1      49.472   2.846  17.756  0.00  0.00    +0.000 N 
ATOM     18  C   UNL     1      50.424   2.141  17.066  0.00  0.00    +0.000 C 
ATOM     19  O   UNL     1      50.160   1.519  16.040  0.00  0.00    +0.000 OA
ATOM     20  H   UNL     1      49.658   3.144  18.708  0.00  0.00    +0.000 HD
BRANCH  18  21
ATOM     21  C   UNL     1      51.792   2.240  17.575  0.00  0.00    +0.000 A 
ATOM     22  C   UNL     1      52.510   1.089  17.867  0.00  0.00    +0.000 A 
ATOM     23  S   UNL     1      54.105   1.400  18.387  0.00  0.00    +0.000 S 
ATOM     24  C   UNL     1      53.866   3.084  18.294  0.00  0.00    +0.000 A 
ATOM     25  N   UNL     1      54.854   3.954  18.631  0.00  0.00    +0.000 NA
ATOM     26  C   UNL     1      54.518   5.199  18.548  0.00  0.00    +0.000 A 
ATOM     27  N   UNL     1      53.287   5.654  18.152  0.00  0.00    +0.000 N 
ATOM     28  C   UNL     1      52.269   4.811  17.774  0.00  0.00    +0.000 A 
ATOM     29  O   UNL     1      51.195   5.247  17.374  0.00  0.00    +0.000 OA
ATOM     30  C   UNL     1      52.593   3.401  17.858  0.00  0.00    +0.000 A 
ATOM     31  H   UNL     1      53.089   6.641  18.099  0.00  0.00    +0.000 HD
ENDBRANCH  18  21
ENDBRANCH   1  17
TORSDOF 6
ENDMDL
MODEL 7
REMARK VINA RESULT:    -7.005      4.165      8.975
REMARK INTER + INTRA:         -10.367
REMARK INTER:                  -9.533
REMARK INTRA:                  -0.835
REMARK UNBOUND:                -0.905
REMARK  Name = 
REMARK  6 active torsions:
REMARK  status: ('A' for Active; 'I' for Inactive)
REMARK    1  A    between atoms: C_2  and  C_3
REMARK    2  A    between atoms: C_7  and  C_8
REMARK    3  A    between atoms: C_8  and  C_9
REMARK    4  A    between atoms: C_12  and  C_13
REMARK    5  A    between atoms: C_13  and  N_14
REMARK    6  A    between atoms: C_15  and  C_17
REMARK                            x       y       z     vdW  Elec       q    Type
REMARK                         _______ _______ _______ _____ _____    ______ ____
ROOT
ATOM      1  C   UNL     1      48.250   7.130  13.207  0.00  0.00    +0.000 C 
ENDROOT
BRANCH   1   5
ATOM      2  C   UNL     1      49.418   5.582  16.940  0.00  0.00    +0.000 A 
ATOM      3  C   UNL     1      48.272   5.128  16.296  0.00  0.00    +0.000 A 
ATOM      4  N   UNL     1      47.853   5.615  15.104  0.00  0.00    +0.000 NA
ATOM      5  C   UNL     1      48.627   6.592  14.561  0.00  0.00    +0.000 A 
ATOM      6  C   UNL     1      49.747   7.078  15.224  0.00  0.00    +0.000 A 
ATOM      7  N   UNL     1      50.167   6.584  16.414  0.00  0.00    +0.000 NA
BRANCH   2   8
ATOM      8  C   UNL     1      49.902   4.921  18.207  0.00  0.00    +0.000 C 
BRANCH   8  13
ATOM      9  C   UNL     1      52.941   2.600  18.211  0.00  0.00    +0.000 A 
ATOM     10  C   UNL     1      52.408   1.431  17.662  0.00  0.00    +0.000 A 
ATOM     11  C   UNL     1      51.076   1.402  17.251  0.00  0.00    +0.000 A 
ATOM     12  C   UNL     1      50.271   2.538  17.394  0.00  0.00    +0.000 A 
ATOM     13  C   UNL     1      50.785   3.709  17.972  0.00  0.00    +0.000 A 
ATOM     14  C   UNL     1      52.127   3.726  18.371  0.00  0.00    +0.000 A 
BRANCH   9  16
ATOM     15  N   UNL     1      55.428   2.680  18.927  0.00  0.00    +0.000 NA
ATOM     16  C   UNL     1      54.315   2.652  18.602  0.00  0.00    +0.000 C 
ENDBRANCH   9  16
ENDBRANCH   8  13
ENDBRANCH   2   8
ENDBRANCH   1   5
BRANCH   1  17
ATOM     17  N   UNL     1      47.492   6.187  12.421  0.00  0.00    +0.000 N 
ATOM     18  C   UNL     1      46.388   6.574  11.707  0.00  0.00    +0.000 C 
ATOM     19  O   UNL     1      46.014   7.743  11.665  0.00  0.00    +0.000 OA
ATOM     20  H   UNL     1      47.636   5.205  12.633  0.00  0.00    +0.000 HD
BRANCH  18  21
ATOM     21  C   UNL     1      45.726   5.527  10.929  0.00  0.00    +0.000 A 
ATOM     22  C   UNL     1      45.778   5.554   9.543  0.00  0.00    +0.000 A 
ATOM     23  S   UNL     1      45.006   4.220   8.811  0.00  0.00    +0.000 S 
ATOM     24  C   UNL     1      44.529   3.596  10.322  0.00  0.00    +0.000 A 
ATOM     25  N   UNL     1      43.800   2.452  10.412  0.00  0.00    +0.000 NA
ATOM     26  C   UNL     1      43.478   2.121  11.619  0.00  0.00    +0.000 A 
ATOM     27  N   UNL     1      43.825   2.823  12.744  0.00  0.00    +0.000 N 
ATOM     28  C   UNL     1      44.587   3.967  12.702  0.00  0.00    +0.000 A 
ATOM     29  O   UNL     1      44.926   4.545  13.728  0.00  0.00    +0.000 OA
ATOM     30  C   UNL     1      44.966   4.387  11.368  0.00  0.00    +0.000 A 
ATOM     31  H   UNL     1      43.551   2.506  13.661  0.00  0.00    +0.000 HD
ENDBRANCH  18  21
ENDBRANCH   1  17
TORSDOF 6
ENDMDL
MODEL 8
REMARK VINA RESULT:    -6.968      2.324      3.654
REMARK INTER + INTRA:         -10.317
REMARK INTER:                  -9.887
REMARK INTRA:                  -0.429
REMARK UNBOUND:                -0.905
REMARK  Name = 
REMARK  6 active torsions:
REMARK  status: ('A' for Active; 'I' for Inactive)
REMARK    1  A    between atoms: C_2  and  C_3
REMARK    2  A    between atoms: C_7  and  C_8
REMARK    3  A    between atoms: C_8  and  C_9
REMARK    4  A    between atoms: C_12  and  C_13
REMARK    5  A    between atoms: C_13  and  N_14
REMARK    6  A    between atoms: C_15  and  C_17
REMARK                            x       y       z     vdW  Elec       q    Type
REMARK                         _______ _______ _______ _____ _____    ______ ____
ROOT
ATOM      1  C   UNL     1      45.796   7.796  12.925  0.00  0.00    +0.000 C 
ENDROOT
BRANCH   1   5
ATOM      2  C   UNL     1      44.662   4.979  10.013  0.00  0.00    +0.000 A 
ATOM      3  C   UNL     1      43.771   5.406  10.992  0.00  0.00    +0.000 A 
ATOM      4  N   UNL     1      44.104   6.295  11.957  0.00  0.00    +0.000 NA
ATOM      5  C   UNL     1      45.382   6.757  11.918  0.00  0.00    +0.000 A 
ATOM      6  C   UNL     1      46.287   6.298  10.968  0.00  0.00    +0.000 A 
ATOM      7  N   UNL     1      45.949   5.412  10.000  0.00  0.00    +0.000 NA
BRANCH   2   8
ATOM      8  C   UNL     1      44.203   4.079   8.893  0.00  0.00    +0.000 C 
BRANCH   8  13
ATOM      9  C   UNL     1      46.530   1.395   7.476  0.00  0.00    +0.000 A 
ATOM     10  C   UNL     1      47.351   2.146   6.631  0.00  0.00    +0.000 A 
ATOM     11  C   UNL     1      47.182   3.528   6.548  0.00  0.00    +0.000 A 
ATOM     12  C   UNL     1      46.188   4.161   7.302  0.00  0.00    +0.000 A 
ATOM     13  C   UNL     1      45.337   3.415   8.132  0.00  0.00    +0.000 A 
ATOM     14  C   UNL     1      45.524   2.030   8.212  0.00  0.00    +0.000 A 
BRANCH   9  16
ATOM     15  N   UNL     1      46.874  -1.163   7.677  0.00  0.00    +0.000 NA
ATOM     16  C   UNL     1      46.719  -0.017   7.596  0.00  0.00    +0.000 C 
ENDBRANCH   9  16
ENDBRANCH   8  13
ENDBRANCH   2   8
ENDBRANCH   1   5
BRANCH   1  17
ATOM     17  N   UNL     1      46.556   7.243  14.019  0.00  0.00    +0.000 N 
ATOM     18  C   UNL     1      47.924   7.177  13.979  0.00  0.00    +0.000 C 
ATOM     19  O   UNL     1      48.572   7.621  13.035  0.00  0.00    +0.000 OA
ATOM     20  H   UNL     1      46.044   6.667  14.678  0.00  0.00    +0.000 HD
BRANCH  18  21
ATOM     21  C   UNL     1      48.576   6.621  15.164  0.00  0.00    +0.000 A 
ATOM     22  C   UNL     1      49.646   7.286  15.746  0.00  0.00    +0.000 A 
ATOM     23  S   UNL     1      50.234   6.522  17.153  0.00  0.00    +0.000 S 
ATOM     24  C   UNL     1      49.115   5.248  16.996  0.00  0.00    +0.000 A 
ATOM     25  N   UNL     1      49.092   4.218  17.883  0.00  0.00    +0.000 NA
ATOM     26  C   UNL     1      48.217   3.305  17.616  0.00  0.00    +0.000 A 
ATOM     27  N   UNL     1      47.359   3.331  16.547  0.00  0.00    +0.000 N 
ATOM     28  C   UNL     1      47.326   4.366  15.643  0.00  0.00    +0.000 A 
ATOM     29  O   UNL     1      46.512   4.388  14.727  0.00  0.00    +0.000 OA
ATOM     30  C   UNL     1      48.297   5.412  15.894  0.00  0.00    +0.000 A 
ATOM     31  H   UNL     1      46.691   2.590  16.398  0.00  0.00    +0.000 HD
ENDBRANCH  18  21
ENDBRANCH   1  17
TORSDOF 6
ENDMDL
MODEL 9
REMARK VINA RESULT:    -6.756      3.408      8.645
REMARK INTER + INTRA:         -10.031
REMARK INTER:                  -9.031
REMARK INTRA:                  -0.999
REMARK UNBOUND:                -0.905
REMARK  Name = 
REMARK  6 active torsions:
REMARK  status: ('A' for Active; 'I' for Inactive)
REMARK    1  A    between atoms: C_2  and  C_3
REMARK    2  A    between atoms: C_7  and  C_8
REMARK    3  A    between atoms: C_8  and  C_9
REMARK    4  A    between atoms: C_12  and  C_13
REMARK    5  A    between atoms: C_13  and  N_14
REMARK    6  A    between atoms: C_15  and  C_17
REMARK                            x       y       z     vdW  Elec       q    Type
REMARK                         _______ _______ _______ _____ _____    ______ ____
ROOT
ATOM      1  C   UNL     1      47.263   7.892  11.820  0.00  0.00    +0.000 C 
ENDROOT
BRANCH   1   5
ATOM      2  C   UNL     1      49.742   7.809  15.218  0.00  0.00    +0.000 A 
ATOM      3  C   UNL     1      48.501   8.434  15.244  0.00  0.00    +0.000 A 
ATOM      4  N   UNL     1      47.684   8.500  14.166  0.00  0.00    +0.000 NA
ATOM      5  C   UNL     1      48.151   7.910  13.034  0.00  0.00    +0.000 A 
ATOM      6  C   UNL     1      49.411   7.324  12.993  0.00  0.00    +0.000 A 
ATOM      7  N   UNL     1      50.224   7.255  14.075  0.00  0.00    +0.000 NA
BRANCH   2   8
ATOM      8  C   UNL     1      50.559   7.663  16.478  0.00  0.00    +0.000 C 
BRANCH   8  13
ATOM      9  C   UNL     1      49.562   4.119  17.511  0.00  0.00    +0.000 A 
ATOM     10  C   UNL     1      50.800   3.556  17.832  0.00  0.00    +0.000 A 
ATOM     11  C   UNL     1      51.956   4.333  17.755  0.00  0.00    +0.000 A 
ATOM     12  C   UNL     1      51.879   5.670  17.350  0.00  0.00    +0.000 A 
ATOM     13  C   UNL     1      50.645   6.239  16.996  0.00  0.00    +0.000 A 
ATOM     14  C   UNL     1      49.493   5.450  17.087  0.00  0.00    +0.000 A 
BRANCH   9  16
ATOM     15  N   UNL     1      47.406   2.699  17.708  0.00  0.00    +0.000 NA
ATOM     16  C   UNL     1      48.367   3.342  17.622  0.00  0.00    +0.000 C 
ENDBRANCH   9  16
ENDBRANCH   8  13
ENDBRANCH   2   8
ENDBRANCH   1   5
BRANCH   1  17
ATOM     17  N   UNL     1      46.626   6.615  11.610  0.00  0.00    +0.000 N 
ATOM     18  C   UNL     1      45.262   6.486  11.613  0.00  0.00    +0.000 C 
ATOM     19  O   UNL     1      44.516   7.451  11.751  0.00  0.00    +0.000 OA
ATOM     20  H   UNL     1      47.210   5.794  11.736  0.00  0.00    +0.000 HD
BRANCH  18  21
ATOM     21  C   UNL     1      44.743   5.142  11.361  0.00  0.00    +0.000 A 
ATOM     22  C   UNL     1      44.009   4.485  12.337  0.00  0.00    +0.000 A 
ATOM     23  S   UNL     1      43.434   2.958  11.839  0.00  0.00    +0.000 S 
ATOM     24  C   UNL     1      44.197   3.102  10.325  0.00  0.00    +0.000 A 
ATOM     25  N   UNL     1      44.120   2.109   9.400  0.00  0.00    +0.000 NA
ATOM     26  C   UNL     1      44.780   2.340   8.313  0.00  0.00    +0.000 A 
ATOM     27  N   UNL     1      45.504   3.478   8.063  0.00  0.00    +0.000 N 
ATOM     28  C   UNL     1      45.584   4.520   8.956  0.00  0.00    +0.000 A 
ATOM     29  O   UNL     1      46.196   5.547   8.684  0.00  0.00    +0.000 OA
ATOM     30  C   UNL     1      44.868   4.305  10.197  0.00  0.00    +0.000 A 
ATOM     31  H   UNL     1      45.990   3.603   7.189  0.00  0.00    +0.000 HD
ENDBRANCH  18  21
ENDBRANCH   1  17
TORSDOF 6
ENDMDL
