MODEL 1
REMARK VINA RESULT:    -8.227      0.000      0.000
REMARK INTER + INTRA:         -12.255
REMARK INTER:                 -11.112
REMARK INTRA:                  -1.143
REMARK UNBOUND:                -1.143
REMARK  Name = 
REMARK  7 active torsions:
REMARK  status: ('A' for Active; 'I' for Inactive)
REMARK    1  A    between atoms: C_1  and  C_2
REMARK    2  A    between atoms: C_2  and  C_3
REMARK    3  A    between atoms: C_7  and  C_8
REMARK    4  A    between atoms: C_8  and  C_9
REMARK    5  A    between atoms: C_9  and  N_10
REMARK    6  A    between atoms: N_10  and  C_11
REMARK    7  A    between atoms: C_14  and  C_15
REMARK                            x       y       z     vdW  Elec       q    Type
REMARK                         _______ _______ _______ _____ _____    ______ ____
ROOT
ATOM      1  C   UNL     1      43.153   4.673  11.126  0.00  0.00    +0.000 C 
ENDROOT
BRANCH   1   2
ATOM      2  N   UNL     1      43.769   5.007   9.835  0.00  0.00    +0.000 N 
ATOM      3  H   UNL     1      44.221   5.918   9.845  0.00  0.00    +0.000 HD
BRANCH   2   4
ATOM      4  C   UNL     1      44.607   4.031   9.263  0.00  0.00    +0.000 A 
ATOM      5  C   UNL     1      44.479   2.662   9.538  0.00  0.00    +0.000 A 
ATOM      6  C   UNL     1      45.297   1.714   8.917  0.00  0.00    +0.000 A 
ATOM      7  C   UNL     1      46.237   2.109   7.967  0.00  0.00    +0.000 A 
ATOM      8  C   UNL     1      46.352   3.463   7.641  0.00  0.00    +0.000 A 
ATOM      9  C   UNL     1      45.531   4.409   8.274  0.00  0.00    +0.000 A 
BRANCH   7  10
ATOM     10  C   UNL     1      47.081   1.051   7.351  0.00  0.00    +0.000 C 
ATOM     11  N   UNL     1      46.816  -0.247   7.687  0.00  0.00    +0.000 N 
ATOM     12  O   UNL     1      48.008   1.324   6.602  0.00  0.00    +0.000 OA
ATOM     13  H   UNL     1      46.239  -0.497   8.475  0.00  0.00    +0.000 HD
ATOM     14  H   UNL     1      47.487  -0.931   7.358  0.00  0.00    +0.000 HD
ENDBRANCH   7  10
ENDBRANCH   2   4
ENDBRANCH   1   2
BRANCH   1  15
ATOM     15  C   UNL     1      43.556   5.668  12.222  0.00  0.00    +0.000 C 
BRANCH  15  20
ATOM     16  C   UNL     1      47.250   6.406  12.936  0.00  0.00    +0.000 A 
ATOM     17  C   UNL     1      47.632   5.176  13.508  0.00  0.00    +0.000 A 
ATOM     18  C   UNL     1      46.731   4.117  13.633  0.00  0.00    +0.000 A 
ATOM     19  C   UNL     1      45.418   4.262  13.196  0.00  0.00    +0.000 A 
ATOM     20  C   UNL     1      45.005   5.461  12.607  0.00  0.00    +0.000 A 
ATOM     21  C   UNL     1      45.930   6.514  12.467  0.00  0.00    +0.000 A 
BRANCH  16  23
ATOM     22  C   UNL     1      48.778   7.765  11.499  0.00  0.00    +0.000 C 
ATOM     23  C   UNL     1      48.244   7.582  12.933  0.00  0.00    +0.000 C 
ATOM     24  C   UNL     1      47.597   8.861  13.474  0.00  0.00    +0.000 C 
ATOM     25  C   UNL     1      47.959   8.883  14.951  0.00  0.00    +0.000 C 
ATOM     26  O   UNL     1      48.970   7.895  15.175  0.00  0.00    +0.000 OA
ATOM     27  C   UNL     1      49.439   7.470  13.892  0.00  0.00    +0.000 C 
ENDBRANCH  16  23
ENDBRANCH  15  20
ENDBRANCH   1  15
TORSDOF 6
ENDMDL
MODEL 2
REMARK VINA RESULT:    -8.035      0.771      1.509
REMARK INTER + INTRA:         -11.996
REMARK INTER:                 -11.236
REMARK INTRA:                  -0.759
REMARK UNBOUND:                -1.143
REMARK  Name = 
REMARK  7 active torsions:
REMARK  status: ('A' for Active; 'I' for Inactive)
REMARK    1  A    between atoms: C_1  and  C_2
REMARK    2  A    between atoms: C_2  and  C_3
REMARK    3  A    between atoms: C_7  and  C_8
REMARK    4  A    between atoms: C_8  and  C_9
REMARK    5  A    between atoms: C_9  and  N_10
REMARK    6  A    between atoms: N_10  and  C_11
REMARK    7  A    between atoms: C_14  and  C_15
REMARK                            x       y       z     vdW  Elec       q    Type
REMARK                         _______ _______ _______ _____ _____    ______ ____
ROOT
ATOM      1  C   UNL     1      43.020   4.558  11.054  0.00  0.00    +0.000 C 
ENDROOT
BRANCH   1   2
ATOM      2  N   UNL     1      43.779   5.010   9.879  0.00  0.00    +0.000 N 
ATOM      3  H   UNL     1      44.317   5.852  10.065  0.00  0.00    +0.000 HD
BRANCH   2   4
ATOM      4  C   UNL     1      44.561   4.042   9.222  0.00  0.00    +0.000 A 
ATOM      5  C   UNL     1      45.557   4.371   8.291  0.00  0.00    +0.000 A 
ATOM      6  C   UNL     1      46.347   3.388   7.691  0.00  0.00    +0.000 A 
ATOM      7  C   UNL     1      46.192   2.047   8.041  0.00  0.00    +0.000 A 
ATOM      8  C   UNL     1      45.238   1.698   9.001  0.00  0.00    +0.000 A 
ATOM      9  C   UNL     1      44.444   2.692   9.594  0.00  0.00    +0.000 A 
BRANCH   7  10
ATOM     10  C   UNL     1      47.060   1.051   7.358  0.00  0.00    +0.000 C 
ATOM     11  N   UNL     1      46.840  -0.270   7.627  0.00  0.00    +0.000 N 
ATOM     12  O   UNL     1      47.968   1.394   6.615  0.00  0.00    +0.000 OA
ATOM     13  H   UNL     1      46.282  -0.581   8.407  0.00  0.00    +0.000 HD
ATOM     14  H   UNL     1      47.528  -0.914   7.253  0.00  0.00    +0.000 HD
ENDBRANCH   7  10
ENDBRANCH   2   4
ENDBRANCH   1   2
BRANCH   1  15
ATOM     15  C   UNL     1      43.247   5.475  12.263  0.00  0.00    +0.000 C 
BRANCH  15  20
ATOM     16  C   UNL     1      46.800   6.769  12.899  0.00  0.00    +0.000 A 
ATOM     17  C   UNL     1      47.363   5.628  13.505  0.00  0.00    +0.000 A 
ATOM     18  C   UNL     1      46.628   4.454  13.678  0.00  0.00    +0.000 A 
ATOM     19  C   UNL     1      45.305   4.391  13.255  0.00  0.00    +0.000 A 
ATOM     20  C   UNL     1      44.715   5.496  12.634  0.00  0.00    +0.000 A 
ATOM     21  C   UNL     1      45.474   6.668  12.446  0.00  0.00    +0.000 A 
BRANCH  16  23
ATOM     22  C   UNL     1      46.637   9.244  12.591  0.00  0.00    +0.000 C 
ATOM     23  C   UNL     1      47.611   8.077  12.844  0.00  0.00    +0.000 C 
ATOM     24  C   UNL     1      48.432   8.280  14.123  0.00  0.00    +0.000 C 
ATOM     25  C   UNL     1      49.802   7.707  13.798  0.00  0.00    +0.000 C 
ATOM     26  O   UNL     1      49.868   7.487  12.386  0.00  0.00    +0.000 OA
ATOM     27  C   UNL     1      48.738   8.141  11.801  0.00  0.00    +0.000 C 
ENDBRANCH  16  23
ENDBRANCH  15  20
ENDBRANCH   1  15
TORSDOF 6
ENDMDL
MODEL 3
REMARK VINA RESULT:    -7.825      2.490      3.545
REMARK INTER + INTRA:         -11.713
REMARK INTER:                 -10.929
REMARK INTRA:                  -0.783
REMARK UNBOUND:                -1.143
REMARK  Name = 
REMARK  7 active torsions:
REMARK  status: ('A' for Active; 'I' for Inactive)
REMARK    1  A    between atoms: C_1  and  C_2
REMARK    2  A    between atoms: C_2  and  C_3
REMARK    3  A    between atoms: C_7  and  C_8
REMARK    4  A    between atoms: C_8  and  C_9
REMARK    5  A    between atoms: C_9  and  N_10
REMARK    6  A    between atoms: N_10  and  C_11
REMARK    7  A    between atoms: C_14  and  C_15
REMARK                            x       y       z     vdW  Elec       q    Type
REMARK                         _______ _______ _______ _____ _____    ______ ____
ROOT
ATOM      1  C   UNL     1      44.851   5.163  11.720  0.00  0.00    +0.000 C 
ENDROOT
BRANCH   1   2
ATOM      2  N   UNL     1      44.139   4.507  10.615  0.00  0.00    +0.000 N 
ATOM      3  H   UNL     1      43.461   5.121  10.170  0.00  0.00    +0.000 HD
BRANCH   2   4
ATOM      4  C   UNL     1      44.930   3.845   9.657  0.00  0.00    +0.000 A 
ATOM      5  C   UNL     1      44.959   2.450   9.525  0.00  0.00    +0.000 A 
ATOM      6  C   UNL     1      45.721   1.827   8.533  0.00  0.00    +0.000 A 
ATOM      7  C   UNL     1      46.441   2.589   7.615  0.00  0.00    +0.000 A 
ATOM      8  C   UNL     1      46.391   3.983   7.696  0.00  0.00    +0.000 A 
ATOM      9  C   UNL     1      45.628   4.601   8.700  0.00  0.00    +0.000 A 
BRANCH   7  10
ATOM     10  C   UNL     1      47.237   1.863   6.590  0.00  0.00    +0.000 C 
ATOM     11  N   UNL     1      47.947   2.610   5.693  0.00  0.00    +0.000 N 
ATOM     12  O   UNL     1      47.229   0.642   6.518  0.00  0.00    +0.000 OA
ATOM     13  H   UNL     1      47.787   3.596   5.560  0.00  0.00    +0.000 HD
ATOM     14  H   UNL     1      48.370   2.094   4.930  0.00  0.00    +0.000 HD
ENDBRANCH   7  10
ENDBRANCH   2   4
ENDBRANCH   1   2
BRANCH   1  15
ATOM     15  C   UNL     1      45.615   4.151  12.583  0.00  0.00    +0.000 C 
BRANCH  15  20
ATOM     16  C   UNL     1      47.682   4.936  15.716  0.00  0.00    +0.000 A 
ATOM     17  C   UNL     1      48.389   6.065  15.258  0.00  0.00    +0.000 A 
ATOM     18  C   UNL     1      48.184   6.586  13.979  0.00  0.00    +0.000 A 
ATOM     19  C   UNL     1      47.270   5.986  13.119  0.00  0.00    +0.000 A 
ATOM     20  C   UNL     1      46.536   4.875  13.543  0.00  0.00    +0.000 A 
ATOM     21  C   UNL     1      46.736   4.372  14.843  0.00  0.00    +0.000 A 
BRANCH  16  23
ATOM     22  C   UNL     1      47.181   5.026  18.163  0.00  0.00    +0.000 C 
ATOM     23  C   UNL     1      48.032   4.326  17.086  0.00  0.00    +0.000 C 
ATOM     24  C   UNL     1      47.829   2.807  17.090  0.00  0.00    +0.000 C 
ATOM     25  C   UNL     1      49.199   2.233  16.761  0.00  0.00    +0.000 C 
ATOM     26  O   UNL     1      50.160   3.287  16.870  0.00  0.00    +0.000 OA
ATOM     27  C   UNL     1      49.509   4.391  17.506  0.00  0.00    +0.000 C 
ENDBRANCH  16  23
ENDBRANCH  15  20
ENDBRANCH   1  15
TORSDOF 6
ENDMDL
MODEL 4
REMARK VINA RESULT:    -7.662      1.474      2.322
REMARK INTER + INTRA:         -11.492
REMARK INTER:                 -10.622
REMARK INTRA:                  -0.870
REMARK UNBOUND:                -1.143
REMARK  Name = 
REMARK  7 active torsions:
REMARK  status: ('A' for Active; 'I' for Inactive)
REMARK    1  A    between atoms: C_1  and  C_2
REMARK    2  A    between atoms: C_2  and  C_3
REMARK    3  A    between atoms: C_7  and  C_8
REMARK    4  A    between atoms: C_8  and  C_9
REMARK    5  A    between atoms: C_9  and  N_10
REMARK    6  A    between atoms: N_10  and  C_11
REMARK    7  A    between atoms: C_14  and  C_15
REMARK                            x       y       z     vdW  Elec       q    Type
REMARK                         _______ _______ _______ _____ _____    ______ ____
ROOT
ATOM      1  C   UNL     1      44.212   5.445  11.192  0.00  0.00    +0.000 C 
ENDROOT
BRANCH   1   2
ATOM      2  N   UNL     1      43.727   4.799   9.965  0.00  0.00    +0.000 N 
ATOM      3  H   UNL     1      43.301   5.460   9.320  0.00  0.00    +0.000 HD
BRANCH   2   4
ATOM      4  C   UNL     1      44.631   3.950   9.299  0.00  0.00    +0.000 A 
ATOM      5  C   UNL     1      44.607   2.554   9.435  0.00  0.00    +0.000 A 
ATOM      6  C   UNL     1      45.489   1.737   8.723  0.00  0.00    +0.000 A 
ATOM      7  C   UNL     1      46.392   2.294   7.819  0.00  0.00    +0.000 A 
ATOM      8  C   UNL     1      46.404   3.678   7.630  0.00  0.00    +0.000 A 
ATOM      9  C   UNL     1      45.519   4.493   8.354  0.00  0.00    +0.000 A 
BRANCH   7  10
ATOM     10  C   UNL     1      47.308   1.369   7.101  0.00  0.00    +0.000 C 
ATOM     11  N   UNL     1      48.335   1.920   6.389  0.00  0.00    +0.000 N 
ATOM     12  O   UNL     1      47.130   0.159   7.106  0.00  0.00    +0.000 OA
ATOM     13  H   UNL     1      48.370   2.900   6.156  0.00  0.00    +0.000 HD
ATOM     14  H   UNL     1      48.859   1.277   5.806  0.00  0.00    +0.000 HD
ENDBRANCH   7  10
ENDBRANCH   2   4
ENDBRANCH   1   2
BRANCH   1  15
ATOM     15  C   UNL     1      43.652   6.866  11.344  0.00  0.00    +0.000 C 
BRANCH  15  20
ATOM     16  C   UNL     1      47.107   8.191  12.350  0.00  0.00    +0.000 A 
ATOM     17  C   UNL     1      46.895   9.572  12.164  0.00  0.00    +0.000 A 
ATOM     18  C   UNL     1      45.657  10.073  11.755  0.00  0.00    +0.000 A 
ATOM     19  C   UNL     1      44.598   9.204  11.513  0.00  0.00    +0.000 A 
ATOM     20  C   UNL     1      44.764   7.829  11.703  0.00  0.00    +0.000 A 
ATOM     21  C   UNL     1      46.011   7.338  12.136  0.00  0.00    +0.000 A 
BRANCH  16  23
ATOM     22  C   UNL     1      49.431   7.942  11.466  0.00  0.00    +0.000 C 
ATOM     23  C   UNL     1      48.521   7.678  12.681  0.00  0.00    +0.000 C 
ATOM     24  C   UNL     1      49.064   8.326  13.959  0.00  0.00    +0.000 C 
ATOM     25  C   UNL     1      48.718   7.344  15.068  0.00  0.00    +0.000 C 
ATOM     26  O   UNL     1      48.304   6.116  14.460  0.00  0.00    +0.000 OA
ATOM     27  C   UNL     1      48.638   6.197  13.071  0.00  0.00    +0.000 C 
ENDBRANCH  16  23
ENDBRANCH  15  20
ENDBRANCH   1  15
TORSDOF 6
ENDMDL
MODEL 5
REMARK VINA RESULT:    -7.120      1.375      2.463
REMARK INTER + INTRA:         -10.760
REMARK INTER:                  -9.994
REMARK INTRA:                  -0.766
REMARK UNBOUND:                -1.143
REMARK  Name = 
REMARK  7 active torsions:
REMARK  status: ('A' for Active; 'I' for Inactive)
REMARK    1  A    between atoms: C_1  and  C_2
REMARK    2  A    between atoms: C_2  and  C_3
REMARK    3  A    between atoms: C_7  and  C_8
REMARK    4  A    between atoms: C_8  and  C_9
REMARK    5  A    between atoms: C_9  and  N_10
REMARK    6  A    between atoms: N_10  and  C_11
REMARK    7  A    between atoms: C_14  and  C_15
REMARK                            x       y       z     vdW  Elec       q    Type
REMARK                         _______ _______ _______ _____ _____    ______ ____
ROOT
ATOM      1  C   UNL     1      44.334   5.628  11.089  0.00  0.00    +0.000 C 
ENDROOT
BRANCH   1   2
ATOM      2  N   UNL     1      43.793   4.453  10.391  0.00  0.00    +0.000 N 
ATOM      3  H   UNL     1      42.883   4.635   9.973  0.00  0.00    +0.000 HD
BRANCH   2   4
ATOM      4  C   UNL     1      44.650   3.809   9.479  0.00  0.00    +0.000 A 
ATOM      5  C   UNL     1      45.452   4.507   8.564  0.00  0.00    +0.000 A 
ATOM      6  C   UNL     1      46.327   3.838   7.704  0.00  0.00    +0.000 A 
ATOM      7  C   UNL     1      46.458   2.452   7.769  0.00  0.00    +0.000 A 
ATOM      8  C   UNL     1      45.705   1.738   8.706  0.00  0.00    +0.000 A 
ATOM      9  C   UNL     1      44.823   2.417   9.561  0.00  0.00    +0.000 A 
BRANCH   7  10
ATOM     10  C   UNL     1      47.401   1.803   6.821  0.00  0.00    +0.000 C 
ATOM     11  N   UNL     1      48.490   2.523   6.417  0.00  0.00    +0.000 N 
ATOM     12  O   UNL     1      47.196   0.682   6.378  0.00  0.00    +0.000 OA
ATOM     13  H   UNL     1      48.564   3.519   6.556  0.00  0.00    +0.000 HD
ATOM     14  H   UNL     1      49.039   2.109   5.673  0.00  0.00    +0.000 HD
ENDBRANCH   7  10
ENDBRANCH   2   4
ENDBRANCH   1   2
BRANCH   1  15
ATOM     15  C   UNL     1      45.111   5.230  12.350  0.00  0.00    +0.000 C 
BRANCH  15  20
ATOM     16  C   UNL     1      48.138   6.972  13.934  0.00  0.00    +0.000 A 
ATOM     17  C   UNL     1      48.724   7.526  12.779  0.00  0.00    +0.000 A 
ATOM     18  C   UNL     1      48.143   7.372  11.519  0.00  0.00    +0.000 A 
ATOM     19  C   UNL     1      46.962   6.652  11.378  0.00  0.00    +0.000 A 
ATOM     20  C   UNL     1      46.340   6.101  12.502  0.00  0.00    +0.000 A 
ATOM     21  C   UNL     1      46.925   6.282  13.771  0.00  0.00    +0.000 A 
BRANCH  16  23
ATOM     22  C   UNL     1      48.595   5.779  16.082  0.00  0.00    +0.000 C 
ATOM     23  C   UNL     1      48.880   7.063  15.280  0.00  0.00    +0.000 C 
ATOM     24  C   UNL     1      50.382   7.292  15.075  0.00  0.00    +0.000 C 
ATOM     25  C   UNL     1      50.558   8.801  15.158  0.00  0.00    +0.000 C 
ATOM     26  O   UNL     1      49.346   9.362  15.672  0.00  0.00    +0.000 OA
ATOM     27  C   UNL     1      48.551   8.277  16.162  0.00  0.00    +0.000 C 
ENDBRANCH  16  23
ENDBRANCH  15  20
ENDBRANCH   1  15
TORSDOF 6
ENDMDL
MODEL 6
REMARK VINA RESULT:    -6.781      1.815      2.985
REMARK INTER + INTRA:         -10.302
REMARK INTER:                  -9.413
REMARK INTRA:                  -0.889
REMARK UNBOUND:                -1.143
REMARK  Name = 
REMARK  7 active torsions:
REMARK  status: ('A' for Active; 'I' for Inactive)
REMARK    1  A    between atoms: C_1  and  C_2
REMARK    2  A    between atoms: C_2  and  C_3
REMARK    3  A    between atoms: C_7  and  C_8
REMARK    4  A    between atoms: C_8  and  C_9
REMARK    5  A    between atoms: C_9  and  N_10
REMARK    6  A    between atoms: N_10  and  C_11
REMARK    7  A    between atoms: C_14  and  C_15
REMARK                            x       y       z     vdW  Elec       q    Type
REMARK                         _______ _______ _______ _____ _____    ______ ____
ROOT
ATOM      1  C   UNL     1      44.825   5.260  11.569  0.00  0.00    +0.000 C 
ENDROOT
BRANCH   1   2
ATOM      2  N   UNL     1      44.257   4.182  10.747  0.00  0.00    +0.000 N 
ATOM      3  H   UNL     1      43.279   4.342  10.518  0.00  0.00    +0.000 HD
BRANCH   2   4
ATOM      4  C   UNL     1      44.991   3.803   9.607  0.00  0.00    +0.000 A 
ATOM      5  C   UNL     1      45.679   4.723   8.804  0.00  0.00    +0.000 A 
ATOM      6  C   UNL     1      46.436   4.309   7.705  0.00  0.00    +0.000 A 
ATOM      7  C   UNL     1      46.563   2.953   7.407  0.00  0.00    +0.000 A 
ATOM      8  C   UNL     1      45.925   2.013   8.221  0.00  0.00    +0.000 A 
ATOM      9  C   UNL     1      45.161   2.438   9.319  0.00  0.00    +0.000 A 
BRANCH   7  10
ATOM     10  C   UNL     1      47.376   2.581   6.220  0.00  0.00    +0.000 C 
ATOM     11  N   UNL     1      48.617   2.054   6.441  0.00  0.00    +0.000 N 
ATOM     12  O   UNL     1      46.975   2.775   5.081  0.00  0.00    +0.000 OA
ATOM     13  H   UNL     1      49.079   2.109   7.336  0.00  0.00    +0.000 HD
ATOM     14  H   UNL     1      49.197   1.935   5.618  0.00  0.00    +0.000 HD
ENDBRANCH   7  10
ENDBRANCH   2   4
ENDBRANCH   1   2
BRANCH   1  15
ATOM     15  C   UNL     1      44.002   6.550  11.458  0.00  0.00    +0.000 C 
BRANCH  15  20
ATOM     16  C   UNL     1      46.996   8.642  12.627  0.00  0.00    +0.000 A 
ATOM     17  C   UNL     1      46.579   9.916  12.194  0.00  0.00    +0.000 A 
ATOM     18  C   UNL     1      45.346  10.108  11.567  0.00  0.00    +0.000 A 
ATOM     19  C   UNL     1      44.498   9.027  11.349  0.00  0.00    +0.000 A 
ATOM     20  C   UNL     1      44.868   7.750  11.780  0.00  0.00    +0.000 A 
ATOM     21  C   UNL     1      46.105   7.573  12.431  0.00  0.00    +0.000 A 
BRANCH  16  23
ATOM     22  C   UNL     1      48.319   8.439  14.737  0.00  0.00    +0.000 C 
ATOM     23  C   UNL     1      48.414   8.462  13.200  0.00  0.00    +0.000 C 
ATOM     24  C   UNL     1      49.085   7.200  12.645  0.00  0.00    +0.000 C 
ATOM     25  C   UNL     1      49.895   7.685  11.453  0.00  0.00    +0.000 C 
ATOM     26  O   UNL     1      49.946   9.114  11.502  0.00  0.00    +0.000 OA
ATOM     27  C   UNL     1      49.457   9.512  12.786  0.00  0.00    +0.000 C 
ENDBRANCH  16  23
ENDBRANCH  15  20
ENDBRANCH   1  15
TORSDOF 6
ENDMDL
MODEL 7
REMARK VINA RESULT:    -6.513      3.554      5.766
REMARK INTER + INTRA:          -9.941
REMARK INTER:                  -8.841
REMARK INTRA:                  -1.099
REMARK UNBOUND:                -1.143
REMARK  Name = 
REMARK  7 active torsions:
REMARK  status: ('A' for Active; 'I' for Inactive)
REMARK    1  A    between atoms: C_1  and  C_2
REMARK    2  A    between atoms: C_2  and  C_3
REMARK    3  A    between atoms: C_7  and  C_8
REMARK    4  A    between atoms: C_8  and  C_9
REMARK    5  A    between atoms: C_9  and  N_10
REMARK    6  A    between atoms: N_10  and  C_11
REMARK    7  A    between atoms: C_14  and  C_15
REMARK                            x       y       z     vdW  Elec       q    Type
REMARK                         _______ _______ _______ _____ _____    ______ ____
ROOT
ATOM      1  C   UNL     1      48.387   7.268  13.614  0.00  0.00    +0.000 C 
ENDROOT
BRANCH   1   2
ATOM      2  N   UNL     1      46.922   7.369  13.577  0.00  0.00    +0.000 N 
ATOM      3  H   UNL     1      46.604   8.275  13.240  0.00  0.00    +0.000 HD
BRANCH   2   4
ATOM      4  C   UNL     1      46.231   6.320  12.943  0.00  0.00    +0.000 A 
ATOM      5  C   UNL     1      45.618   6.459  11.689  0.00  0.00    +0.000 A 
ATOM      6  C   UNL     1      44.980   5.383  11.067  0.00  0.00    +0.000 A 
ATOM      7  C   UNL     1      44.978   4.123  11.663  0.00  0.00    +0.000 A 
ATOM      8  C   UNL     1      45.622   3.948  12.890  0.00  0.00    +0.000 A 
ATOM      9  C   UNL     1      46.255   5.035  13.512  0.00  0.00    +0.000 A 
BRANCH   7  10
ATOM     10  C   UNL     1      44.274   3.025  10.951  0.00  0.00    +0.000 C 
ATOM     11  N   UNL     1      44.936   2.405   9.928  0.00  0.00    +0.000 N 
ATOM     12  O   UNL     1      43.127   2.708  11.233  0.00  0.00    +0.000 OA
ATOM     13  H   UNL     1      45.765   2.792   9.506  0.00  0.00    +0.000 HD
ATOM     14  H   UNL     1      44.386   1.756   9.379  0.00  0.00    +0.000 HD
ENDBRANCH   7  10
ENDBRANCH   2   4
ENDBRANCH   1   2
BRANCH   1  15
ATOM     15  C   UNL     1      48.981   8.049  14.793  0.00  0.00    +0.000 C 
BRANCH  15  20
ATOM     16  C   UNL     1      49.706   5.074  17.100  0.00  0.00    +0.000 A 
ATOM     17  C   UNL     1      51.096   5.238  17.270  0.00  0.00    +0.000 A 
ATOM     18  C   UNL     1      51.783   6.301  16.682  0.00  0.00    +0.000 A 
ATOM     19  C   UNL     1      51.100   7.227  15.901  0.00  0.00    +0.000 A 
ATOM     20  C   UNL     1      49.719   7.109  15.723  0.00  0.00    +0.000 A 
ATOM     21  C   UNL     1      49.033   6.044  16.339  0.00  0.00    +0.000 A 
BRANCH  16  23
ATOM     22  C   UNL     1      48.828   4.007  19.183  0.00  0.00    +0.000 C 
ATOM     23  C   UNL     1      49.016   3.818  17.665  0.00  0.00    +0.000 C 
ATOM     24  C   UNL     1      47.689   3.541  16.950  0.00  0.00    +0.000 C 
ATOM     25  C   UNL     1      48.041   2.550  15.851  0.00  0.00    +0.000 C 
ATOM     26  O   UNL     1      49.362   2.061  16.101  0.00  0.00    +0.000 OA
ATOM     27  C   UNL     1      49.727   2.478  17.420  0.00  0.00    +0.000 C 
ENDBRANCH  16  23
ENDBRANCH  15  20
ENDBRANCH   1  15
TORSDOF 6
ENDMDL
MODEL 8
REMARK VINA RESULT:    -6.475      3.887      7.277
REMARK INTER + INTRA:          -9.888
REMARK INTER:                  -8.570
REMARK INTRA:                  -1.319
REMARK UNBOUND:                -1.143
REMARK  Name = 
REMARK  7 active torsions:
REMARK  status: ('A' for Active; 'I' for Inactive)
REMARK    1  A    between atoms: C_1  and  C_2
REMARK    2  A    between atoms: C_2  and  C_3
REMARK    3  A    between atoms: C_7  and  C_8
REMARK    4  A    between atoms: C_8  and  C_9
REMARK    5  A    between atoms: C_9  and  N_10
REMARK    6  A    between atoms: N_10  and  C_11
REMARK    7  A    between atoms: C_14  and  C_15
REMARK                            x       y       z     vdW  Elec       q    Type
REMARK                         _______ _______ _______ _____ _____    ______ ____
ROOT
ATOM      1  C   UNL     1      49.379   7.177  12.980  0.00  0.00    +0.000 C 
ENDROOT
BRANCH   1   2
ATOM      2  N   UNL     1      48.998   7.522  14.357  0.00  0.00    +0.000 N 
ATOM      3  H   UNL     1      48.287   8.249  14.392  0.00  0.00    +0.000 HD
BRANCH   2   4
ATOM      4  C   UNL     1      48.671   6.450  15.209  0.00  0.00    +0.000 A 
ATOM      5  C   UNL     1      49.173   6.334  16.513  0.00  0.00    +0.000 A 
ATOM      6  C   UNL     1      48.792   5.282  17.349  0.00  0.00    +0.000 A 
ATOM      7  C   UNL     1      47.860   4.340  16.918  0.00  0.00    +0.000 A 
ATOM      8  C   UNL     1      47.309   4.461  15.639  0.00  0.00    +0.000 A 
ATOM      9  C   UNL     1      47.702   5.517  14.803  0.00  0.00    +0.000 A 
BRANCH   7  10
ATOM     10  C   UNL     1      47.505   3.241  17.855  0.00  0.00    +0.000 C 
ATOM     11  N   UNL     1      48.303   3.058  18.948  0.00  0.00    +0.000 N 
ATOM     12  O   UNL     1      46.559   2.496  17.640  0.00  0.00    +0.000 OA
ATOM     13  H   UNL     1      49.216   3.477  19.031  0.00  0.00    +0.000 HD
ATOM     14  H   UNL     1      48.116   2.225  19.494  0.00  0.00    +0.000 HD
ENDBRANCH   7  10
ENDBRANCH   2   4
ENDBRANCH   1   2
BRANCH   1  15
ATOM     15  C   UNL     1      48.856   8.207  11.971  0.00  0.00    +0.000 C 
BRANCH  15  20
ATOM     16  C   UNL     1      45.447   6.576  11.324  0.00  0.00    +0.000 A 
ATOM     17  C   UNL     1      44.601   7.657  11.645  0.00  0.00    +0.000 A 
ATOM     18  C   UNL     1      45.115   8.896  12.031  0.00  0.00    +0.000 A 
ATOM     19  C   UNL     1      46.490   9.087  12.114  0.00  0.00    +0.000 A 
ATOM     20  C   UNL     1      47.362   8.045  11.787  0.00  0.00    +0.000 A 
ATOM     21  C   UNL     1      46.832   6.805  11.378  0.00  0.00    +0.000 A 
BRANCH  16  23
ATOM     22  C   UNL     1      45.308   4.743   9.631  0.00  0.00    +0.000 C 
ATOM     23  C   UNL     1      44.833   5.196  11.025  0.00  0.00    +0.000 C 
ATOM     24  C   UNL     1      45.190   4.178  12.113  0.00  0.00    +0.000 C 
ATOM     25  C   UNL     1      44.016   4.215  13.079  0.00  0.00    +0.000 C 
ATOM     26  O   UNL     1      42.950   4.938  12.455  0.00  0.00    +0.000 OA
ATOM     27  C   UNL     1      43.300   5.103  11.077  0.00  0.00    +0.000 C 
ENDBRANCH  16  23
ENDBRANCH  15  20
ENDBRANCH   1  15
TORSDOF 6
ENDMDL
MODEL 9
REMARK VINA RESULT:    -5.404      4.265      6.427
REMARK INTER + INTRA:          -8.443
REMARK INTER:                  -7.586
REMARK INTRA:                  -0.856
REMARK UNBOUND:                -1.143
REMARK  Name = 
REMARK  7 active torsions:
REMARK  status: ('A' for Active; 'I' for Inactive)
REMARK    1  A    between atoms: C_1  and  C_2
REMARK    2  A    between atoms: C_2  and  C_3
REMARK    3  A    between atoms: C_7  and  C_8
REMARK    4  A    between atoms: C_8  and  C_9
REMARK    5  A    between atoms: C_9  and  N_10
REMARK    6  A    between atoms: N_10  and  C_11
REMARK    7  A    between atoms: C_14  and  C_15
REMARK                            x       y       z     vdW  Elec       q    Type
REMARK                         _______ _______ _______ _____ _____    ______ ____
ROOT
ATOM      1  C   UNL     1      47.139   3.991  16.103  0.00  0.00    +0.000 C 
ENDROOT
BRANCH   1   2
ATOM      2  N   UNL     1      47.077   3.735  14.657  0.00  0.00    +0.000 N 
ATOM      3  H   UNL     1      46.704   2.813  14.442  0.00  0.00    +0.000 HD
BRANCH   2   4
ATOM      4  C   UNL     1      46.469   4.727  13.865  0.00  0.00    +0.000 A 
ATOM      5  C   UNL     1      45.092   4.750  13.598  0.00  0.00    +0.000 A 
ATOM      6  C   UNL     1      44.514   5.775  12.846  0.00  0.00    +0.000 A 
ATOM      7  C   UNL     1      45.292   6.833  12.378  0.00  0.00    +0.000 A 
ATOM      8  C   UNL     1      46.658   6.858  12.672  0.00  0.00    +0.000 A 
ATOM      9  C   UNL     1      47.232   5.820  13.423  0.00  0.00    +0.000 A 
BRANCH   7  10
ATOM     10  C   UNL     1      44.614   7.887  11.577  0.00  0.00    +0.000 C 
ATOM     11  N   UNL     1      43.438   7.559  10.963  0.00  0.00    +0.000 N 
ATOM     12  O   UNL     1      45.105   8.997  11.432  0.00  0.00    +0.000 OA
ATOM     13  H   UNL     1      43.132   6.605  10.851  0.00  0.00    +0.000 HD
ATOM     14  H   UNL     1      43.071   8.251  10.321  0.00  0.00    +0.000 HD
ENDBRANCH   7  10
ENDBRANCH   2   4
ENDBRANCH   1   2
BRANCH   1  15
ATOM     15  C   UNL     1      47.872   2.868  16.847  0.00  0.00    +0.000 C 
BRANCH  15  20
ATOM     16  C   UNL     1      50.991   5.017  17.447  0.00  0.00    +0.000 A 
ATOM     17  C   UNL     1      51.930   4.002  17.719  0.00  0.00    +0.000 A 
ATOM     18  C   UNL     1      51.579   2.651  17.679  0.00  0.00    +0.000 A 
ATOM     19  C   UNL     1      50.274   2.278  17.373  0.00  0.00    +0.000 A 
ATOM     20  C   UNL     1      49.318   3.255  17.080  0.00  0.00    +0.000 A 
ATOM     21  C   UNL     1      49.690   4.613  17.103  0.00  0.00    +0.000 A 
BRANCH  16  23
ATOM     22  C   UNL     1      51.016   6.933  19.052  0.00  0.00    +0.000 C 
ATOM     23  C   UNL     1      51.396   6.492  17.626  0.00  0.00    +0.000 C 
ATOM     24  C   UNL     1      52.887   6.701  17.337  0.00  0.00    +0.000 C 
ATOM     25  C   UNL     1      52.943   7.120  15.876  0.00  0.00    +0.000 C 
ATOM     26  O   UNL     1      51.613   7.430  15.451  0.00  0.00    +0.000 OA
ATOM     27  C   UNL     1      50.796   7.492  16.625  0.00  0.00    +0.000 C 
ENDBRANCH  16  23
ENDBRANCH  15  20
ENDBRANCH   1  15
TORSDOF 6
ENDMDL
