MODEL 1
REMARK VINA RESULT:    -7.604      0.000      0.000
REMARK INTER + INTRA:         -10.276
REMARK INTER:                  -9.826
REMARK INTRA:                  -0.449
REMARK UNBOUND:                -0.449
REMARK  Name = 
REMARK  6 active torsions:
REMARK  status: ('A' for Active; 'I' for Inactive)
REMARK    1  A    between atoms: C_1  and  S_2
REMARK    2  A    between atoms: S_2  and  C_3
REMARK    3  A    between atoms: C_6  and  C_7
REMARK    4  A    between atoms: C_7  and  O_8
REMARK    5  A    between atoms: O_8  and  C_9
REMARK    6  A    between atoms: C_12  and  C_13
REMARK                            x       y       z     vdW  Elec       q    Type
REMARK                         _______ _______ _______ _____ _____    ______ ____
ROOT
ATOM      1  C   UNL     1      44.479   3.282   9.435  0.00  0.00    +0.000 A 
ATOM      2  C   UNL     1      45.016   4.290   8.656  0.00  0.00    +0.000 A 
ATOM      3  C   UNL     1      45.987   3.948   7.712  0.00  0.00    +0.000 A 
ATOM      4  C   UNL     1      46.392   2.614   7.581  0.00  0.00    +0.000 A 
ATOM      5  C   UNL     1      45.787   1.682   8.409  0.00  0.00    +0.000 A 
ATOM      6  N   UNL     1      44.839   1.984   9.327  0.00  0.00    +0.000 NA
ENDROOT
BRANCH   4   7
ATOM      7  C   UNL     1      47.429   2.258   6.584  0.00  0.00    +0.000 C 
ATOM      8  N   UNL     1      47.472   2.936   5.398  0.00  0.00    +0.000 N 
ATOM      9  O   UNL     1      48.241   1.369   6.812  0.00  0.00    +0.000 OA
ATOM     10  H   UNL     1      46.850   3.673   5.105  0.00  0.00    +0.000 HD
ATOM     11  H   UNL     1      48.193   2.655   4.745  0.00  0.00    +0.000 HD
ENDBRANCH   4   7
BRANCH   1  12
ATOM     12  O   UNL     1      43.532   3.636  10.370  0.00  0.00    +0.000 OA
BRANCH  12  13
ATOM     13  C   UNL     1      43.837   3.103  11.666  0.00  0.00    +0.000 C 
BRANCH  13  17
ATOM     14  C   UNL     1      46.821   5.361  13.605  0.00  0.00    +0.000 A 
ATOM     15  C   UNL     1      46.820   3.971  13.644  0.00  0.00    +0.000 A 
ATOM     16  N   UNL     1      45.880   3.215  13.021  0.00  0.00    +0.000 NA
ATOM     17  C   UNL     1      44.926   3.899  12.336  0.00  0.00    +0.000 A 
ATOM     18  C   UNL     1      44.921   5.289  12.316  0.00  0.00    +0.000 A 
ATOM     19  N   UNL     1      45.861   6.039  12.938  0.00  0.00    +0.000 NA
BRANCH  14  21
ATOM     20  C   UNL     1      48.882   7.076  13.006  0.00  0.00    +0.000 C 
ATOM     21  S   UNL     1      48.094   6.286  14.435  0.00  0.00    +0.000 S 
ENDBRANCH  14  21
ENDBRANCH  13  17
ENDBRANCH  12  13
ENDBRANCH   1  12
TORSDOF 5
ENDMDL
MODEL 2
REMARK VINA RESULT:    -7.536      0.657      1.105
REMARK INTER + INTRA:         -10.188
REMARK INTER:                  -9.762
REMARK INTRA:                  -0.426
REMARK UNBOUND:                -0.449
REMARK  Name = 
REMARK  6 active torsions:
REMARK  status: ('A' for Active; 'I' for Inactive)
REMARK    1  A    between atoms: C_1  and  S_2
REMARK    2  A    between atoms: S_2  and  C_3
REMARK    3  A    between atoms: C_6  and  C_7
REMARK    4  A    between atoms: C_7  and  O_8
REMARK    5  A    between atoms: O_8  and  C_9
REMARK    6  A    between atoms: C_12  and  C_13
REMARK                            x       y       z     vdW  Elec       q    Type
REMARK                         _______ _______ _______ _____ _____    ______ ____
ROOT
ATOM      1  C   UNL     1      44.477   3.424   9.355  0.00  0.00    +0.000 A 
ATOM      2  C   UNL     1      44.835   2.090   9.276  0.00  0.00    +0.000 A 
ATOM      3  C   UNL     1      45.831   1.726   8.367  0.00  0.00    +0.000 A 
ATOM      4  C   UNL     1      46.432   2.704   7.565  0.00  0.00    +0.000 A 
ATOM      5  C   UNL     1      46.001   4.011   7.725  0.00  0.00    +0.000 A 
ATOM      6  N   UNL     1      45.044   4.392   8.603  0.00  0.00    +0.000 NA
ENDROOT
BRANCH   4   7
ATOM      7  C   UNL     1      47.482   2.311   6.595  0.00  0.00    +0.000 C 
ATOM      8  N   UNL     1      47.552   2.957   5.393  0.00  0.00    +0.000 N 
ATOM      9  O   UNL     1      48.280   1.420   6.860  0.00  0.00    +0.000 OA
ATOM     10  H   UNL     1      46.943   3.692   5.070  0.00  0.00    +0.000 HD
ATOM     11  H   UNL     1      48.280   2.652   4.759  0.00  0.00    +0.000 HD
ENDBRANCH   4   7
BRANCH   1  12
ATOM     12  O   UNL     1      43.485   3.765  10.246  0.00  0.00    +0.000 OA
BRANCH  12  13
ATOM     13  C   UNL     1      43.727   3.219  11.550  0.00  0.00    +0.000 C 
BRANCH  13  17
ATOM     14  C   UNL     1      46.733   5.351  13.594  0.00  0.00    +0.000 A 
ATOM     15  C   UNL     1      46.730   3.961  13.548  0.00  0.00    +0.000 A 
ATOM     16  N   UNL     1      45.783   3.246  12.889  0.00  0.00    +0.000 NA
ATOM     17  C   UNL     1      44.823   3.972  12.256  0.00  0.00    +0.000 A 
ATOM     18  C   UNL     1      44.820   5.360  12.323  0.00  0.00    +0.000 A 
ATOM     19  N   UNL     1      45.767   6.070  12.981  0.00  0.00    +0.000 NA
BRANCH  14  21
ATOM     20  C   UNL     1      48.870   6.994  13.068  0.00  0.00    +0.000 C 
ATOM     21  S   UNL     1      48.015   6.222  14.468  0.00  0.00    +0.000 S 
ENDBRANCH  14  21
ENDBRANCH  13  17
ENDBRANCH  12  13
ENDBRANCH   1  12
TORSDOF 5
ENDMDL
MODEL 3
REMARK VINA RESULT:    -7.334      1.548      1.920
REMARK INTER + INTRA:          -9.927
REMARK INTER:                  -9.577
REMARK INTRA:                  -0.350
REMARK UNBOUND:                -0.449
REMARK  Name = 
REMARK  6 active torsions:
REMARK  status: ('A' for Active; 'I' for Inactive)
REMARK    1  A    between atoms: C_1  and  S_2
REMARK    2  A    between atoms: S_2  and  C_3
REMARK    3  A    between atoms: C_6  and  C_7
REMARK    4  A    between atoms: C_7  and  O_8
REMARK    5  A    between atoms: O_8  and  C_9
REMARK    6  A    between atoms: C_12  and  C_13
REMARK                            x       y       z     vdW  Elec       q    Type
REMARK                         _______ _______ _______ _____ _____    ______ ____
ROOT
ATOM      1  C   UNL     1      44.498   3.002   9.328  0.00  0.00    +0.000 A 
ATOM      2  C   UNL     1      44.856   4.027   8.473  0.00  0.00    +0.000 A 
ATOM      3  C   UNL     1      45.833   3.772   7.508  0.00  0.00    +0.000 A 
ATOM      4  C   UNL     1      46.422   2.504   7.432  0.00  0.00    +0.000 A 
ATOM      5  C   UNL     1      45.988   1.546   8.336  0.00  0.00    +0.000 A 
ATOM      6  N   UNL     1      45.038   1.765   9.275  0.00  0.00    +0.000 NA
ENDROOT
BRANCH   4   7
ATOM      7  C   UNL     1      47.464   2.240   6.413  0.00  0.00    +0.000 C 
ATOM      8  N   UNL     1      47.524   3.035   5.302  0.00  0.00    +0.000 N 
ATOM      9  O   UNL     1      48.265   1.323   6.555  0.00  0.00    +0.000 OA
ATOM     10  H   UNL     1      46.913   3.804   5.081  0.00  0.00    +0.000 HD
ATOM     11  H   UNL     1      48.248   2.814   4.629  0.00  0.00    +0.000 HD
ENDBRANCH   4   7
BRANCH   1  12
ATOM     12  O   UNL     1      43.543   3.273  10.283  0.00  0.00    +0.000 OA
BRANCH  12  13
ATOM     13  C   UNL     1      44.094   3.258  11.607  0.00  0.00    +0.000 C 
BRANCH  13  17
ATOM     14  C   UNL     1      45.659   7.037  12.621  0.00  0.00    +0.000 A 
ATOM     15  C   UNL     1      44.577   6.905  11.756  0.00  0.00    +0.000 A 
ATOM     16  N   UNL     1      44.043   5.704  11.419  0.00  0.00    +0.000 NA
ATOM     17  C   UNL     1      44.625   4.614  11.988  0.00  0.00    +0.000 A 
ATOM     18  C   UNL     1      45.717   4.751  12.836  0.00  0.00    +0.000 A 
ATOM     19  N   UNL     1      46.247   5.952  13.170  0.00  0.00    +0.000 NA
BRANCH  14  21
ATOM     20  C   UNL     1      45.107   9.684  12.135  0.00  0.00    +0.000 C 
ATOM     21  S   UNL     1      46.297   8.647  13.027  0.00  0.00    +0.000 S 
ENDBRANCH  14  21
ENDBRANCH  13  17
ENDBRANCH  12  13
ENDBRANCH   1  12
TORSDOF 5
ENDMDL
MODEL 4
REMARK VINA RESULT:    -6.579      3.036      6.385
REMARK INTER + INTRA:          -8.952
REMARK INTER:                  -8.495
REMARK INTRA:                  -0.457
REMARK UNBOUND:                -0.449
REMARK  Name = 
REMARK  6 active torsions:
REMARK  status: ('A' for Active; 'I' for Inactive)
REMARK    1  A    between atoms: C_1  and  S_2
REMARK    2  A    between atoms: S_2  and  C_3
REMARK    3  A    between atoms: C_6  and  C_7
REMARK    4  A    between atoms: C_7  and  O_8
REMARK    5  A    between atoms: O_8  and  C_9
REMARK    6  A    between atoms: C_12  and  C_13
REMARK                            x       y       z     vdW  Elec       q    Type
REMARK                         _______ _______ _______ _____ _____    ______ ____
ROOT
ATOM      1  C   UNL     1      44.739   4.709  12.325  0.00  0.00    +0.000 A 
ATOM      2  C   UNL     1      45.608   3.827  12.940  0.00  0.00    +0.000 A 
ATOM      3  C   UNL     1      46.731   4.348  13.586  0.00  0.00    +0.000 A 
ATOM      4  C   UNL     1      46.951   5.731  13.592  0.00  0.00    +0.000 A 
ATOM      5  C   UNL     1      46.016   6.526  12.949  0.00  0.00    +0.000 A 
ATOM      6  N   UNL     1      44.916   6.048  12.322  0.00  0.00    +0.000 NA
ENDROOT
BRANCH   4   7
ATOM      7  C   UNL     1      48.150   6.278  14.271  0.00  0.00    +0.000 C 
ATOM      8  N   UNL     1      48.152   6.383  15.634  0.00  0.00    +0.000 N 
ATOM      9  O   UNL     1      49.129   6.635  13.627  0.00  0.00    +0.000 OA
ATOM     10  H   UNL     1      47.401   6.132  16.257  0.00  0.00    +0.000 HD
ATOM     11  H   UNL     1      48.989   6.769  16.054  0.00  0.00    +0.000 HD
ENDBRANCH   4   7
BRANCH   1  12
ATOM     12  O   UNL     1      43.643   4.179  11.681  0.00  0.00    +0.000 OA
BRANCH  12  13
ATOM     13  C   UNL     1      43.569   4.607  10.314  0.00  0.00    +0.000 C 
BRANCH  13  17
ATOM     14  C   UNL     1      46.269   2.485   7.871  0.00  0.00    +0.000 A 
ATOM     15  C   UNL     1      46.195   3.874   7.839  0.00  0.00    +0.000 A 
ATOM     16  N   UNL     1      45.345   4.586   8.621  0.00  0.00    +0.000 NA
ATOM     17  C   UNL     1      44.559   3.860   9.460  0.00  0.00    +0.000 A 
ATOM     18  C   UNL     1      44.624   2.472   9.473  0.00  0.00    +0.000 A 
ATOM     19  N   UNL     1      45.474   1.765   8.692  0.00  0.00    +0.000 NA
BRANCH  14  21
ATOM     20  C   UNL     1      47.256   2.601   5.310  0.00  0.00    +0.000 C 
ATOM     21  S   UNL     1      47.419   1.619   6.825  0.00  0.00    +0.000 S 
ENDBRANCH  14  21
ENDBRANCH  13  17
ENDBRANCH  12  13
ENDBRANCH   1  12
TORSDOF 5
ENDMDL
MODEL 5
REMARK VINA RESULT:    -6.324      3.005      6.344
REMARK INTER + INTRA:          -8.622
REMARK INTER:                  -8.242
REMARK INTRA:                  -0.380
REMARK UNBOUND:                -0.449
REMARK  Name = 
REMARK  6 active torsions:
REMARK  status: ('A' for Active; 'I' for Inactive)
REMARK    1  A    between atoms: C_1  and  S_2
REMARK    2  A    between atoms: S_2  and  C_3
REMARK    3  A    between atoms: C_6  and  C_7
REMARK    4  A    between atoms: C_7  and  O_8
REMARK    5  A    between atoms: O_8  and  C_9
REMARK    6  A    between atoms: C_12  and  C_13
REMARK                            x       y       z     vdW  Elec       q    Type
REMARK                         _______ _______ _______ _____ _____    ______ ____
ROOT
ATOM      1  C   UNL     1      45.145   5.470  11.908  0.00  0.00    +0.000 A 
ATOM      2  C   UNL     1      46.272   6.212  12.211  0.00  0.00    +0.000 A 
ATOM      3  C   UNL     1      47.013   5.856  13.340  0.00  0.00    +0.000 A 
ATOM      4  C   UNL     1      46.602   4.776  14.130  0.00  0.00    +0.000 A 
ATOM      5  C   UNL     1      45.459   4.098  13.735  0.00  0.00    +0.000 A 
ATOM      6  N   UNL     1      44.727   4.417  12.642  0.00  0.00    +0.000 NA
ENDROOT
BRANCH   4   7
ATOM      7  C   UNL     1      47.386   4.408  15.333  0.00  0.00    +0.000 C 
ATOM      8  N   UNL     1      47.797   5.394  16.185  0.00  0.00    +0.000 N 
ATOM      9  O   UNL     1      47.667   3.238  15.566  0.00  0.00    +0.000 OA
ATOM     10  H   UNL     1      47.632   6.383  16.084  0.00  0.00    +0.000 HD
ATOM     11  H   UNL     1      48.336   5.097  16.990  0.00  0.00    +0.000 HD
ENDBRANCH   4   7
BRANCH   1  12
ATOM     12  O   UNL     1      44.417   5.842  10.799  0.00  0.00    +0.000 OA
BRANCH  12  13
ATOM     13  C   UNL     1      43.716   4.730  10.224  0.00  0.00    +0.000 C 
BRANCH  13  17
ATOM     14  C   UNL     1      46.343   2.465   7.830  0.00  0.00    +0.000 A 
ATOM     15  C   UNL     1      45.517   1.864   8.774  0.00  0.00    +0.000 A 
ATOM     16  N   UNL     1      44.652   2.564   9.552  0.00  0.00    +0.000 NA
ATOM     17  C   UNL     1      44.628   3.908   9.352  0.00  0.00    +0.000 A 
ATOM     18  C   UNL     1      45.470   4.505   8.421  0.00  0.00    +0.000 A 
ATOM     19  N   UNL     1      46.330   3.803   7.647  0.00  0.00    +0.000 NA
BRANCH  14  21
ATOM     20  C   UNL     1      47.588   2.555   5.384  0.00  0.00    +0.000 C 
ATOM     21  S   UNL     1      47.442   1.480   6.836  0.00  0.00    +0.000 S 
ENDBRANCH  14  21
ENDBRANCH  13  17
ENDBRANCH  12  13
ENDBRANCH   1  12
TORSDOF 5
ENDMDL
MODEL 6
REMARK VINA RESULT:    -5.949      3.233      6.328
REMARK INTER + INTRA:          -8.137
REMARK INTER:                  -7.750
REMARK INTRA:                  -0.388
REMARK UNBOUND:                -0.449
REMARK  Name = 
REMARK  6 active torsions:
REMARK  status: ('A' for Active; 'I' for Inactive)
REMARK    1  A    between atoms: C_1  and  S_2
REMARK    2  A    between atoms: S_2  and  C_3
REMARK    3  A    between atoms: C_6  and  C_7
REMARK    4  A    between atoms: C_7  and  O_8
REMARK    5  A    between atoms: O_8  and  C_9
REMARK    6  A    between atoms: C_12  and  C_13
REMARK                            x       y       z     vdW  Elec       q    Type
REMARK                         _______ _______ _______ _____ _____    ______ ____
ROOT
ATOM      1  C   UNL     1      45.263   5.274  12.514  0.00  0.00    +0.000 A 
ATOM      2  C   UNL     1      45.534   6.547  12.047  0.00  0.00    +0.000 A 
ATOM      3  C   UNL     1      46.678   7.194  12.521  0.00  0.00    +0.000 A 
ATOM      4  C   UNL     1      47.508   6.552  13.447  0.00  0.00    +0.000 A 
ATOM      5  C   UNL     1      47.146   5.275  13.847  0.00  0.00    +0.000 A 
ATOM      6  N   UNL     1      46.048   4.622  13.399  0.00  0.00    +0.000 NA
ENDROOT
BRANCH   4   7
ATOM      7  C   UNL     1      48.715   7.246  13.954  0.00  0.00    +0.000 C 
ATOM      8  N   UNL     1      49.870   7.190  13.225  0.00  0.00    +0.000 N 
ATOM      9  O   UNL     1      48.687   7.864  15.012  0.00  0.00    +0.000 OA
ATOM     10  H   UNL     1      50.006   6.705  12.352  0.00  0.00    +0.000 HD
ATOM     11  H   UNL     1      50.671   7.674  13.613  0.00  0.00    +0.000 HD
ENDBRANCH   4   7
BRANCH   1  12
ATOM     12  O   UNL     1      44.125   4.654  12.048  0.00  0.00    +0.000 OA
BRANCH  12  13
ATOM     13  C   UNL     1      43.830   5.028  10.695  0.00  0.00    +0.000 C 
BRANCH  13  17
ATOM     14  C   UNL     1      46.075   2.682   8.008  0.00  0.00    +0.000 A 
ATOM     15  C   UNL     1      45.237   2.103   8.955  0.00  0.00    +0.000 A 
ATOM     16  N   UNL     1      44.493   2.831   9.826  0.00  0.00    +0.000 NA
ATOM     17  C   UNL     1      44.603   4.182   9.719  0.00  0.00    +0.000 A 
ATOM     18  C   UNL     1      45.458   4.754   8.784  0.00  0.00    +0.000 A 
ATOM     19  N   UNL     1      46.198   4.025   7.916  0.00  0.00    +0.000 NA
BRANCH  14  21
ATOM     20  C   UNL     1      46.745   0.042   7.654  0.00  0.00    +0.000 C 
ATOM     21  S   UNL     1      47.012   1.664   6.890  0.00  0.00    +0.000 S 
ENDBRANCH  14  21
ENDBRANCH  13  17
ENDBRANCH  12  13
ENDBRANCH   1  12
TORSDOF 5
ENDMDL
MODEL 7
REMARK VINA RESULT:    -5.819      4.165      6.045
REMARK INTER + INTRA:          -7.969
REMARK INTER:                  -7.651
REMARK INTRA:                  -0.318
REMARK UNBOUND:                -0.449
REMARK  Name = 
REMARK  6 active torsions:
REMARK  status: ('A' for Active; 'I' for Inactive)
REMARK    1  A    between atoms: C_1  and  S_2
REMARK    2  A    between atoms: S_2  and  C_3
REMARK    3  A    between atoms: C_6  and  C_7
REMARK    4  A    between atoms: C_7  and  O_8
REMARK    5  A    between atoms: O_8  and  C_9
REMARK    6  A    between atoms: C_12  and  C_13
REMARK                            x       y       z     vdW  Elec       q    Type
REMARK                         _______ _______ _______ _____ _____    ______ ____
ROOT
ATOM      1  C   UNL     1      46.572   3.857  13.655  0.00  0.00    +0.000 A 
ATOM      2  C   UNL     1      46.503   5.238  13.633  0.00  0.00    +0.000 A 
ATOM      3  C   UNL     1      45.555   5.839  12.802  0.00  0.00    +0.000 A 
ATOM      4  C   UNL     1      44.712   5.042  12.018  0.00  0.00    +0.000 A 
ATOM      5  C   UNL     1      44.862   3.668  12.118  0.00  0.00    +0.000 A 
ATOM      6  N   UNL     1      45.767   3.059  12.920  0.00  0.00    +0.000 NA
ENDROOT
BRANCH   4   7
ATOM      7  C   UNL     1      43.714   5.684  11.131  0.00  0.00    +0.000 C 
ATOM      8  N   UNL     1      43.455   7.018  11.277  0.00  0.00    +0.000 N 
ATOM      9  O   UNL     1      43.124   5.035  10.275  0.00  0.00    +0.000 OA
ATOM     10  H   UNL     1      43.873   7.641  11.951  0.00  0.00    +0.000 HD
ATOM     11  H   UNL     1      42.761   7.413  10.654  0.00  0.00    +0.000 HD
ENDBRANCH   4   7
BRANCH   1  12
ATOM     12  O   UNL     1      47.521   3.280  14.470  0.00  0.00    +0.000 OA
BRANCH  12  13
ATOM     13  C   UNL     1      47.313   3.611  15.849  0.00  0.00    +0.000 C 
BRANCH  13  17
ATOM     14  C   UNL     1      50.933   3.912  17.986  0.00  0.00    +0.000 A 
ATOM     15  C   UNL     1      50.514   2.708  17.430  0.00  0.00    +0.000 A 
ATOM     16  N   UNL     1      49.360   2.581  16.727  0.00  0.00    +0.000 NA
ATOM     17  C   UNL     1      48.623   3.715  16.584  0.00  0.00    +0.000 A 
ATOM     18  C   UNL     1      49.037   4.911  17.159  0.00  0.00    +0.000 A 
ATOM     19  N   UNL     1      50.189   5.033  17.859  0.00  0.00    +0.000 NA
BRANCH  14  21
ATOM     20  C   UNL     1      53.165   2.387  18.467  0.00  0.00    +0.000 C 
ATOM     21  S   UNL     1      52.465   4.006  18.885  0.00  0.00    +0.000 S 
ENDBRANCH  14  21
ENDBRANCH  13  17
ENDBRANCH  12  13
ENDBRANCH   1  12
TORSDOF 5
ENDMDL
MODEL 8
REMARK VINA RESULT:    -5.575      3.977      5.616
REMARK INTER + INTRA:          -7.654
REMARK INTER:                  -7.309
REMARK INTRA:                  -0.345
REMARK UNBOUND:                -0.449
REMARK  Name = 
REMARK  6 active torsions:
REMARK  status: ('A' for Active; 'I' for Inactive)
REMARK    1  A    between atoms: C_1  and  S_2
REMARK    2  A    between atoms: S_2  and  C_3
REMARK    3  A    between atoms: C_6  and  C_7
REMARK    4  A    between atoms: C_7  and  O_8
REMARK    5  A    between atoms: O_8  and  C_9
REMARK    6  A    between atoms: C_12  and  C_13
REMARK                            x       y       z     vdW  Elec       q    Type
REMARK                         _______ _______ _______ _____ _____    ______ ____
ROOT
ATOM      1  C   UNL     1      46.775   4.277  13.520  0.00  0.00    +0.000 A 
ATOM      2  C   UNL     1      46.687   5.524  12.929  0.00  0.00    +0.000 A 
ATOM      3  C   UNL     1      45.740   5.711  11.920  0.00  0.00    +0.000 A 
ATOM      4  C   UNL     1      44.917   4.647  11.531  0.00  0.00    +0.000 A 
ATOM      5  C   UNL     1      45.086   3.440  12.190  0.00  0.00    +0.000 A 
ATOM      6  N   UNL     1      45.990   3.233  13.177  0.00  0.00    +0.000 NA
ENDROOT
BRANCH   4   7
ATOM      7  C   UNL     1      43.921   4.848  10.453  0.00  0.00    +0.000 C 
ATOM      8  N   UNL     1      44.268   4.554   9.164  0.00  0.00    +0.000 N 
ATOM      9  O   UNL     1      42.799   5.271  10.704  0.00  0.00    +0.000 OA
ATOM     10  H   UNL     1      45.161   4.212   8.845  0.00  0.00    +0.000 HD
ATOM     11  H   UNL     1      43.558   4.712   8.459  0.00  0.00    +0.000 HD
ENDBRANCH   4   7
BRANCH   1  12
ATOM     12  O   UNL     1      47.722   4.105  14.505  0.00  0.00    +0.000 OA
BRANCH  12  13
ATOM     13  C   UNL     1      47.127   4.006  15.806  0.00  0.00    +0.000 C 
BRANCH  13  17
ATOM     14  C   UNL     1      49.268   6.240  18.667  0.00  0.00    +0.000 A 
ATOM     15  C   UNL     1      49.735   6.085  17.366  0.00  0.00    +0.000 A 
ATOM     16  N   UNL     1      49.064   5.381  16.419  0.00  0.00    +0.000 NA
ATOM     17  C   UNL     1      47.884   4.832  16.812  0.00  0.00    +0.000 A 
ATOM     18  C   UNL     1      47.432   4.974  18.118  0.00  0.00    +0.000 A 
ATOM     19  N   UNL     1      48.104   5.677  19.060  0.00  0.00    +0.000 NA
BRANCH  14  21
ATOM     20  C   UNL     1      48.864   8.204  20.544  0.00  0.00    +0.000 C 
ATOM     21  S   UNL     1      50.197   7.188  19.852  0.00  0.00    +0.000 S 
ENDBRANCH  14  21
ENDBRANCH  13  17
ENDBRANCH  12  13
ENDBRANCH   1  12
TORSDOF 5
ENDMDL
MODEL 9
REMARK VINA RESULT:    -5.383      3.515      5.201
REMARK INTER + INTRA:          -7.406
REMARK INTER:                  -7.013
REMARK INTRA:                  -0.393
REMARK UNBOUND:                -0.449
REMARK  Name = 
REMARK  6 active torsions:
REMARK  status: ('A' for Active; 'I' for Inactive)
REMARK    1  A    between atoms: C_1  and  S_2
REMARK    2  A    between atoms: S_2  and  C_3
REMARK    3  A    between atoms: C_6  and  C_7
REMARK    4  A    between atoms: C_7  and  O_8
REMARK    5  A    between atoms: O_8  and  C_9
REMARK    6  A    between atoms: C_12  and  C_13
REMARK                            x       y       z     vdW  Elec       q    Type
REMARK                         _______ _______ _______ _____ _____    ______ ____
ROOT
ATOM      1  C   UNL     1      46.319   6.358  12.788  0.00  0.00    +0.000 A 
ATOM      2  C   UNL     1      46.429   6.619  11.434  0.00  0.00    +0.000 A 
ATOM      3  C   UNL     1      45.720   5.807  10.546  0.00  0.00    +0.000 A 
ATOM      4  C   UNL     1      44.930   4.761  11.038  0.00  0.00    +0.000 A 
ATOM      5  C   UNL     1      44.887   4.588  12.412  0.00  0.00    +0.000 A 
ATOM      6  N   UNL     1      45.558   5.364  13.296  0.00  0.00    +0.000 NA
ENDROOT
BRANCH   4   7
ATOM      7  C   UNL     1      44.187   3.896  10.090  0.00  0.00    +0.000 C 
ATOM      8  N   UNL     1      44.083   4.280   8.783  0.00  0.00    +0.000 N 
ATOM      9  O   UNL     1      43.669   2.851  10.467  0.00  0.00    +0.000 OA
ATOM     10  H   UNL     1      44.459   5.119   8.371  0.00  0.00    +0.000 HD
ATOM     11  H   UNL     1      43.561   3.662   8.173  0.00  0.00    +0.000 HD
ENDBRANCH   4   7
BRANCH   1  12
ATOM     12  O   UNL     1      47.034   7.158  13.651  0.00  0.00    +0.000 OA
BRANCH  12  13
ATOM     13  C   UNL     1      48.332   6.616  13.930  0.00  0.00    +0.000 C 
BRANCH  13  17
ATOM     14  C   UNL     1      48.563   5.473  17.980  0.00  0.00    +0.000 A 
ATOM     15  C   UNL     1      48.117   4.593  17.000  0.00  0.00    +0.000 A 
ATOM     16  N   UNL     1      48.042   4.927  15.687  0.00  0.00    +0.000 NA
ATOM     17  C   UNL     1      48.440   6.187  15.370  0.00  0.00    +0.000 A 
ATOM     18  C   UNL     1      48.866   7.069  16.356  0.00  0.00    +0.000 A 
ATOM     19  N   UNL     1      48.940   6.732  17.666  0.00  0.00    +0.000 NA
BRANCH  14  21
ATOM     20  C   UNL     1      47.548   6.194  20.428  0.00  0.00    +0.000 C 
ATOM     21  S   UNL     1      48.647   4.961  19.682  0.00  0.00    +0.000 S 
ENDBRANCH  14  21
ENDBRANCH  13  17
ENDBRANCH  12  13
ENDBRANCH   1  12
TORSDOF 5
ENDMDL
