MODEL 1
REMARK VINA RESULT:    -7.741      0.000      0.000
REMARK INTER + INTRA:         -11.227
REMARK INTER:                 -10.457
REMARK INTRA:                  -0.771
REMARK UNBOUND:                -0.771
REMARK  Name = 
REMARK  6 active torsions:
REMARK  status: ('A' for Active; 'I' for Inactive)
REMARK    1  A    between atoms: C_2  and  C_19
REMARK    2  A    between atoms: N_3  and  C_4
REMARK    3  A    between atoms: C_4  and  C_5
REMARK    4  A    between atoms: C_8  and  C_9
REMARK    5  A    between atoms: C_9  and  N_10
REMARK    6  A    between atoms: N_10  and  C_11
REMARK                            x       y       z     vdW  Elec       q    Type
REMARK                         _______ _______ _______ _____ _____    ______ ____
ROOT
ATOM      1  C   UNL     1      46.020   4.770  14.703  0.00  0.00    +0.000 C 
ENDROOT
BRANCH   1   2
ATOM      2  C   UNL     1      46.201   4.685  13.176  0.00  0.00    +0.000 C 
ATOM      3  C   UNL     1      46.019   6.052  12.494  0.00  0.00    +0.000 C 
ATOM      4  C   UNL     1      46.054   5.963  10.969  0.00  0.00    +0.000 C 
ATOM      5  C   UNL     1      45.029   4.950  10.451  0.00  0.00    +0.000 C 
ATOM      6  C   UNL     1      45.258   3.576  11.098  0.00  0.00    +0.000 C 
ATOM      7  C   UNL     1      45.205   3.658  12.618  0.00  0.00    +0.000 C 
BRANCH   5   8
ATOM      8  C   UNL     1      44.994   4.869   8.913  0.00  0.00    +0.000 C 
BRANCH   8   9
ATOM      9  N   UNL     1      46.133   4.158   8.331  0.00  0.00    +0.000 NA
ATOM     10  H   UNL     1      46.617   3.620   9.049  0.00  0.00    +0.000 HD
BRANCH   9  11
ATOM     11  C   UNL     1      45.756   3.279   7.211  0.00  0.00    +0.000 C 
ATOM     12  C   UNL     1      45.470   1.819   7.605  0.00  0.00    +0.000 C 
ATOM     13  C   UNL     1      46.734   1.034   7.957  0.00  0.00    +0.000 C 
ATOM     14  N   UNL     1      47.734   1.084   6.890  0.00  0.00    +0.000 NA
ATOM     15  C   UNL     1      48.089   2.467   6.560  0.00  0.00    +0.000 C 
ATOM     16  C   UNL     1      46.869   3.290   6.148  0.00  0.00    +0.000 C 
ATOM     17  H   UNL     1      47.361   0.628   6.057  0.00  0.00    +0.000 HD
ENDBRANCH   9  11
ENDBRANCH   8   9
ENDBRANCH   5   8
ENDBRANCH   1   2
BRANCH   1  20
ATOM     18  O   UNL     1      46.748   3.469  17.098  0.00  0.00    +0.000 OA
ATOM     19  C   UNL     1      47.571   4.188  16.540  0.00  0.00    +0.000 C 
ATOM     20  N   UNL     1      47.278   4.893  15.403  0.00  0.00    +0.000 N 
ATOM     21  H   UNL     1      48.020   5.386  14.917  0.00  0.00    +0.000 HD
BRANCH  19  22
ATOM     22  C   UNL     1      48.921   4.370  17.083  0.00  0.00    +0.000 A 
ATOM     23  C   UNL     1      49.287   5.598  17.615  0.00  0.00    +0.000 A 
ATOM     24  S   UNL     1      50.870   5.624  18.249  0.00  0.00    +0.000 S 
ATOM     25  C   UNL     1      51.107   3.982  17.870  0.00  0.00    +0.000 A 
ATOM     26  N   UNL     1      52.260   3.344  18.210  0.00  0.00    +0.000 NA
ATOM     27  C   UNL     1      52.279   2.088  17.913  0.00  0.00    +0.000 A 
ATOM     28  N   UNL     1      51.263   1.417  17.283  0.00  0.00    +0.000 N 
ATOM     29  C   UNL     1      50.148   2.055  16.799  0.00  0.00    +0.000 A 
ATOM     30  O   UNL     1      49.378   1.487  16.032  0.00  0.00    +0.000 OA
ATOM     31  C   UNL     1      50.020   3.441  17.209  0.00  0.00    +0.000 A 
ATOM     32  H   UNL     1      51.370   0.448  17.020  0.00  0.00    +0.000 HD
ENDBRANCH  19  22
ENDBRANCH   1  20
TORSDOF 6
ENDMDL
MODEL 2
REMARK VINA RESULT:    -7.476      3.074      4.297
REMARK INTER + INTRA:         -10.869
REMARK INTER:                  -9.653
REMARK INTRA:                  -1.217
REMARK UNBOUND:                -0.771
REMARK  Name = 
REMARK  6 active torsions:
REMARK  status: ('A' for Active; 'I' for Inactive)
REMARK    1  A    between atoms: C_2  and  C_19
REMARK    2  A    between atoms: N_3  and  C_4
REMARK    3  A    between atoms: C_4  and  C_5
REMARK    4  A    between atoms: C_8  and  C_9
REMARK    5  A    between atoms: C_9  and  N_10
REMARK    6  A    between atoms: N_10  and  C_11
REMARK                            x       y       z     vdW  Elec       q    Type
REMARK                         _______ _______ _______ _____ _____    ______ ____
ROOT
ATOM      1  C   UNL     1      49.969   8.274  13.535  0.00  0.00    +0.000 C 
ENDROOT
BRANCH   1   2
ATOM      2  C   UNL     1      48.663   8.251  12.719  0.00  0.00    +0.000 C 
ATOM      3  C   UNL     1      47.489   8.883  13.486  0.00  0.00    +0.000 C 
ATOM      4  C   UNL     1      46.156   8.742  12.752  0.00  0.00    +0.000 C 
ATOM      5  C   UNL     1      45.865   7.277  12.413  0.00  0.00    +0.000 C 
ATOM      6  C   UNL     1      47.020   6.675  11.599  0.00  0.00    +0.000 C 
ATOM      7  C   UNL     1      48.347   6.798  12.336  0.00  0.00    +0.000 C 
BRANCH   5   8
ATOM      8  C   UNL     1      44.504   7.085  11.719  0.00  0.00    +0.000 C 
BRANCH   8   9
ATOM      9  N   UNL     1      44.535   6.135  10.605  0.00  0.00    +0.000 NA
ATOM     10  H   UNL     1      45.446   5.682  10.555  0.00  0.00    +0.000 HD
BRANCH   9  11
ATOM     11  C   UNL     1      43.472   5.119  10.682  0.00  0.00    +0.000 C 
ATOM     12  C   UNL     1      42.874   4.913  12.084  0.00  0.00    +0.000 C 
ATOM     13  C   UNL     1      43.818   4.175  13.035  0.00  0.00    +0.000 C 
ATOM     14  N   UNL     1      44.272   2.898  12.486  0.00  0.00    +0.000 NA
ATOM     15  C   UNL     1      44.927   3.081  11.188  0.00  0.00    +0.000 C 
ATOM     16  C   UNL     1      44.010   3.769  10.176  0.00  0.00    +0.000 C 
ATOM     17  H   UNL     1      43.471   2.276  12.371  0.00  0.00    +0.000 HD
ENDBRANCH   9  11
ENDBRANCH   8   9
ENDBRANCH   5   8
ENDBRANCH   1   2
BRANCH   1  20
ATOM     18  O   UNL     1      49.615   8.557  16.320  0.00  0.00    +0.000 OA
ATOM     19  C   UNL     1      49.793   7.435  15.855  0.00  0.00    +0.000 C 
ATOM     20  N   UNL     1      50.023   7.220  14.522  0.00  0.00    +0.000 N 
ATOM     21  H   UNL     1      50.055   6.270  14.169  0.00  0.00    +0.000 HD
BRANCH  19  22
ATOM     22  C   UNL     1      49.809   6.245  16.713  0.00  0.00    +0.000 A 
ATOM     23  C   UNL     1      50.786   6.117  17.691  0.00  0.00    +0.000 A 
ATOM     24  S   UNL     1      50.631   4.704  18.632  0.00  0.00    +0.000 S 
ATOM     25  C   UNL     1      49.228   4.234  17.792  0.00  0.00    +0.000 A 
ATOM     26  N   UNL     1      48.541   3.114  18.147  0.00  0.00    +0.000 NA
ATOM     27  C   UNL     1      47.466   2.911  17.462  0.00  0.00    +0.000 A 
ATOM     28  N   UNL     1      47.029   3.708  16.435  0.00  0.00    +0.000 N 
ATOM     29  C   UNL     1      47.768   4.762  15.956  0.00  0.00    +0.000 A 
ATOM     30  O   UNL     1      47.481   5.302  14.893  0.00  0.00    +0.000 OA
ATOM     31  C   UNL     1      48.922   5.107  16.764  0.00  0.00    +0.000 A 
ATOM     32  H   UNL     1      46.214   3.454  15.896  0.00  0.00    +0.000 HD
ENDBRANCH  19  22
ENDBRANCH   1  20
TORSDOF 6
ENDMDL
MODEL 3
REMARK VINA RESULT:    -7.122      3.958      9.610
REMARK INTER + INTRA:         -10.391
REMARK INTER:                  -9.683
REMARK INTRA:                  -0.707
REMARK UNBOUND:                -0.771
REMARK  Name = 
REMARK  6 active torsions:
REMARK  status: ('A' for Active; 'I' for Inactive)
REMARK    1  A    between atoms: C_2  and  C_19
REMARK    2  A    between atoms: N_3  and  C_4
REMARK    3  A    between atoms: C_4  and  C_5
REMARK    4  A    between atoms: C_8  and  C_9
REMARK    5  A    between atoms: C_9  and  N_10
REMARK    6  A    between atoms: N_10  and  C_11
REMARK                            x       y       z     vdW  Elec       q    Type
REMARK                         _______ _______ _______ _____ _____    ______ ____
ROOT
ATOM      1  C   UNL     1      47.405   3.771  16.749  0.00  0.00    +0.000 C 
ENDROOT
BRANCH   1   2
ATOM      2  C   UNL     1      48.928   3.568  16.653  0.00  0.00    +0.000 C 
ATOM      3  C   UNL     1      49.355   2.159  17.097  0.00  0.00    +0.000 C 
ATOM      4  C   UNL     1      50.873   1.985  17.144  0.00  0.00    +0.000 C 
ATOM      5  C   UNL     1      51.523   3.057  18.022  0.00  0.00    +0.000 C 
ATOM      6  C   UNL     1      51.135   4.460  17.533  0.00  0.00    +0.000 C 
ATOM      7  C   UNL     1      49.623   4.643  17.503  0.00  0.00    +0.000 C 
BRANCH   5   8
ATOM      8  C   UNL     1      53.050   2.886  18.140  0.00  0.00    +0.000 C 
BRANCH   8   9
ATOM      9  N   UNL     1      53.457   1.675  18.855  0.00  0.00    +0.000 NA
ATOM     10  H   UNL     1      52.761   0.941  18.729  0.00  0.00    +0.000 HD
BRANCH   9  11
ATOM     11  C   UNL     1      54.785   1.183  18.450  0.00  0.00    +0.000 C 
ATOM     12  C   UNL     1      54.943   0.918  16.943  0.00  0.00    +0.000 C 
ATOM     13  C   UNL     1      54.200  -0.333  16.472  0.00  0.00    +0.000 C 
ATOM     14  N   UNL     1      54.576  -1.522  17.237  0.00  0.00    +0.000 NA
ATOM     15  C   UNL     1      54.347  -1.324  18.671  0.00  0.00    +0.000 C 
ATOM     16  C   UNL     1      55.109  -0.114  19.211  0.00  0.00    +0.000 C 
ATOM     17  H   UNL     1      55.563  -1.725  17.081  0.00  0.00    +0.000 HD
ENDBRANCH   9  11
ENDBRANCH   8   9
ENDBRANCH   5   8
ENDBRANCH   1   2
BRANCH   1  20
ATOM     18  O   UNL     1      47.120   3.220  13.997  0.00  0.00    +0.000 OA
ATOM     19  C   UNL     1      46.751   4.310  14.425  0.00  0.00    +0.000 C 
ATOM     20  N   UNL     1      46.903   4.672  15.737  0.00  0.00    +0.000 N 
ATOM     21  H   UNL     1      46.485   5.536  16.066  0.00  0.00    +0.000 HD
BRANCH  19  22
ATOM     22  C   UNL     1      46.155   5.317  13.541  0.00  0.00    +0.000 A 
ATOM     23  C   UNL     1      46.882   6.451  13.203  0.00  0.00    +0.000 A 
ATOM     24  S   UNL     1      46.065   7.492  12.129  0.00  0.00    +0.000 S 
ATOM     25  C   UNL     1      44.727   6.444  12.046  0.00  0.00    +0.000 A 
ATOM     26  N   UNL     1      43.671   6.719  11.231  0.00  0.00    +0.000 NA
ATOM     27  C   UNL     1      42.755   5.811  11.225  0.00  0.00    +0.000 A 
ATOM     28  N   UNL     1      42.783   4.665  11.978  0.00  0.00    +0.000 N 
ATOM     29  C   UNL     1      43.758   4.422  12.913  0.00  0.00    +0.000 A 
ATOM     30  O   UNL     1      43.633   3.523  13.738  0.00  0.00    +0.000 OA
ATOM     31  C   UNL     1      44.873   5.350  12.878  0.00  0.00    +0.000 A 
ATOM     32  H   UNL     1      42.000   4.027  11.975  0.00  0.00    +0.000 HD
ENDBRANCH  19  22
ENDBRANCH   1  20
TORSDOF 6
ENDMDL
MODEL 4
REMARK VINA RESULT:    -7.066      2.417      3.127
REMARK INTER + INTRA:         -10.316
REMARK INTER:                  -9.221
REMARK INTRA:                  -1.095
REMARK UNBOUND:                -0.771
REMARK  Name = 
REMARK  6 active torsions:
REMARK  status: ('A' for Active; 'I' for Inactive)
REMARK    1  A    between atoms: C_2  and  C_19
REMARK    2  A    between atoms: N_3  and  C_4
REMARK    3  A    between atoms: C_4  and  C_5
REMARK    4  A    between atoms: C_8  and  C_9
REMARK    5  A    between atoms: C_9  and  N_10
REMARK    6  A    between atoms: N_10  and  C_11
REMARK                            x       y       z     vdW  Elec       q    Type
REMARK                         _______ _______ _______ _____ _____    ______ ____
ROOT
ATOM      1  C   UNL     1      48.258   7.445  13.922  0.00  0.00    +0.000 C 
ENDROOT
BRANCH   1   2
ATOM      2  C   UNL     1      47.618   6.300  13.115  0.00  0.00    +0.000 C 
ATOM      3  C   UNL     1      46.596   6.815  12.087  0.00  0.00    +0.000 C 
ATOM      4  C   UNL     1      45.849   5.688  11.377  0.00  0.00    +0.000 C 
ATOM      5  C   UNL     1      45.185   4.745  12.385  0.00  0.00    +0.000 C 
ATOM      6  C   UNL     1      46.227   4.194  13.370  0.00  0.00    +0.000 C 
ATOM      7  C   UNL     1      46.961   5.315  14.093  0.00  0.00    +0.000 C 
BRANCH   5   8
ATOM      8  C   UNL     1      44.375   3.623  11.708  0.00  0.00    +0.000 C 
BRANCH   8   9
ATOM      9  N   UNL     1      45.156   2.806  10.778  0.00  0.00    +0.000 NA
ATOM     10  H   UNL     1      45.400   1.916  11.210  0.00  0.00    +0.000 HD
BRANCH   9  11
ATOM     11  C   UNL     1      44.469   2.571   9.497  0.00  0.00    +0.000 C 
ATOM     12  C   UNL     1      45.003   1.377   8.687  0.00  0.00    +0.000 C 
ATOM     13  C   UNL     1      46.365   1.647   8.047  0.00  0.00    +0.000 C 
ATOM     14  N   UNL     1      46.362   2.856   7.224  0.00  0.00    +0.000 NA
ATOM     15  C   UNL     1      45.942   4.025   8.000  0.00  0.00    +0.000 C 
ATOM     16  C   UNL     1      44.559   3.834   8.623  0.00  0.00    +0.000 C 
ATOM     17  H   UNL     1      45.721   2.728   6.440  0.00  0.00    +0.000 HD
ENDBRANCH   9  11
ENDBRANCH   8   9
ENDBRANCH   5   8
ENDBRANCH   1   2
BRANCH   1  20
ATOM     18  O   UNL     1      50.371   8.137  15.658  0.00  0.00    +0.000 OA
ATOM     19  C   UNL     1      49.392   7.558  16.118  0.00  0.00    +0.000 C 
ATOM     20  N   UNL     1      48.349   7.144  15.332  0.00  0.00    +0.000 N 
ATOM     21  H   UNL     1      47.514   6.769  15.770  0.00  0.00    +0.000 HD
BRANCH  19  22
ATOM     22  C   UNL     1      49.293   7.235  17.545  0.00  0.00    +0.000 A 
ATOM     23  C   UNL     1      49.419   8.246  18.488  0.00  0.00    +0.000 A 
ATOM     24  S   UNL     1      49.229   7.710  20.095  0.00  0.00    +0.000 S 
ATOM     25  C   UNL     1      48.931   6.114  19.585  0.00  0.00    +0.000 A 
ATOM     26  N   UNL     1      48.626   5.137  20.481  0.00  0.00    +0.000 NA
ATOM     27  C   UNL     1      48.368   3.990  19.950  0.00  0.00    +0.000 A 
ATOM     28  N   UNL     1      48.415   3.722  18.606  0.00  0.00    +0.000 N 
ATOM     29  C   UNL     1      48.855   4.641  17.686  0.00  0.00    +0.000 A 
ATOM     30  O   UNL     1      49.120   4.307  16.536  0.00  0.00    +0.000 OA
ATOM     31  C   UNL     1      49.043   5.979  18.213  0.00  0.00    +0.000 A 
ATOM     32  H   UNL     1      48.266   2.784  18.262  0.00  0.00    +0.000 HD
ENDBRANCH  19  22
ENDBRANCH   1  20
TORSDOF 6
ENDMDL
MODEL 5
REMARK VINA RESULT:    -7.007      4.129      9.343
REMARK INTER + INTRA:         -10.235
REMARK INTER:                  -9.523
REMARK INTRA:                  -0.712
REMARK UNBOUND:                -0.771
REMARK  Name = 
REMARK  6 active torsions:
REMARK  status: ('A' for Active; 'I' for Inactive)
REMARK    1  A    between atoms: C_2  and  C_19
REMARK    2  A    between atoms: N_3  and  C_4
REMARK    3  A    between atoms: C_4  and  C_5
REMARK    4  A    between atoms: C_8  and  C_9
REMARK    5  A    between atoms: C_9  and  N_10
REMARK    6  A    between atoms: N_10  and  C_11
REMARK                            x       y       z     vdW  Elec       q    Type
REMARK                         _______ _______ _______ _____ _____    ______ ____
ROOT
ATOM      1  C   UNL     1      43.523   3.268  11.657  0.00  0.00    +0.000 C 
ENDROOT
BRANCH   1   2
ATOM      2  C   UNL     1      44.383   4.133  12.596  0.00  0.00    +0.000 C 
ATOM      3  C   UNL     1      44.552   5.569  12.070  0.00  0.00    +0.000 C 
ATOM      4  C   UNL     1      45.517   6.401  12.913  0.00  0.00    +0.000 C 
ATOM      5  C   UNL     1      46.873   5.703  13.049  0.00  0.00    +0.000 C 
ATOM      6  C   UNL     1      46.695   4.292  13.629  0.00  0.00    +0.000 C 
ATOM      7  C   UNL     1      45.748   3.454  12.780  0.00  0.00    +0.000 C 
BRANCH   5   8
ATOM      8  C   UNL     1      47.894   6.535  13.849  0.00  0.00    +0.000 C 
BRANCH   8   9
ATOM      9  N   UNL     1      47.907   6.239  15.283  0.00  0.00    +0.000 NA
ATOM     10  H   UNL     1      47.678   5.259  15.442  0.00  0.00    +0.000 HD
BRANCH   9  11
ATOM     11  C   UNL     1      49.187   6.570  15.931  0.00  0.00    +0.000 C 
ATOM     12  C   UNL     1      49.558   5.671  17.123  0.00  0.00    +0.000 C 
ATOM     13  C   UNL     1      48.715   5.949  18.368  0.00  0.00    +0.000 C 
ATOM     14  N   UNL     1      48.756   7.356  18.764  0.00  0.00    +0.000 NA
ATOM     15  C   UNL     1      48.319   8.228  17.669  0.00  0.00    +0.000 C 
ATOM     16  C   UNL     1      49.162   8.032  16.409  0.00  0.00    +0.000 C 
ATOM     17  H   UNL     1      49.710   7.605  19.027  0.00  0.00    +0.000 HD
ENDBRANCH   9  11
ENDBRANCH   8   9
ENDBRANCH   5   8
ENDBRANCH   1   2
BRANCH   1  20
ATOM     18  O   UNL     1      44.029   3.977   8.973  0.00  0.00    +0.000 OA
ATOM     19  C   UNL     1      44.555   2.966   9.429  0.00  0.00    +0.000 C 
ATOM     20  N   UNL     1      44.319   2.527  10.704  0.00  0.00    +0.000 N 
ATOM     21  H   UNL     1      44.859   1.750  11.071  0.00  0.00    +0.000 HD
BRANCH  19  22
ATOM     22  C   UNL     1      45.447   2.134   8.614  0.00  0.00    +0.000 A 
ATOM     23  C   UNL     1      45.403   0.753   8.740  0.00  0.00    +0.000 A 
ATOM     24  S   UNL     1      46.465  -0.064   7.685  0.00  0.00    +0.000 S 
ATOM     25  C   UNL     1      46.991   1.399   6.995  0.00  0.00    +0.000 A 
ATOM     26  N   UNL     1      47.879   1.408   5.963  0.00  0.00    +0.000 NA
ATOM     27  C   UNL     1      48.145   2.583   5.501  0.00  0.00    +0.000 A 
ATOM     28  N   UNL     1      47.626   3.754   5.992  0.00  0.00    +0.000 N 
ATOM     29  C   UNL     1      46.841   3.796   7.118  0.00  0.00    +0.000 A 
ATOM     30  O   UNL     1      46.595   4.859   7.677  0.00  0.00    +0.000 OA
ATOM     31  C   UNL     1      46.416   2.498   7.606  0.00  0.00    +0.000 A 
ATOM     32  H   UNL     1      47.928   4.645   5.626  0.00  0.00    +0.000 HD
ENDBRANCH  19  22
ENDBRANCH   1  20
TORSDOF 6
ENDMDL
MODEL 6
REMARK VINA RESULT:    -6.981      3.709      9.326
REMARK INTER + INTRA:         -10.200
REMARK INTER:                  -9.039
REMARK INTRA:                  -1.161
REMARK UNBOUND:                -0.771
REMARK  Name = 
REMARK  6 active torsions:
REMARK  status: ('A' for Active; 'I' for Inactive)
REMARK    1  A    between atoms: C_2  and  C_19
REMARK    2  A    between atoms: N_3  and  C_4
REMARK    3  A    between atoms: C_4  and  C_5
REMARK    4  A    between atoms: C_8  and  C_9
REMARK    5  A    between atoms: C_9  and  N_10
REMARK    6  A    between atoms: N_10  and  C_11
REMARK                            x       y       z     vdW  Elec       q    Type
REMARK                         _______ _______ _______ _____ _____    ______ ____
ROOT
ATOM      1  C   UNL     1      47.469   8.173  11.768  0.00  0.00    +0.000 C 
ENDROOT
BRANCH   1   2
ATOM      2  C   UNL     1      48.337   8.320  13.032  0.00  0.00    +0.000 C 
ATOM      3  C   UNL     1      48.974   6.986  13.457  0.00  0.00    +0.000 C 
ATOM      4  C   UNL     1      49.722   7.083  14.786  0.00  0.00    +0.000 C 
ATOM      5  C   UNL     1      48.816   7.635  15.890  0.00  0.00    +0.000 C 
ATOM      6  C   UNL     1      48.233   8.994  15.475  0.00  0.00    +0.000 C 
ATOM      7  C   UNL     1      47.470   8.897  14.160  0.00  0.00    +0.000 C 
BRANCH   5   8
ATOM      8  C   UNL     1      49.517   7.698  17.260  0.00  0.00    +0.000 C 
BRANCH   8   9
ATOM      9  N   UNL     1      49.014   6.722  18.229  0.00  0.00    +0.000 NA
ATOM     10  H   UNL     1      48.092   6.392  17.948  0.00  0.00    +0.000 HD
BRANCH   9  11
ATOM     11  C   UNL     1      49.921   5.579  18.424  0.00  0.00    +0.000 C 
ATOM     12  C   UNL     1      49.535   4.308  17.647  0.00  0.00    +0.000 C 
ATOM     13  C   UNL     1      48.313   3.597  18.231  0.00  0.00    +0.000 C 
ATOM     14  N   UNL     1      48.476   3.291  19.652  0.00  0.00    +0.000 NA
ATOM     15  C   UNL     1      48.756   4.503  20.427  0.00  0.00    +0.000 C 
ATOM     16  C   UNL     1      50.001   5.232  19.921  0.00  0.00    +0.000 C 
ATOM     17  H   UNL     1      49.248   2.635  19.770  0.00  0.00    +0.000 HD
ENDBRANCH   9  11
ENDBRANCH   8   9
ENDBRANCH   5   8
ENDBRANCH   1   2
BRANCH   1  20
ATOM     18  O   UNL     1      44.692   7.688  11.875  0.00  0.00    +0.000 OA
ATOM     19  C   UNL     1      45.453   6.740  11.706  0.00  0.00    +0.000 C 
ATOM     20  N   UNL     1      46.815   6.887  11.694  0.00  0.00    +0.000 N 
ATOM     21  H   UNL     1      47.398   6.095  11.442  0.00  0.00    +0.000 HD
BRANCH  19  22
ATOM     22  C   UNL     1      44.949   5.373  11.545  0.00  0.00    +0.000 A 
ATOM     23  C   UNL     1      44.308   4.748  12.606  0.00  0.00    +0.000 A 
ATOM     24  S   UNL     1      43.739   3.184  12.235  0.00  0.00    +0.000 S 
ATOM     25  C   UNL     1      44.293   3.304  10.631  0.00  0.00    +0.000 A 
ATOM     26  N   UNL     1      44.066   2.304   9.735  0.00  0.00    +0.000 NA
ATOM     27  C   UNL     1      44.490   2.554   8.542  0.00  0.00    +0.000 A 
ATOM     28  N   UNL     1      45.145   3.700   8.168  0.00  0.00    +0.000 N 
ATOM     29  C   UNL     1      45.516   4.665   9.071  0.00  0.00    +0.000 A 
ATOM     30  O   UNL     1      46.306   5.550   8.762  0.00  0.00    +0.000 OA
ATOM     31  C   UNL     1      44.962   4.491  10.401  0.00  0.00    +0.000 A 
ATOM     32  H   UNL     1      45.510   3.803   7.232  0.00  0.00    +0.000 HD
ENDBRANCH  19  22
ENDBRANCH   1  20
TORSDOF 6
ENDMDL
MODEL 7
REMARK VINA RESULT:    -6.804      3.945      9.737
REMARK INTER + INTRA:          -9.961
REMARK INTER:                  -8.976
REMARK INTRA:                  -0.986
REMARK UNBOUND:                -0.771
REMARK  Name = 
REMARK  6 active torsions:
REMARK  status: ('A' for Active; 'I' for Inactive)
REMARK    1  A    between atoms: C_2  and  C_19
REMARK    2  A    between atoms: N_3  and  C_4
REMARK    3  A    between atoms: C_4  and  C_5
REMARK    4  A    between atoms: C_8  and  C_9
REMARK    5  A    between atoms: C_9  and  N_10
REMARK    6  A    between atoms: N_10  and  C_11
REMARK                            x       y       z     vdW  Elec       q    Type
REMARK                         _______ _______ _______ _____ _____    ______ ____
ROOT
ATOM      1  C   UNL     1      47.226   3.515  16.858  0.00  0.00    +0.000 C 
ENDROOT
BRANCH   1   2
ATOM      2  C   UNL     1      48.539   3.918  17.555  0.00  0.00    +0.000 C 
ATOM      3  C   UNL     1      48.948   5.365  17.230  0.00  0.00    +0.000 C 
ATOM      4  C   UNL     1      50.318   5.735  17.796  0.00  0.00    +0.000 C 
ATOM      5  C   UNL     1      51.391   4.745  17.337  0.00  0.00    +0.000 C 
ATOM      6  C   UNL     1      50.997   3.311  17.718  0.00  0.00    +0.000 C 
ATOM      7  C   UNL     1      49.640   2.932  17.139  0.00  0.00    +0.000 C 
BRANCH   5   8
ATOM      8  C   UNL     1      52.799   5.114  17.842  0.00  0.00    +0.000 C 
BRANCH   8   9
ATOM      9  N   UNL     1      53.302   4.228  18.894  0.00  0.00    +0.000 NA
ATOM     10  H   UNL     1      52.643   3.468  19.059  0.00  0.00    +0.000 HD
BRANCH   9  11
ATOM     11  C   UNL     1      54.637   3.681  18.600  0.00  0.00    +0.000 C 
ATOM     12  C   UNL     1      54.637   2.385  17.772  0.00  0.00    +0.000 C 
ATOM     13  C   UNL     1      54.177   1.164  18.569  0.00  0.00    +0.000 C 
ATOM     14  N   UNL     1      54.951   0.979  19.796  0.00  0.00    +0.000 NA
ATOM     15  C   UNL     1      54.891   2.172  20.645  0.00  0.00    +0.000 C 
ATOM     16  C   UNL     1      55.390   3.420  19.916  0.00  0.00    +0.000 C 
ATOM     17  H   UNL     1      55.924   0.789  19.556  0.00  0.00    +0.000 HD
ENDBRANCH   9  11
ENDBRANCH   8   9
ENDBRANCH   5   8
ENDBRANCH   1   2
BRANCH   1  20
ATOM     18  O   UNL     1      47.290   3.180  14.057  0.00  0.00    +0.000 OA
ATOM     19  C   UNL     1      46.829   4.219  14.520  0.00  0.00    +0.000 C 
ATOM     20  N   UNL     1      46.809   4.478  15.865  0.00  0.00    +0.000 N 
ATOM     21  H   UNL     1      46.321   5.299  16.206  0.00  0.00    +0.000 HD
BRANCH  19  22
ATOM     22  C   UNL     1      46.300   5.276  13.650  0.00  0.00    +0.000 A 
ATOM     23  C   UNL     1      47.080   6.390  13.372  0.00  0.00    +0.000 A 
ATOM     24  S   UNL     1      46.338   7.495  12.306  0.00  0.00    +0.000 S 
ATOM     25  C   UNL     1      44.965   6.502  12.147  0.00  0.00    +0.000 A 
ATOM     26  N   UNL     1      43.947   6.842  11.310  0.00  0.00    +0.000 NA
ATOM     27  C   UNL     1      42.999   5.970  11.245  0.00  0.00    +0.000 A 
ATOM     28  N   UNL     1      42.959   4.801  11.962  0.00  0.00    +0.000 N 
ATOM     29  C   UNL     1      43.893   4.492  12.919  0.00  0.00    +0.000 A 
ATOM     30  O   UNL     1      43.707   3.574  13.711  0.00  0.00    +0.000 OA
ATOM     31  C   UNL     1      45.042   5.377  12.948  0.00  0.00    +0.000 A 
ATOM     32  H   UNL     1      42.153   4.194  11.914  0.00  0.00    +0.000 HD
ENDBRANCH  19  22
ENDBRANCH   1  20
TORSDOF 6
ENDMDL
MODEL 8
REMARK VINA RESULT:    -6.681      5.319      8.081
REMARK INTER + INTRA:          -9.795
REMARK INTER:                  -8.947
REMARK INTRA:                  -0.848
REMARK UNBOUND:                -0.771
REMARK  Name = 
REMARK  6 active torsions:
REMARK  status: ('A' for Active; 'I' for Inactive)
REMARK    1  A    between atoms: C_2  and  C_19
REMARK    2  A    between atoms: N_3  and  C_4
REMARK    3  A    between atoms: C_4  and  C_5
REMARK    4  A    between atoms: C_8  and  C_9
REMARK    5  A    between atoms: C_9  and  N_10
REMARK    6  A    between atoms: N_10  and  C_11
REMARK                            x       y       z     vdW  Elec       q    Type
REMARK                         _______ _______ _______ _____ _____    ______ ____
ROOT
ATOM      1  C   UNL     1      45.704   8.148  12.810  0.00  0.00    +0.000 C 
ENDROOT
BRANCH   1   2
ATOM      2  C   UNL     1      47.220   8.414  12.860  0.00  0.00    +0.000 C 
ATOM      3  C   UNL     1      47.633   9.589  11.957  0.00  0.00    +0.000 C 
ATOM      4  C   UNL     1      49.147   9.777  11.883  0.00  0.00    +0.000 C 
ATOM      5  C   UNL     1      49.844   8.484  11.453  0.00  0.00    +0.000 C 
ATOM      6  C   UNL     1      49.468   7.332  12.397  0.00  0.00    +0.000 C 
ATOM      7  C   UNL     1      47.959   7.129  12.458  0.00  0.00    +0.000 C 
BRANCH   5   8
ATOM      8  C   UNL     1      51.370   8.645  11.314  0.00  0.00    +0.000 C 
BRANCH   8   9
ATOM      9  N   UNL     1      52.071   7.402  10.989  0.00  0.00    +0.000 NA
ATOM     10  H   UNL     1      51.462   6.785  10.452  0.00  0.00    +0.000 HD
BRANCH   9  11
ATOM     11  C   UNL     1      53.332   7.621  10.262  0.00  0.00    +0.000 C 
ATOM     12  C   UNL     1      53.235   7.458   8.735  0.00  0.00    +0.000 C 
ATOM     13  C   UNL     1      53.093   6.000   8.296  0.00  0.00    +0.000 C 
ATOM     14  N   UNL     1      54.160   5.153   8.828  0.00  0.00    +0.000 NA
ATOM     15  C   UNL     1      54.213   5.224  10.291  0.00  0.00    +0.000 C 
ATOM     16  C   UNL     1      54.407   6.656  10.789  0.00  0.00    +0.000 C 
ATOM     17  H   UNL     1      55.055   5.460   8.447  0.00  0.00    +0.000 HD
ENDBRANCH   9  11
ENDBRANCH   8   9
ENDBRANCH   5   8
ENDBRANCH   1   2
BRANCH   1  20
ATOM     18  O   UNL     1      43.498   7.259  11.294  0.00  0.00    +0.000 OA
ATOM     19  C   UNL     1      44.324   6.437  11.677  0.00  0.00    +0.000 C 
ATOM     20  N   UNL     1      45.394   6.781  12.459  0.00  0.00    +0.000 N 
ATOM     21  H   UNL     1      46.108   6.089  12.659  0.00  0.00    +0.000 HD
BRANCH  19  22
ATOM     22  C   UNL     1      44.195   5.013  11.349  0.00  0.00    +0.000 A 
ATOM     23  C   UNL     1      43.464   4.180  12.185  0.00  0.00    +0.000 A 
ATOM     24  S   UNL     1      43.370   2.569  11.634  0.00  0.00    +0.000 S 
ATOM     25  C   UNL     1      44.269   2.938  10.237  0.00  0.00    +0.000 A 
ATOM     26  N   UNL     1      44.504   1.994   9.285  0.00  0.00    +0.000 NA
ATOM     27  C   UNL     1      45.148   2.428   8.254  0.00  0.00    +0.000 A 
ATOM     28  N   UNL     1      45.604   3.712   8.099  0.00  0.00    +0.000 N 
ATOM     29  C   UNL     1      45.510   4.652   9.095  0.00  0.00    +0.000 A 
ATOM     30  O   UNL     1      46.135   5.705   9.030  0.00  0.00    +0.000 OA
ATOM     31  C   UNL     1      44.692   4.255  10.225  0.00  0.00    +0.000 A 
ATOM     32  H   UNL     1      46.160   3.968   7.296  0.00  0.00    +0.000 HD
ENDBRANCH  19  22
ENDBRANCH   1  20
TORSDOF 6
ENDMDL
MODEL 9
REMARK VINA RESULT:    -6.596      4.231      8.966
REMARK INTER + INTRA:          -9.681
REMARK INTER:                  -8.689
REMARK INTRA:                  -0.992
REMARK UNBOUND:                -0.771
REMARK  Name = 
REMARK  6 active torsions:
REMARK  status: ('A' for Active; 'I' for Inactive)
REMARK    1  A    between atoms: C_2  and  C_19
REMARK    2  A    between atoms: N_3  and  C_4
REMARK    3  A    between atoms: C_4  and  C_5
REMARK    4  A    between atoms: C_8  and  C_9
REMARK    5  A    between atoms: C_9  and  N_10
REMARK    6  A    between atoms: N_10  and  C_11
REMARK                            x       y       z     vdW  Elec       q    Type
REMARK                         _______ _______ _______ _____ _____    ______ ____
ROOT
ATOM      1  C   UNL     1      47.135   3.588  17.098  0.00  0.00    +0.000 C 
ENDROOT
BRANCH   1   2
ATOM      2  C   UNL     1      48.480   3.295  17.788  0.00  0.00    +0.000 C 
ATOM      3  C   UNL     1      49.246   4.583  18.137  0.00  0.00    +0.000 C 
ATOM      4  C   UNL     1      50.643   4.310  18.693  0.00  0.00    +0.000 C 
ATOM      5  C   UNL     1      51.455   3.430  17.738  0.00  0.00    +0.000 C 
ATOM      6  C   UNL     1      50.703   2.123  17.443  0.00  0.00    +0.000 C 
ATOM      7  C   UNL     1      49.317   2.392  16.871  0.00  0.00    +0.000 C 
BRANCH   5   8
ATOM      8  C   UNL     1      52.890   3.175  18.235  0.00  0.00    +0.000 C 
BRANCH   8   9
ATOM      9  N   UNL     1      53.150   1.783  18.606  0.00  0.00    +0.000 NA
ATOM     10  H   UNL     1      52.507   1.162  18.116  0.00  0.00    +0.000 HD
BRANCH   9  11
ATOM     11  C   UNL     1      54.540   1.367  18.355  0.00  0.00    +0.000 C 
ATOM     12  C   UNL     1      54.873   1.084  16.880  0.00  0.00    +0.000 C 
ATOM     13  C   UNL     1      54.261  -0.220  16.367  0.00  0.00    +0.000 C 
ATOM     14  N   UNL     1      54.624  -1.368  17.196  0.00  0.00    +0.000 NA
ATOM     15  C   UNL     1      54.234  -1.157  18.593  0.00  0.00    +0.000 C 
ATOM     16  C   UNL     1      54.860   0.108  19.179  0.00  0.00    +0.000 C 
ATOM     17  H   UNL     1      55.633  -1.511  17.150  0.00  0.00    +0.000 HD
ENDBRANCH   9  11
ENDBRANCH   8   9
ENDBRANCH   5   8
ENDBRANCH   1   2
BRANCH   1  20
ATOM     18  O   UNL     1      47.234   3.171  14.310  0.00  0.00    +0.000 OA
ATOM     19  C   UNL     1      47.242   4.321  14.738  0.00  0.00    +0.000 C 
ATOM     20  N   UNL     1      47.248   4.605  16.077  0.00  0.00    +0.000 N 
ATOM     21  H   UNL     1      47.144   5.567  16.383  0.00  0.00    +0.000 HD
BRANCH  19  22
ATOM     22  C   UNL     1      47.287   5.474  13.832  0.00  0.00    +0.000 A 
ATOM     23  C   UNL     1      46.403   5.542  12.764  0.00  0.00    +0.000 A 
ATOM     24  S   UNL     1      46.553   6.969  11.843  0.00  0.00    +0.000 S 
ATOM     25  C   UNL     1      47.777   7.564  12.864  0.00  0.00    +0.000 A 
ATOM     26  N   UNL     1      48.316   8.799  12.667  0.00  0.00    +0.000 NA
ATOM     27  C   UNL     1      49.191   9.143  13.550  0.00  0.00    +0.000 A 
ATOM     28  N   UNL     1      49.599   8.356  14.597  0.00  0.00    +0.000 N 
ATOM     29  C   UNL     1      49.185   7.056  14.746  0.00  0.00    +0.000 A 
ATOM     30  O   UNL     1      49.744   6.301  15.534  0.00  0.00    +0.000 OA
ATOM     31  C   UNL     1      48.113   6.658  13.853  0.00  0.00    +0.000 A 
ATOM     32  H   UNL     1      50.339   8.661  15.213  0.00  0.00    +0.000 HD
ENDBRANCH  19  22
ENDBRANCH   1  20
TORSDOF 6
ENDMDL
