MODEL 1
REMARK VINA RESULT:    -7.190      0.000      0.000
REMARK INTER + INTRA:         -11.561
REMARK INTER:                 -10.132
REMARK INTRA:                  -1.429
REMARK UNBOUND:                -1.429
REMARK  Name = 
REMARK  9 active torsions:
REMARK  status: ('A' for Active; 'I' for Inactive)
REMARK    1  A    between atoms: C_1  and  O_2
REMARK    2  A    between atoms: O_2  and  C_3
REMARK    3  A    between atoms: C_10  and  C_11
REMARK    4  A    between atoms: N_13  and  C_14
REMARK    5  A    between atoms: C_14  and  C_15
REMARK    6  A    between atoms: C_18  and  N_19
REMARK    7  A    between atoms: N_19  and  C_20
REMARK    8  A    between atoms: C_20  and  C_21
REMARK    9  A    between atoms: C_26  and  C_27
REMARK                            x       y       z     vdW  Elec       q    Type
REMARK                         _______ _______ _______ _____ _____    ______ ____
ROOT
ATOM      1  C   UNL     1      48.426   7.530  15.309  0.00  0.00    +0.000 A 
ATOM      2  C   UNL     1      48.272   6.286  14.686  0.00  0.00    +0.000 A 
ATOM      3  C   UNL     1      47.586   6.179  13.469  0.00  0.00    +0.000 A 
ATOM      4  C   UNL     1      47.020   7.303  12.854  0.00  0.00    +0.000 A 
ATOM      5  C   UNL     1      47.278   8.552  13.427  0.00  0.00    +0.000 A 
ATOM      6  C   UNL     1      47.955   8.667  14.647  0.00  0.00    +0.000 A 
ENDROOT
BRANCH   4   7
ATOM      7  N   UNL     1      46.308   7.146  11.656  0.00  0.00    +0.000 N 
ATOM      8  H   UNL     1      46.763   7.622  10.881  0.00  0.00    +0.000 HD
BRANCH   7   9
ATOM      9  C   UNL     1      45.797   5.812  11.328  0.00  0.00    +0.000 C 
BRANCH   9  10
ATOM     10  C   UNL     1      44.294   5.687  11.639  0.00  0.00    +0.000 C 
ATOM     11  C   UNL     1      43.994   4.874  12.913  0.00  0.00    +0.000 C 
ATOM     12  C   UNL     1      44.198   3.370  12.721  0.00  0.00    +0.000 C 
ATOM     13  C   UNL     1      43.449   2.865  11.491  0.00  0.00    +0.000 C 
ATOM     14  N   UNL     1      43.827   3.643  10.311  0.00  0.00    +0.000 N 
ATOM     15  C   UNL     1      44.491   2.996   9.282  0.00  0.00    +0.000 C 
ATOM     16  C   UNL     1      44.918   3.762   8.054  0.00  0.00    +0.000 C 
ATOM     17  O   UNL     1      44.749   1.789   9.329  0.00  0.00    +0.000 OA
ATOM     18  C   UNL     1      43.551   5.075  10.434  0.00  0.00    +0.000 C 
ENDBRANCH   9  10
ENDBRANCH   7   9
ENDBRANCH   4   7
BRANCH   1  19
ATOM     19  C   UNL     1      49.096   7.639  16.653  0.00  0.00    +0.000 C 
BRANCH  19  22
ATOM     20  C   UNL     1      50.484   6.231  18.114  0.00  0.00    +0.000 C 
ATOM     21  O   UNL     1      50.093   6.823  19.118  0.00  0.00    +0.000 OA
ATOM     22  N   UNL     1      50.024   6.557  16.868  0.00  0.00    +0.000 N 
ATOM     23  H   UNL     1      50.484   6.178  16.053  0.00  0.00    +0.000 HD
BRANCH  20  31
ATOM     24  C   UNL     1      50.379   2.912  17.200  0.00  0.00    +0.000 A 
ATOM     25  N   UNL     1      50.585   1.594  17.009  0.00  0.00    +0.000 NA
ATOM     26  C   UNL     1      51.739   1.068  17.429  0.00  0.00    +0.000 A 
ATOM     27  N   UNL     1      52.743   1.713  18.020  0.00  0.00    +0.000 NA
ATOM     28  C   UNL     1      52.499   3.021  18.190  0.00  0.00    +0.000 A 
ATOM     29  S   UNL     1      53.680   4.002  18.915  0.00  0.00    +0.000 S 
ATOM     30  C   UNL     1      52.686   5.375  18.790  0.00  0.00    +0.000 A 
ATOM     31  C   UNL     1      51.447   5.122  18.212  0.00  0.00    +0.000 A 
ATOM     32  C   UNL     1      51.349   3.716  17.827  0.00  0.00    +0.000 A 
BRANCH  24  34
ATOM     33  C   UNL     1      48.038   2.919  17.245  0.00  0.00    +0.000 C 
ATOM     34  O   UNL     1      49.228   3.468  16.680  0.00  0.00    +0.000 OA
ENDBRANCH  24  34
ENDBRANCH  20  31
ENDBRANCH  19  22
ENDBRANCH   1  19
TORSDOF 7
ENDMDL
MODEL 2
REMARK VINA RESULT:    -6.542      1.903      3.317
REMARK INTER + INTRA:         -10.648
REMARK INTER:                  -9.308
REMARK INTRA:                  -1.341
REMARK UNBOUND:                -1.429
REMARK  Name = 
REMARK  9 active torsions:
REMARK  status: ('A' for Active; 'I' for Inactive)
REMARK    1  A    between atoms: C_1  and  O_2
REMARK    2  A    between atoms: O_2  and  C_3
REMARK    3  A    between atoms: C_10  and  C_11
REMARK    4  A    between atoms: N_13  and  C_14
REMARK    5  A    between atoms: C_14  and  C_15
REMARK    6  A    between atoms: C_18  and  N_19
REMARK    7  A    between atoms: N_19  and  C_20
REMARK    8  A    between atoms: C_20  and  C_21
REMARK    9  A    between atoms: C_26  and  C_27
REMARK                            x       y       z     vdW  Elec       q    Type
REMARK                         _______ _______ _______ _____ _____    ______ ____
ROOT
ATOM      1  C   UNL     1      48.025   4.236  16.805  0.00  0.00    +0.000 A 
ATOM      2  C   UNL     1      48.628   5.461  16.496  0.00  0.00    +0.000 A 
ATOM      3  C   UNL     1      48.348   6.107  15.285  0.00  0.00    +0.000 A 
ATOM      4  C   UNL     1      47.479   5.541  14.344  0.00  0.00    +0.000 A 
ATOM      5  C   UNL     1      46.797   4.376  14.713  0.00  0.00    +0.000 A 
ATOM      6  C   UNL     1      47.078   3.719  15.917  0.00  0.00    +0.000 A 
ENDROOT
BRANCH   4   7
ATOM      7  N   UNL     1      47.256   6.201  13.128  0.00  0.00    +0.000 N 
ATOM      8  H   UNL     1      48.088   6.685  12.802  0.00  0.00    +0.000 HD
BRANCH   7   9
ATOM      9  C   UNL     1      46.526   5.484  12.078  0.00  0.00    +0.000 C 
BRANCH   9  10
ATOM     10  C   UNL     1      45.427   6.361  11.449  0.00  0.00    +0.000 C 
ATOM     11  C   UNL     1      44.395   6.881  12.468  0.00  0.00    +0.000 C 
ATOM     12  C   UNL     1      43.423   5.796  12.936  0.00  0.00    +0.000 C 
ATOM     13  C   UNL     1      42.791   5.073  11.750  0.00  0.00    +0.000 C 
ATOM     14  N   UNL     1      43.829   4.557  10.858  0.00  0.00    +0.000 N 
ATOM     15  C   UNL     1      43.945   3.185  10.709  0.00  0.00    +0.000 C 
ATOM     16  C   UNL     1      45.015   2.605   9.815  0.00  0.00    +0.000 C 
ATOM     17  O   UNL     1      43.189   2.399  11.288  0.00  0.00    +0.000 OA
ATOM     18  C   UNL     1      44.714   5.591  10.319  0.00  0.00    +0.000 C 
ENDBRANCH   9  10
ENDBRANCH   7   9
ENDBRANCH   4   7
BRANCH   1  19
ATOM     19  C   UNL     1      48.381   3.502  18.071  0.00  0.00    +0.000 C 
BRANCH  19  22
ATOM     20  C   UNL     1      50.448   2.368  17.370  0.00  0.00    +0.000 C 
ATOM     21  O   UNL     1      49.847   1.733  16.505  0.00  0.00    +0.000 OA
ATOM     22  N   UNL     1      49.801   3.275  18.166  0.00  0.00    +0.000 N 
ATOM     23  H   UNL     1      50.274   3.652  18.974  0.00  0.00    +0.000 HD
BRANCH  20  31
ATOM     24  C   UNL     1      53.057   4.583  17.746  0.00  0.00    +0.000 A 
ATOM     25  N   UNL     1      54.248   5.207  17.849  0.00  0.00    +0.000 NA
ATOM     26  C   UNL     1      55.351   4.456  17.913  0.00  0.00    +0.000 A 
ATOM     27  N   UNL     1      55.414   3.126  17.899  0.00  0.00    +0.000 NA
ATOM     28  C   UNL     1      54.209   2.544  17.796  0.00  0.00    +0.000 A 
ATOM     29  S   UNL     1      54.101   0.850  17.780  0.00  0.00    +0.000 S 
ATOM     30  C   UNL     1      52.410   0.911  17.623  0.00  0.00    +0.000 A 
ATOM     31  C   UNL     1      51.896   2.202  17.570  0.00  0.00    +0.000 A 
ATOM     32  C   UNL     1      52.975   3.179  17.703  0.00  0.00    +0.000 A 
BRANCH  24  34
ATOM     33  C   UNL     1      51.814   6.157  18.953  0.00  0.00    +0.000 C 
ATOM     34  O   UNL     1      51.916   5.359  17.775  0.00  0.00    +0.000 OA
ENDBRANCH  24  34
ENDBRANCH  20  31
ENDBRANCH  19  22
ENDBRANCH   1  19
TORSDOF 7
ENDMDL
MODEL 3
REMARK VINA RESULT:    -6.539      5.698      6.918
REMARK INTER + INTRA:         -10.644
REMARK INTER:                  -9.734
REMARK INTRA:                  -0.910
REMARK UNBOUND:                -1.429
REMARK  Name = 
REMARK  9 active torsions:
REMARK  status: ('A' for Active; 'I' for Inactive)
REMARK    1  A    between atoms: C_1  and  O_2
REMARK    2  A    between atoms: O_2  and  C_3
REMARK    3  A    between atoms: C_10  and  C_11
REMARK    4  A    between atoms: N_13  and  C_14
REMARK    5  A    between atoms: C_14  and  C_15
REMARK    6  A    between atoms: C_18  and  N_19
REMARK    7  A    between atoms: N_19  and  C_20
REMARK    8  A    between atoms: C_20  and  C_21
REMARK    9  A    between atoms: C_26  and  C_27
REMARK                            x       y       z     vdW  Elec       q    Type
REMARK                         _______ _______ _______ _____ _____    ______ ____
ROOT
ATOM      1  C   UNL     1      49.817   8.519  11.960  0.00  0.00    +0.000 A 
ATOM      2  C   UNL     1      48.741   9.412  11.897  0.00  0.00    +0.000 A 
ATOM      3  C   UNL     1      47.429   8.960  12.091  0.00  0.00    +0.000 A 
ATOM      4  C   UNL     1      47.155   7.608  12.331  0.00  0.00    +0.000 A 
ATOM      5  C   UNL     1      48.245   6.748  12.505  0.00  0.00    +0.000 A 
ATOM      6  C   UNL     1      49.558   7.190  12.304  0.00  0.00    +0.000 A 
ENDROOT
BRANCH   4   7
ATOM      7  N   UNL     1      45.825   7.191  12.482  0.00  0.00    +0.000 N 
ATOM      8  H   UNL     1      45.183   7.980  12.517  0.00  0.00    +0.000 HD
BRANCH   7   9
ATOM      9  C   UNL     1      45.357   6.070  11.661  0.00  0.00    +0.000 C 
BRANCH   9  10
ATOM     10  C   UNL     1      43.858   5.792  11.880  0.00  0.00    +0.000 C 
ATOM     11  C   UNL     1      43.568   4.926  13.121  0.00  0.00    +0.000 C 
ATOM     12  C   UNL     1      43.931   3.454  12.918  0.00  0.00    +0.000 C 
ATOM     13  C   UNL     1      43.307   2.904  11.638  0.00  0.00    +0.000 C 
ATOM     14  N   UNL     1      43.674   3.741  10.495  0.00  0.00    +0.000 N 
ATOM     15  C   UNL     1      44.456   3.185   9.497  0.00  0.00    +0.000 C 
ATOM     16  C   UNL     1      44.875   4.015   8.309  0.00  0.00    +0.000 C 
ATOM     17  O   UNL     1      44.830   2.009   9.540  0.00  0.00    +0.000 OA
ATOM     18  C   UNL     1      43.250   5.136  10.624  0.00  0.00    +0.000 C 
ENDBRANCH   9  10
ENDBRANCH   7   9
ENDBRANCH   4   7
BRANCH   1  19
ATOM     19  C   UNL     1      51.221   8.986  11.677  0.00  0.00    +0.000 C 
BRANCH  19  22
ATOM     20  C   UNL     1      52.796   7.993  10.071  0.00  0.00    +0.000 C 
ATOM     21  O   UNL     1      52.820   9.025   9.403  0.00  0.00    +0.000 OA
ATOM     22  N   UNL     1      52.052   7.902  11.216  0.00  0.00    +0.000 N 
ATOM     23  H   UNL     1      51.912   7.000  11.648  0.00  0.00    +0.000 HD
BRANCH  20  31
ATOM     24  C   UNL     1      52.961   6.081   7.212  0.00  0.00    +0.000 A 
ATOM     25  N   UNL     1      53.180   5.145   6.266  0.00  0.00    +0.000 NA
ATOM     26  C   UNL     1      54.034   4.156   6.543  0.00  0.00    +0.000 A 
ATOM     27  N   UNL     1      54.724   3.988   7.670  0.00  0.00    +0.000 NA
ATOM     28  C   UNL     1      54.478   4.940   8.583  0.00  0.00    +0.000 A 
ATOM     29  S   UNL     1      55.286   4.892  10.076  0.00  0.00    +0.000 S 
ATOM     30  C   UNL     1      54.485   6.291  10.610  0.00  0.00    +0.000 A 
ATOM     31  C   UNL     1      53.590   6.816   9.684  0.00  0.00    +0.000 A 
ATOM     32  C   UNL     1      53.610   6.020   8.458  0.00  0.00    +0.000 A 
BRANCH  24  34
ATOM     33  C   UNL     1      52.833   8.163   6.148  0.00  0.00    +0.000 C 
ATOM     34  O   UNL     1      52.151   7.150   6.887  0.00  0.00    +0.000 OA
ENDBRANCH  24  34
ENDBRANCH  20  31
ENDBRANCH  19  22
ENDBRANCH   1  19
TORSDOF 7
ENDMDL
MODEL 4
REMARK VINA RESULT:    -6.441      2.804      9.251
REMARK INTER + INTRA:         -10.506
REMARK INTER:                  -9.007
REMARK INTRA:                  -1.499
REMARK UNBOUND:                -1.429
REMARK  Name = 
REMARK  9 active torsions:
REMARK  status: ('A' for Active; 'I' for Inactive)
REMARK    1  A    between atoms: C_1  and  O_2
REMARK    2  A    between atoms: O_2  and  C_3
REMARK    3  A    between atoms: C_10  and  C_11
REMARK    4  A    between atoms: N_13  and  C_14
REMARK    5  A    between atoms: C_14  and  C_15
REMARK    6  A    between atoms: C_18  and  N_19
REMARK    7  A    between atoms: N_19  and  C_20
REMARK    8  A    between atoms: C_20  and  C_21
REMARK    9  A    between atoms: C_26  and  C_27
REMARK                            x       y       z     vdW  Elec       q    Type
REMARK                         _______ _______ _______ _____ _____    ______ ____
ROOT
ATOM      1  C   UNL     1      48.626   3.327  17.480  0.00  0.00    +0.000 A 
ATOM      2  C   UNL     1      49.572   2.418  16.992  0.00  0.00    +0.000 A 
ATOM      3  C   UNL     1      50.918   2.519  17.369  0.00  0.00    +0.000 A 
ATOM      4  C   UNL     1      51.358   3.539  18.223  0.00  0.00    +0.000 A 
ATOM      5  C   UNL     1      50.386   4.369  18.791  0.00  0.00    +0.000 A 
ATOM      6  C   UNL     1      49.041   4.280  18.414  0.00  0.00    +0.000 A 
ENDROOT
BRANCH   4   7
ATOM      7  N   UNL     1      52.719   3.628  18.544  0.00  0.00    +0.000 N 
ATOM      8  H   UNL     1      53.292   3.064  17.921  0.00  0.00    +0.000 HD
BRANCH   7   9
ATOM      9  C   UNL     1      53.273   4.953  18.838  0.00  0.00    +0.000 C 
BRANCH   9  10
ATOM     10  C   UNL     1      54.416   5.318  17.872  0.00  0.00    +0.000 C 
ATOM     11  C   UNL     1      55.434   6.308  18.469  0.00  0.00    +0.000 C 
ATOM     12  C   UNL     1      54.894   7.737  18.557  0.00  0.00    +0.000 C 
ATOM     13  C   UNL     1      54.323   8.193  17.217  0.00  0.00    +0.000 C 
ATOM     14  N   UNL     1      53.322   7.238  16.741  0.00  0.00    +0.000 N 
ATOM     15  C   UNL     1      52.009   7.663  16.628  0.00  0.00    +0.000 C 
ATOM     16  C   UNL     1      50.939   6.707  16.161  0.00  0.00    +0.000 C 
ATOM     17  O   UNL     1      51.672   8.819  16.898  0.00  0.00    +0.000 OA
ATOM     18  C   UNL     1      53.841   5.881  16.557  0.00  0.00    +0.000 C 
ENDBRANCH   9  10
ENDBRANCH   7   9
ENDBRANCH   4   7
BRANCH   1  19
ATOM     19  C   UNL     1      47.194   3.268  17.019  0.00  0.00    +0.000 C 
BRANCH  19  22
ATOM     20  C   UNL     1      47.042   4.217  14.755  0.00  0.00    +0.000 C 
ATOM     21  O   UNL     1      47.408   3.158  14.249  0.00  0.00    +0.000 OA
ATOM     22  N   UNL     1      46.890   4.344  16.109  0.00  0.00    +0.000 N 
ATOM     23  H   UNL     1      46.758   5.261  16.510  0.00  0.00    +0.000 HD
BRANCH  20  31
ATOM     24  C   UNL     1      44.379   5.033  12.731  0.00  0.00    +0.000 A 
ATOM     25  N   UNL     1      43.518   5.570  11.843  0.00  0.00    +0.000 NA
ATOM     26  C   UNL     1      43.837   6.741  11.284  0.00  0.00    +0.000 A 
ATOM     27  N   UNL     1      44.930   7.466  11.515  0.00  0.00    +0.000 NA
ATOM     28  C   UNL     1      45.758   6.897  12.403  0.00  0.00    +0.000 A 
ATOM     29  S   UNL     1      47.196   7.694  12.831  0.00  0.00    +0.000 S 
ATOM     30  C   UNL     1      47.639   6.433  13.881  0.00  0.00    +0.000 A 
ATOM     31  C   UNL     1      46.723   5.388  13.924  0.00  0.00    +0.000 A 
ATOM     32  C   UNL     1      45.582   5.683  13.060  0.00  0.00    +0.000 A 
BRANCH  24  34
ATOM     33  C   UNL     1      43.610   2.836  12.477  0.00  0.00    +0.000 C 
ATOM     34  O   UNL     1      44.001   3.873  13.376  0.00  0.00    +0.000 OA
ENDBRANCH  24  34
ENDBRANCH  20  31
ENDBRANCH  19  22
ENDBRANCH   1  19
TORSDOF 7
ENDMDL
MODEL 5
REMARK VINA RESULT:    -6.186      1.668      2.149
REMARK INTER + INTRA:         -10.147
REMARK INTER:                  -8.902
REMARK INTRA:                  -1.245
REMARK UNBOUND:                -1.429
REMARK  Name = 
REMARK  9 active torsions:
REMARK  status: ('A' for Active; 'I' for Inactive)
REMARK    1  A    between atoms: C_1  and  O_2
REMARK    2  A    between atoms: O_2  and  C_3
REMARK    3  A    between atoms: C_10  and  C_11
REMARK    4  A    between atoms: N_13  and  C_14
REMARK    5  A    between atoms: C_14  and  C_15
REMARK    6  A    between atoms: C_18  and  N_19
REMARK    7  A    between atoms: N_19  and  C_20
REMARK    8  A    between atoms: C_20  and  C_21
REMARK    9  A    between atoms: C_26  and  C_27
REMARK                            x       y       z     vdW  Elec       q    Type
REMARK                         _______ _______ _______ _____ _____    ______ ____
ROOT
ATOM      1  C   UNL     1      48.876   5.910  16.886  0.00  0.00    +0.000 A 
ATOM      2  C   UNL     1      48.208   4.698  17.093  0.00  0.00    +0.000 A 
ATOM      3  C   UNL     1      47.380   4.161  16.098  0.00  0.00    +0.000 A 
ATOM      4  C   UNL     1      47.182   4.827  14.882  0.00  0.00    +0.000 A 
ATOM      5  C   UNL     1      47.944   5.977  14.643  0.00  0.00    +0.000 A 
ATOM      6  C   UNL     1      48.766   6.524  15.635  0.00  0.00    +0.000 A 
ENDROOT
BRANCH   4   7
ATOM      7  N   UNL     1      46.316   4.275  13.928  0.00  0.00    +0.000 N 
ATOM      8  H   UNL     1      45.512   3.829  14.361  0.00  0.00    +0.000 HD
BRANCH   7   9
ATOM      9  C   UNL     1      45.994   5.077  12.743  0.00  0.00    +0.000 C 
BRANCH   9  10
ATOM     10  C   UNL     1      44.484   5.363  12.643  0.00  0.00    +0.000 C 
ATOM     11  C   UNL     1      43.607   4.262  13.269  0.00  0.00    +0.000 C 
ATOM     12  C   UNL     1      43.543   2.995  12.414  0.00  0.00    +0.000 C 
ATOM     13  C   UNL     1      43.165   3.322  10.972  0.00  0.00    +0.000 C 
ATOM     14  N   UNL     1      44.076   4.328  10.425  0.00  0.00    +0.000 N 
ATOM     15  C   UNL     1      44.897   3.967   9.369  0.00  0.00    +0.000 C 
ATOM     16  C   UNL     1      45.867   4.966   8.786  0.00  0.00    +0.000 C 
ATOM     17  O   UNL     1      44.864   2.837   8.873  0.00  0.00    +0.000 OA
ATOM     18  C   UNL     1      44.083   5.587  11.171  0.00  0.00    +0.000 C 
ENDBRANCH   9  10
ENDBRANCH   7   9
ENDBRANCH   4   7
BRANCH   1  19
ATOM     19  C   UNL     1      49.706   6.528  17.980  0.00  0.00    +0.000 C 
BRANCH  19  22
ATOM     20  C   UNL     1      51.089   5.301  19.602  0.00  0.00    +0.000 C 
ATOM     21  O   UNL     1      50.337   5.604  20.526  0.00  0.00    +0.000 OA
ATOM     22  N   UNL     1      50.835   5.697  18.317  0.00  0.00    +0.000 N 
ATOM     23  H   UNL     1      51.549   5.584  17.612  0.00  0.00    +0.000 HD
BRANCH  20  31
ATOM     24  C   UNL     1      52.392   2.530  18.025  0.00  0.00    +0.000 A 
ATOM     25  N   UNL     1      53.076   1.430  17.651  0.00  0.00    +0.000 NA
ATOM     26  C   UNL     1      54.143   1.075  18.371  0.00  0.00    +0.000 A 
ATOM     27  N   UNL     1      54.633   1.705  19.438  0.00  0.00    +0.000 NA
ATOM     28  C   UNL     1      53.925   2.793  19.776  0.00  0.00    +0.000 A 
ATOM     29  S   UNL     1      54.418   3.728  21.105  0.00  0.00    +0.000 S 
ATOM     30  C   UNL     1      53.116   4.800  20.896  0.00  0.00    +0.000 A 
ATOM     31  C   UNL     1      52.283   4.472  19.832  0.00  0.00    +0.000 A 
ATOM     32  C   UNL     1      52.787   3.285  19.145  0.00  0.00    +0.000 A 
BRANCH  24  34
ATOM     33  C   UNL     1      50.409   1.908  16.947  0.00  0.00    +0.000 C 
ATOM     34  O   UNL     1      51.348   2.946  17.224  0.00  0.00    +0.000 OA
ENDBRANCH  24  34
ENDBRANCH  20  31
ENDBRANCH  19  22
ENDBRANCH   1  19
TORSDOF 7
ENDMDL
MODEL 6
REMARK VINA RESULT:    -6.008      3.896      9.269
REMARK INTER + INTRA:          -9.895
REMARK INTER:                  -8.263
REMARK INTRA:                  -1.632
REMARK UNBOUND:                -1.429
REMARK  Name = 
REMARK  9 active torsions:
REMARK  status: ('A' for Active; 'I' for Inactive)
REMARK    1  A    between atoms: C_1  and  O_2
REMARK    2  A    between atoms: O_2  and  C_3
REMARK    3  A    between atoms: C_10  and  C_11
REMARK    4  A    between atoms: N_13  and  C_14
REMARK    5  A    between atoms: C_14  and  C_15
REMARK    6  A    between atoms: C_18  and  N_19
REMARK    7  A    between atoms: N_19  and  C_20
REMARK    8  A    between atoms: C_20  and  C_21
REMARK    9  A    between atoms: C_26  and  C_27
REMARK                            x       y       z     vdW  Elec       q    Type
REMARK                         _______ _______ _______ _____ _____    ______ ____
ROOT
ATOM      1  C   UNL     1      48.007   4.514  17.366  0.00  0.00    +0.000 A 
ATOM      2  C   UNL     1      49.370   4.669  17.646  0.00  0.00    +0.000 A 
ATOM      3  C   UNL     1      49.790   5.461  18.722  0.00  0.00    +0.000 A 
ATOM      4  C   UNL     1      48.866   6.135  19.532  0.00  0.00    +0.000 A 
ATOM      5  C   UNL     1      47.508   5.881  19.311  0.00  0.00    +0.000 A 
ATOM      6  C   UNL     1      47.080   5.097  18.233  0.00  0.00    +0.000 A 
ENDROOT
BRANCH   4   7
ATOM      7  N   UNL     1      49.329   6.949  20.574  0.00  0.00    +0.000 N 
ATOM      8  H   UNL     1      49.910   6.431  21.229  0.00  0.00    +0.000 HD
BRANCH   7   9
ATOM      9  C   UNL     1      49.845   8.279  20.234  0.00  0.00    +0.000 C 
BRANCH   9  10
ATOM     10  C   UNL     1      49.118   9.388  21.018  0.00  0.00    +0.000 C 
ATOM     11  C   UNL     1      47.590   9.205  21.069  0.00  0.00    +0.000 C 
ATOM     12  C   UNL     1      46.906   9.534  19.741  0.00  0.00    +0.000 C 
ATOM     13  C   UNL     1      47.333  10.906  19.227  0.00  0.00    +0.000 C 
ATOM     14  N   UNL     1      48.792  10.986  19.148  0.00  0.00    +0.000 N 
ATOM     15  C   UNL     1      49.376  11.135  17.901  0.00  0.00    +0.000 C 
ATOM     16  C   UNL     1      50.878  11.202  17.768  0.00  0.00    +0.000 C 
ATOM     17  O   UNL     1      48.701  11.220  16.870  0.00  0.00    +0.000 OA
ATOM     18  C   UNL     1      49.466  10.770  20.429  0.00  0.00    +0.000 C 
ENDBRANCH   9  10
ENDBRANCH   7   9
ENDBRANCH   4   7
BRANCH   1  19
ATOM     19  C   UNL     1      47.554   3.725  16.165  0.00  0.00    +0.000 C 
BRANCH  19  22
ATOM     20  C   UNL     1      46.499   4.136  13.982  0.00  0.00    +0.000 C 
ATOM     21  O   UNL     1      46.839   3.029  13.570  0.00  0.00    +0.000 OA
ATOM     22  N   UNL     1      46.792   4.544  15.255  0.00  0.00    +0.000 N 
ATOM     23  H   UNL     1      46.657   5.511  15.511  0.00  0.00    +0.000 HD
BRANCH  20  31
ATOM     24  C   UNL     1      46.819   7.484  13.244  0.00  0.00    +0.000 A 
ATOM     25  N   UNL     1      46.670   8.762  12.840  0.00  0.00    +0.000 NA
ATOM     26  C   UNL     1      45.623   9.062  12.068  0.00  0.00    +0.000 A 
ATOM     27  N   UNL     1      44.689   8.221  11.626  0.00  0.00    +0.000 NA
ATOM     28  C   UNL     1      44.874   6.962  12.049  0.00  0.00    +0.000 A 
ATOM     29  S   UNL     1      43.784   5.752  11.566  0.00  0.00    +0.000 S 
ATOM     30  C   UNL     1      44.627   4.572  12.452  0.00  0.00    +0.000 A 
ATOM     31  C   UNL     1      45.735   5.064  13.133  0.00  0.00    +0.000 A 
ATOM     32  C   UNL     1      45.897   6.491  12.866  0.00  0.00    +0.000 A 
BRANCH  24  34
ATOM     33  C   UNL     1      49.124   7.080  13.151  0.00  0.00    +0.000 C 
ATOM     34  O   UNL     1      47.952   7.162  13.962  0.00  0.00    +0.000 OA
ENDBRANCH  24  34
ENDBRANCH  20  31
ENDBRANCH  19  22
ENDBRANCH   1  19
TORSDOF 7
ENDMDL
MODEL 7
REMARK VINA RESULT:    -5.617      3.627      9.132
REMARK INTER + INTRA:          -9.344
REMARK INTER:                  -7.869
REMARK INTRA:                  -1.474
REMARK UNBOUND:                -1.429
REMARK  Name = 
REMARK  9 active torsions:
REMARK  status: ('A' for Active; 'I' for Inactive)
REMARK    1  A    between atoms: C_1  and  O_2
REMARK    2  A    between atoms: O_2  and  C_3
REMARK    3  A    between atoms: C_10  and  C_11
REMARK    4  A    between atoms: N_13  and  C_14
REMARK    5  A    between atoms: C_14  and  C_15
REMARK    6  A    between atoms: C_18  and  N_19
REMARK    7  A    between atoms: N_19  and  C_20
REMARK    8  A    between atoms: C_20  and  C_21
REMARK    9  A    between atoms: C_26  and  C_27
REMARK                            x       y       z     vdW  Elec       q    Type
REMARK                         _______ _______ _______ _____ _____    ______ ____
ROOT
ATOM      1  C   UNL     1      48.086   4.269  17.390  0.00  0.00    +0.000 A 
ATOM      2  C   UNL     1      49.426   4.110  17.759  0.00  0.00    +0.000 A 
ATOM      3  C   UNL     1      49.968   4.856  18.814  0.00  0.00    +0.000 A 
ATOM      4  C   UNL     1      49.196   5.793  19.512  0.00  0.00    +0.000 A 
ATOM      5  C   UNL     1      47.831   5.860  19.209  0.00  0.00    +0.000 A 
ATOM      6  C   UNL     1      47.284   5.125  18.151  0.00  0.00    +0.000 A 
ENDROOT
BRANCH   4   7
ATOM      7  N   UNL     1      49.787   6.547  20.536  0.00  0.00    +0.000 N 
ATOM      8  H   UNL     1      49.365   6.353  21.440  0.00  0.00    +0.000 HD
BRANCH   7   9
ATOM      9  C   UNL     1      51.250   6.646  20.561  0.00  0.00    +0.000 C 
BRANCH   9  10
ATOM     10  C   UNL     1      51.725   8.093  20.330  0.00  0.00    +0.000 C 
ATOM     11  C   UNL     1      50.579   9.075  20.020  0.00  0.00    +0.000 C 
ATOM     12  C   UNL     1      50.020   8.909  18.606  0.00  0.00    +0.000 C 
ATOM     13  C   UNL     1      51.135   8.934  17.566  0.00  0.00    +0.000 C 
ATOM     14  N   UNL     1      52.155   7.937  17.891  0.00  0.00    +0.000 N 
ATOM     15  C   UNL     1      52.345   6.880  17.017  0.00  0.00    +0.000 C 
ATOM     16  C   UNL     1      53.371   5.817  17.321  0.00  0.00    +0.000 C 
ATOM     17  O   UNL     1      51.695   6.773  15.972  0.00  0.00    +0.000 OA
ATOM     18  C   UNL     1      52.776   8.133  19.203  0.00  0.00    +0.000 C 
ENDBRANCH   9  10
ENDBRANCH   7   9
ENDBRANCH   4   7
BRANCH   1  19
ATOM     19  C   UNL     1      47.519   3.526  16.209  0.00  0.00    +0.000 C 
BRANCH  19  22
ATOM     20  C   UNL     1      46.505   4.072  14.037  0.00  0.00    +0.000 C 
ATOM     21  O   UNL     1      46.821   2.978  13.574  0.00  0.00    +0.000 OA
ATOM     22  N   UNL     1      46.792   4.408  15.332  0.00  0.00    +0.000 N 
ATOM     23  H   UNL     1      46.678   5.365  15.634  0.00  0.00    +0.000 HD
BRANCH  20  31
ATOM     24  C   UNL     1      47.038   7.395  13.308  0.00  0.00    +0.000 A 
ATOM     25  N   UNL     1      46.966   8.684  12.919  0.00  0.00    +0.000 NA
ATOM     26  C   UNL     1      45.913   9.066  12.192  0.00  0.00    +0.000 A 
ATOM     27  N   UNL     1      44.904   8.300  11.783  0.00  0.00    +0.000 NA
ATOM     28  C   UNL     1      45.014   7.026  12.190  0.00  0.00    +0.000 A 
ATOM     29  S   UNL     1      43.820   5.903  11.744  0.00  0.00    +0.000 S 
ATOM     30  C   UNL     1      44.610   4.657  12.587  0.00  0.00    +0.000 A 
ATOM     31  C   UNL     1      45.777   5.061  13.226  0.00  0.00    +0.000 A 
ATOM     32  C   UNL     1      46.032   6.475  12.961  0.00  0.00    +0.000 A 
BRANCH  24  34
ATOM     33  C   UNL     1      49.378   7.452  13.373  0.00  0.00    +0.000 C 
ATOM     34  O   UNL     1      48.173   6.984  13.977  0.00  0.00    +0.000 OA
ENDBRANCH  24  34
ENDBRANCH  20  31
ENDBRANCH  19  22
ENDBRANCH   1  19
TORSDOF 7
ENDMDL
MODEL 8
REMARK VINA RESULT:    -5.581      3.434      9.483
REMARK INTER + INTRA:          -9.294
REMARK INTER:                  -8.418
REMARK INTRA:                  -0.876
REMARK UNBOUND:                -1.429
REMARK  Name = 
REMARK  9 active torsions:
REMARK  status: ('A' for Active; 'I' for Inactive)
REMARK    1  A    between atoms: C_1  and  O_2
REMARK    2  A    between atoms: O_2  and  C_3
REMARK    3  A    between atoms: C_10  and  C_11
REMARK    4  A    between atoms: N_13  and  C_14
REMARK    5  A    between atoms: C_14  and  C_15
REMARK    6  A    between atoms: C_18  and  N_19
REMARK    7  A    between atoms: N_19  and  C_20
REMARK    8  A    between atoms: C_20  and  C_21
REMARK    9  A    between atoms: C_26  and  C_27
REMARK                            x       y       z     vdW  Elec       q    Type
REMARK                         _______ _______ _______ _____ _____    ______ ____
ROOT
ATOM      1  C   UNL     1      49.534   4.476  17.608  0.00  0.00    +0.000 A 
ATOM      2  C   UNL     1      48.911   3.287  17.212  0.00  0.00    +0.000 A 
ATOM      3  C   UNL     1      49.658   2.116  17.036  0.00  0.00    +0.000 A 
ATOM      4  C   UNL     1      51.046   2.103  17.229  0.00  0.00    +0.000 A 
ATOM      5  C   UNL     1      51.638   3.266  17.734  0.00  0.00    +0.000 A 
ATOM      6  C   UNL     1      50.900   4.443  17.905  0.00  0.00    +0.000 A 
ENDROOT
BRANCH   4   7
ATOM      7  N   UNL     1      51.761   0.919  17.004  0.00  0.00    +0.000 N 
ATOM      8  H   UNL     1      52.332   0.976  16.164  0.00  0.00    +0.000 HD
BRANCH   7   9
ATOM      9  C   UNL     1      52.432   0.292  18.147  0.00  0.00    +0.000 C 
BRANCH   9  10
ATOM     10  C   UNL     1      53.946   0.574  18.142  0.00  0.00    +0.000 C 
ATOM     11  C   UNL     1      54.571   0.560  16.733  0.00  0.00    +0.000 C 
ATOM     12  C   UNL     1      54.712  -0.851  16.159  0.00  0.00    +0.000 C 
ATOM     13  C   UNL     1      55.421  -1.778  17.143  0.00  0.00    +0.000 C 
ATOM     14  N   UNL     1      54.740  -1.759  18.438  0.00  0.00    +0.000 N 
ATOM     15  C   UNL     1      54.142  -2.926  18.883  0.00  0.00    +0.000 C 
ATOM     16  C   UNL     1      53.410  -2.950  20.203  0.00  0.00    +0.000 C 
ATOM     17  O   UNL     1      54.186  -3.973  18.229  0.00  0.00    +0.000 OA
ATOM     18  C   UNL     1      54.677  -0.433  19.053  0.00  0.00    +0.000 C 
ENDBRANCH   9  10
ENDBRANCH   7   9
ENDBRANCH   4   7
BRANCH   1  19
ATOM     19  C   UNL     1      48.748   5.755  17.726  0.00  0.00    +0.000 C 
BRANCH  19  22
ATOM     20  C   UNL     1      48.990   6.629  15.440  0.00  0.00    +0.000 C 
ATOM     21  O   UNL     1      50.212   6.697  15.558  0.00  0.00    +0.000 OA
ATOM     22  N   UNL     1      48.202   6.155  16.453  0.00  0.00    +0.000 N 
ATOM     23  H   UNL     1      47.200   6.270  16.399  0.00  0.00    +0.000 HD
BRANCH  20  31
ATOM     24  C   UNL     1      46.485   5.228  13.538  0.00  0.00    +0.000 A 
ATOM     25  N   UNL     1      45.591   4.881  12.590  0.00  0.00    +0.000 NA
ATOM     26  C   UNL     1      45.469   5.671  11.519  0.00  0.00    +0.000 A 
ATOM     27  N   UNL     1      46.135   6.798  11.277  0.00  0.00    +0.000 NA
ATOM     28  C   UNL     1      47.012   7.107  12.243  0.00  0.00    +0.000 A 
ATOM     29  S   UNL     1      47.938   8.524  12.106  0.00  0.00    +0.000 S 
ATOM     30  C   UNL     1      48.729   8.207  13.576  0.00  0.00    +0.000 A 
ATOM     31  C   UNL     1      48.322   7.030  14.192  0.00  0.00    +0.000 A 
ATOM     32  C   UNL     1      47.271   6.387  13.405  0.00  0.00    +0.000 A 
BRANCH  24  34
ATOM     33  C   UNL     1      47.200   3.212  14.490  0.00  0.00    +0.000 C 
ATOM     34  O   UNL     1      46.541   4.462  14.684  0.00  0.00    +0.000 OA
ENDBRANCH  24  34
ENDBRANCH  20  31
ENDBRANCH  19  22
ENDBRANCH   1  19
TORSDOF 7
ENDMDL
MODEL 9
REMARK VINA RESULT:    -5.286      4.462      8.474
REMARK INTER + INTRA:          -8.877
REMARK INTER:                  -7.474
REMARK INTRA:                  -1.403
REMARK UNBOUND:                -1.429
REMARK  Name = 
REMARK  9 active torsions:
REMARK  status: ('A' for Active; 'I' for Inactive)
REMARK    1  A    between atoms: C_1  and  O_2
REMARK    2  A    between atoms: O_2  and  C_3
REMARK    3  A    between atoms: C_10  and  C_11
REMARK    4  A    between atoms: N_13  and  C_14
REMARK    5  A    between atoms: C_14  and  C_15
REMARK    6  A    between atoms: C_18  and  N_19
REMARK    7  A    between atoms: N_19  and  C_20
REMARK    8  A    between atoms: C_20  and  C_21
REMARK    9  A    between atoms: C_26  and  C_27
REMARK                            x       y       z     vdW  Elec       q    Type
REMARK                         _______ _______ _______ _____ _____    ______ ____
ROOT
ATOM      1  C   UNL     1      49.307   5.782  16.482  0.00  0.00    +0.000 A 
ATOM      2  C   UNL     1      50.508   5.319  17.032  0.00  0.00    +0.000 A 
ATOM      3  C   UNL     1      51.717   5.967  16.746  0.00  0.00    +0.000 A 
ATOM      4  C   UNL     1      51.763   7.076  15.892  0.00  0.00    +0.000 A 
ATOM      5  C   UNL     1      50.544   7.595  15.441  0.00  0.00    +0.000 A 
ATOM      6  C   UNL     1      49.333   6.950  15.715  0.00  0.00    +0.000 A 
ENDROOT
BRANCH   4   7
ATOM      7  N   UNL     1      52.999   7.670  15.601  0.00  0.00    +0.000 N 
ATOM      8  H   UNL     1      53.725   6.976  15.444  0.00  0.00    +0.000 HD
BRANCH   7   9
ATOM      9  C   UNL     1      53.020   8.789  14.654  0.00  0.00    +0.000 C 
BRANCH   9  10
ATOM     10  C   UNL     1      54.086   8.588  13.561  0.00  0.00    +0.000 C 
ATOM     11  C   UNL     1      54.908   9.857  13.263  0.00  0.00    +0.000 C 
ATOM     12  C   UNL     1      54.123  10.902  12.468  0.00  0.00    +0.000 C 
ATOM     13  C   UNL     1      53.489  10.286  11.224  0.00  0.00    +0.000 C 
ATOM     14  N   UNL     1      52.677   9.125  11.590  0.00  0.00    +0.000 N 
ATOM     15  C   UNL     1      51.310   9.185  11.377  0.00  0.00    +0.000 C 
ATOM     16  C   UNL     1      50.430   8.019  11.757  0.00  0.00    +0.000 C 
ATOM     17  O   UNL     1      50.771  10.175  10.873  0.00  0.00    +0.000 OA
ATOM     18  C   UNL     1      53.430   8.067  12.267  0.00  0.00    +0.000 C 
ENDBRANCH   9  10
ENDBRANCH   7   9
ENDBRANCH   4   7
BRANCH   1  19
ATOM     19  C   UNL     1      48.016   5.045  16.725  0.00  0.00    +0.000 C 
BRANCH  19  22
ATOM     20  C   UNL     1      47.123   4.190  14.599  0.00  0.00    +0.000 C 
ATOM     21  O   UNL     1      47.837   3.191  14.661  0.00  0.00    +0.000 OA
ATOM     22  N   UNL     1      47.136   5.137  15.587  0.00  0.00    +0.000 N 
ATOM     23  H   UNL     1      46.675   6.022  15.433  0.00  0.00    +0.000 HD
BRANCH  20  31
ATOM     24  C   UNL     1      46.054   6.985  12.897  0.00  0.00    +0.000 A 
ATOM     25  N   UNL     1      45.431   7.893  12.118  0.00  0.00    +0.000 NA
ATOM     26  C   UNL     1      44.524   7.454  11.241  0.00  0.00    +0.000 A 
ATOM     27  N   UNL     1      44.161   6.190  11.030  0.00  0.00    +0.000 NA
ATOM     28  C   UNL     1      44.804   5.321  11.823  0.00  0.00    +0.000 A 
ATOM     29  S   UNL     1      44.476   3.661  11.678  0.00  0.00    +0.000 S 
ATOM     30  C   UNL     1      45.574   3.286  12.920  0.00  0.00    +0.000 A 
ATOM     31  C   UNL     1      46.200   4.398  13.473  0.00  0.00    +0.000 A 
ATOM     32  C   UNL     1      45.758   5.614  12.793  0.00  0.00    +0.000 A 
BRANCH  24  34
ATOM     33  C   UNL     1      47.235   8.847  13.685  0.00  0.00    +0.000 C 
ATOM     34  O   UNL     1      47.056   7.432  13.733  0.00  0.00    +0.000 OA
ENDBRANCH  24  34
ENDBRANCH  20  31
ENDBRANCH  19  22
ENDBRANCH   1  19
TORSDOF 7
ENDMDL
