MODEL 1
REMARK VINA RESULT:    -7.369      0.000      0.000
REMARK INTER + INTRA:          -9.116
REMARK INTER:                  -8.877
REMARK INTRA:                  -0.240
REMARK UNBOUND:                -0.240
REMARK  Name = 
REMARK  6 active torsions:
REMARK  status: ('A' for Active; 'I' for Inactive)
REMARK    1  A    between atoms: C_1  and  C_2
REMARK    2  A    between atoms: C_5  and  C_6
REMARK    3  A    between atoms: C_6  and  N_7
REMARK    4  A    between atoms: C_11  and  C_12
REMARK    5  A    between atoms: C_12  and  N_13
REMARK    6  A    between atoms: C_16  and  C_17
REMARK                            x       y       z     vdW  Elec       q    Type
REMARK                         _______ _______ _______ _____ _____    ______ ____
ROOT
ATOM      1  N   UNL     1      44.404   2.514  10.514  0.00  0.00    +0.000 N 
ATOM      2  C   UNL     1      45.166   2.604   9.336  0.00  0.00    +0.000 A 
ATOM      3  C   UNL     1      45.633   1.428   8.758  0.00  0.00    +0.000 A 
ATOM      4  C   UNL     1      46.375   1.488   7.577  0.00  0.00    +0.000 A 
ATOM      5  C   UNL     1      46.654   2.724   6.995  0.00  0.00    +0.000 A 
ATOM      6  C   UNL     1      46.156   3.843   7.651  0.00  0.00    +0.000 A 
ATOM      7  N   UNL     1      45.443   3.808   8.801  0.00  0.00    +0.000 NA
ATOM      8  H   UNL     1      43.601   1.918  10.336  0.00  0.00    +0.000 HD
ENDROOT
BRANCH   1   9
ATOM      9  C   UNL     1      43.987   3.819  11.037  0.00  0.00    +0.000 C 
BRANCH   9  14
ATOM     10  C   UNL     1      47.881   5.777  14.740  0.00  0.00    +0.000 C 
ATOM     11  C   UNL     1      46.848   5.275  13.784  0.00  0.00    +0.000 A 
ATOM     12  C   UNL     1      46.594   3.922  13.634  0.00  0.00    +0.000 A 
ATOM     13  N   UNL     1      45.688   3.441  12.754  0.00  0.00    +0.000 NA
ATOM     14  C   UNL     1      45.007   4.365  12.015  0.00  0.00    +0.000 A 
ATOM     15  C   UNL     1      45.244   5.734  12.174  0.00  0.00    +0.000 A 
ATOM     16  C   UNL     1      44.531   6.801  11.397  0.00  0.00    +0.000 C 
ATOM     17  N   UNL     1      46.174   6.198  13.057  0.00  0.00    +0.000 NA
ENDBRANCH   9  14
ENDBRANCH   1   9
BRANCH   5  18
ATOM     18  C   UNL     1      47.366   2.882   5.682  0.00  0.00    +0.000 C 
BRANCH  18  19
ATOM     19  N   UNL     1      48.445   1.918   5.487  0.00  0.00    +0.000 NA
ATOM     20  H   UNL     1      49.338   2.391   5.627  0.00  0.00    +0.000 HD
ATOM     21  H   UNL     1      48.438   1.608   4.517  0.00  0.00    +0.000 HD
ENDBRANCH  18  19
ENDBRANCH   5  18
TORSDOF 4
ENDMDL
MODEL 2
REMARK VINA RESULT:    -7.343      1.392      2.317
REMARK INTER + INTRA:          -9.084
REMARK INTER:                  -8.800
REMARK INTRA:                  -0.285
REMARK UNBOUND:                -0.240
REMARK  Name = 
REMARK  6 active torsions:
REMARK  status: ('A' for Active; 'I' for Inactive)
REMARK    1  A    between atoms: C_1  and  C_2
REMARK    2  A    between atoms: C_5  and  C_6
REMARK    3  A    between atoms: C_6  and  N_7
REMARK    4  A    between atoms: C_11  and  C_12
REMARK    5  A    between atoms: C_12  and  N_13
REMARK    6  A    between atoms: C_16  and  C_17
REMARK                            x       y       z     vdW  Elec       q    Type
REMARK                         _______ _______ _______ _____ _____    ______ ____
ROOT
ATOM      1  N   UNL     1      45.280   5.471   9.316  0.00  0.00    +0.000 N 
ATOM      2  C   UNL     1      45.700   4.279   8.701  0.00  0.00    +0.000 A 
ATOM      3  C   UNL     1      46.551   4.365   7.603  0.00  0.00    +0.000 A 
ATOM      4  C   UNL     1      47.000   3.196   6.987  0.00  0.00    +0.000 A 
ATOM      5  C   UNL     1      46.582   1.954   7.466  0.00  0.00    +0.000 A 
ATOM      6  C   UNL     1      45.724   1.970   8.558  0.00  0.00    +0.000 A 
ATOM      7  N   UNL     1      45.269   3.091   9.165  0.00  0.00    +0.000 NA
ATOM      8  H   UNL     1      46.102   5.995   9.603  0.00  0.00    +0.000 HD
ENDROOT
BRANCH   1   9
ATOM      9  C   UNL     1      44.372   5.252  10.447  0.00  0.00    +0.000 C 
BRANCH   9  14
ATOM     10  C   UNL     1      47.329   4.724  15.314  0.00  0.00    +0.000 C 
ATOM     11  C   UNL     1      46.564   4.843  14.036  0.00  0.00    +0.000 A 
ATOM     12  C   UNL     1      46.857   5.823  13.101  0.00  0.00    +0.000 A 
ATOM     13  N   UNL     1      46.160   5.970  11.954  0.00  0.00    +0.000 NA
ATOM     14  C   UNL     1      45.143   5.085  11.739  0.00  0.00    +0.000 A 
ATOM     15  C   UNL     1      44.852   4.081  12.669  0.00  0.00    +0.000 A 
ATOM     16  C   UNL     1      43.753   3.076  12.496  0.00  0.00    +0.000 C 
ATOM     17  N   UNL     1      45.559   3.959  13.829  0.00  0.00    +0.000 NA
ENDBRANCH   9  14
ENDBRANCH   1   9
BRANCH   5  18
ATOM     18  C   UNL     1      47.081   0.645   6.924  0.00  0.00    +0.000 C 
BRANCH  18  19
ATOM     19  N   UNL     1      46.824  -0.487   7.810  0.00  0.00    +0.000 NA
ATOM     20  H   UNL     1      45.872  -0.414   8.168  0.00  0.00    +0.000 HD
ATOM     21  H   UNL     1      47.438  -0.418   8.619  0.00  0.00    +0.000 HD
ENDBRANCH  18  19
ENDBRANCH   5  18
TORSDOF 4
ENDMDL
MODEL 3
REMARK VINA RESULT:    -6.972      1.563      6.331
REMARK INTER + INTRA:          -8.638
REMARK INTER:                  -8.363
REMARK INTRA:                  -0.275
REMARK UNBOUND:                -0.240
REMARK  Name = 
REMARK  6 active torsions:
REMARK  status: ('A' for Active; 'I' for Inactive)
REMARK    1  A    between atoms: C_1  and  C_2
REMARK    2  A    between atoms: C_5  and  C_6
REMARK    3  A    between atoms: C_6  and  N_7
REMARK    4  A    between atoms: C_11  and  C_12
REMARK    5  A    between atoms: C_12  and  N_13
REMARK    6  A    between atoms: C_16  and  C_17
REMARK                            x       y       z     vdW  Elec       q    Type
REMARK                         _______ _______ _______ _____ _____    ______ ____
ROOT
ATOM      1  N   UNL     1      44.977   5.834  10.323  0.00  0.00    +0.000 N 
ATOM      2  C   UNL     1      45.556   5.449  11.544  0.00  0.00    +0.000 A 
ATOM      3  C   UNL     1      46.261   6.402  12.272  0.00  0.00    +0.000 A 
ATOM      4  C   UNL     1      46.828   6.052  13.499  0.00  0.00    +0.000 A 
ATOM      5  C   UNL     1      46.696   4.748  13.977  0.00  0.00    +0.000 A 
ATOM      6  C   UNL     1      45.984   3.865  13.176  0.00  0.00    +0.000 A 
ATOM      7  N   UNL     1      45.435   4.181  11.980  0.00  0.00    +0.000 NA
ATOM      8  H   UNL     1      44.352   6.617  10.492  0.00  0.00    +0.000 HD
ENDROOT
BRANCH   1   9
ATOM      9  C   UNL     1      44.278   4.740   9.641  0.00  0.00    +0.000 C 
BRANCH   9  14
ATOM     10  C   UNL     1      47.895   1.927   6.219  0.00  0.00    +0.000 C 
ATOM     11  C   UNL     1      46.934   2.654   7.102  0.00  0.00    +0.000 A 
ATOM     12  C   UNL     1      46.901   4.038   7.156  0.00  0.00    +0.000 A 
ATOM     13  N   UNL     1      46.063   4.718   7.970  0.00  0.00    +0.000 NA
ATOM     14  C   UNL     1      45.219   3.970   8.739  0.00  0.00    +0.000 A 
ATOM     15  C   UNL     1      45.233   2.573   8.676  0.00  0.00    +0.000 A 
ATOM     16  C   UNL     1      44.333   1.692   9.491  0.00  0.00    +0.000 C 
ATOM     17  N   UNL     1      46.097   1.905   7.860  0.00  0.00    +0.000 NA
ENDBRANCH   9  14
ENDBRANCH   1   9
BRANCH   5  18
ATOM     18  C   UNL     1      47.194   4.303  15.322  0.00  0.00    +0.000 C 
BRANCH  18  19
ATOM     19  N   UNL     1      47.852   3.000  15.297  0.00  0.00    +0.000 NA
ATOM     20  H   UNL     1      48.533   2.990  14.539  0.00  0.00    +0.000 HD
ATOM     21  H   UNL     1      47.162   2.287  15.067  0.00  0.00    +0.000 HD
ENDBRANCH  18  19
ENDBRANCH   5  18
TORSDOF 4
ENDMDL
MODEL 4
REMARK VINA RESULT:    -6.079      1.554      2.200
REMARK INTER + INTRA:          -7.562
REMARK INTER:                  -7.238
REMARK INTRA:                  -0.324
REMARK UNBOUND:                -0.240
REMARK  Name = 
REMARK  6 active torsions:
REMARK  status: ('A' for Active; 'I' for Inactive)
REMARK    1  A    between atoms: C_1  and  C_2
REMARK    2  A    between atoms: C_5  and  C_6
REMARK    3  A    between atoms: C_6  and  N_7
REMARK    4  A    between atoms: C_11  and  C_12
REMARK    5  A    between atoms: C_12  and  N_13
REMARK    6  A    between atoms: C_16  and  C_17
REMARK                            x       y       z     vdW  Elec       q    Type
REMARK                         _______ _______ _______ _____ _____    ______ ____
ROOT
ATOM      1  N   UNL     1      45.377   5.511   9.350  0.00  0.00    +0.000 N 
ATOM      2  C   UNL     1      45.740   4.303   8.730  0.00  0.00    +0.000 A 
ATOM      3  C   UNL     1      46.256   4.351   7.438  0.00  0.00    +0.000 A 
ATOM      4  C   UNL     1      46.643   3.168   6.807  0.00  0.00    +0.000 A 
ATOM      5  C   UNL     1      46.497   1.949   7.468  0.00  0.00    +0.000 A 
ATOM      6  C   UNL     1      45.962   2.000   8.748  0.00  0.00    +0.000 A 
ATOM      7  N   UNL     1      45.571   3.134   9.376  0.00  0.00    +0.000 NA
ATOM      8  H   UNL     1      46.187   6.124   9.365  0.00  0.00    +0.000 HD
ENDROOT
BRANCH   1   9
ATOM      9  C   UNL     1      44.829   5.329  10.698  0.00  0.00    +0.000 C 
BRANCH   9  14
ATOM     10  C   UNL     1      48.169   7.820  14.616  0.00  0.00    +0.000 C 
ATOM     11  C   UNL     1      47.279   7.173  13.604  0.00  0.00    +0.000 A 
ATOM     12  C   UNL     1      47.364   5.820  13.320  0.00  0.00    +0.000 A 
ATOM     13  N   UNL     1      46.593   5.219  12.388  0.00  0.00    +0.000 NA
ATOM     14  C   UNL     1      45.695   6.013  11.735  0.00  0.00    +0.000 A 
ATOM     15  C   UNL     1      45.589   7.376  12.029  0.00  0.00    +0.000 A 
ATOM     16  C   UNL     1      44.624   8.304  11.352  0.00  0.00    +0.000 C 
ATOM     17  N   UNL     1      46.388   7.967  12.963  0.00  0.00    +0.000 NA
ENDBRANCH   9  14
ENDBRANCH   1   9
BRANCH   5  18
ATOM     18  C   UNL     1      46.966   0.638   6.904  0.00  0.00    +0.000 C 
BRANCH  18  19
ATOM     19  N   UNL     1      46.778  -0.487   7.815  0.00  0.00    +0.000 NA
ATOM     20  H   UNL     1      46.019  -0.266   8.459  0.00  0.00    +0.000 HD
ATOM     21  H   UNL     1      47.614  -0.591   8.388  0.00  0.00    +0.000 HD
ENDBRANCH  18  19
ENDBRANCH   5  18
TORSDOF 4
ENDMDL
MODEL 5
REMARK VINA RESULT:    -6.041      2.264      6.470
REMARK INTER + INTRA:          -7.517
REMARK INTER:                  -7.443
REMARK INTRA:                  -0.074
REMARK UNBOUND:                -0.240
REMARK  Name = 
REMARK  6 active torsions:
REMARK  status: ('A' for Active; 'I' for Inactive)
REMARK    1  A    between atoms: C_1  and  C_2
REMARK    2  A    between atoms: C_5  and  C_6
REMARK    3  A    between atoms: C_6  and  N_7
REMARK    4  A    between atoms: C_11  and  C_12
REMARK    5  A    between atoms: C_12  and  N_13
REMARK    6  A    between atoms: C_16  and  C_17
REMARK                            x       y       z     vdW  Elec       q    Type
REMARK                         _______ _______ _______ _____ _____    ______ ____
ROOT
ATOM      1  N   UNL     1      43.254   6.866  11.029  0.00  0.00    +0.000 N 
ATOM      2  C   UNL     1      44.417   7.213  11.739  0.00  0.00    +0.000 A 
ATOM      3  C   UNL     1      44.955   8.482  11.547  0.00  0.00    +0.000 A 
ATOM      4  C   UNL     1      46.097   8.860  12.255  0.00  0.00    +0.000 A 
ATOM      5  C   UNL     1      46.697   7.960  13.136  0.00  0.00    +0.000 A 
ATOM      6  C   UNL     1      46.094   6.714  13.252  0.00  0.00    +0.000 A 
ATOM      7  N   UNL     1      44.993   6.324  12.569  0.00  0.00    +0.000 NA
ATOM      8  H   UNL     1      42.528   7.544  11.243  0.00  0.00    +0.000 HD
ENDROOT
BRANCH   1   9
ATOM      9  C   UNL     1      42.795   5.500  11.300  0.00  0.00    +0.000 C 
BRANCH   9  14
ATOM     10  C   UNL     1      45.886   1.756   8.276  0.00  0.00    +0.000 C 
ATOM     11  C   UNL     1      45.062   2.721   9.067  0.00  0.00    +0.000 A 
ATOM     12  C   UNL     1      44.637   3.924   8.530  0.00  0.00    +0.000 A 
ATOM     13  N   UNL     1      43.918   4.826   9.235  0.00  0.00    +0.000 NA
ATOM     14  C   UNL     1      43.608   4.487  10.520  0.00  0.00    +0.000 A 
ATOM     15  C   UNL     1      44.017   3.266  11.064  0.00  0.00    +0.000 A 
ATOM     16  C   UNL     1      43.709   2.831  12.466  0.00  0.00    +0.000 C 
ATOM     17  N   UNL     1      44.755   2.376  10.340  0.00  0.00    +0.000 NA
ENDBRANCH   9  14
ENDBRANCH   1   9
BRANCH   5  18
ATOM     18  C   UNL     1      47.872   8.306  14.004  0.00  0.00    +0.000 C 
BRANCH  18  19
ATOM     19  N   UNL     1      47.526   9.154  15.141  0.00  0.00    +0.000 NA
ATOM     20  H   UNL     1      48.178   9.938  15.177  0.00  0.00    +0.000 HD
ATOM     21  H   UNL     1      47.668   8.628  16.001  0.00  0.00    +0.000 HD
ENDBRANCH  18  19
ENDBRANCH   5  18
TORSDOF 4
ENDMDL
MODEL 6
REMARK VINA RESULT:    -6.039      3.546      6.165
REMARK INTER + INTRA:          -7.514
REMARK INTER:                  -7.267
REMARK INTRA:                  -0.247
REMARK UNBOUND:                -0.240
REMARK  Name = 
REMARK  6 active torsions:
REMARK  status: ('A' for Active; 'I' for Inactive)
REMARK    1  A    between atoms: C_1  and  C_2
REMARK    2  A    between atoms: C_5  and  C_6
REMARK    3  A    between atoms: C_6  and  N_7
REMARK    4  A    between atoms: C_11  and  C_12
REMARK    5  A    between atoms: C_12  and  N_13
REMARK    6  A    between atoms: C_16  and  C_17
REMARK                            x       y       z     vdW  Elec       q    Type
REMARK                         _______ _______ _______ _____ _____    ______ ____
ROOT
ATOM      1  N   UNL     1      47.495   5.309  15.171  0.00  0.00    +0.000 N 
ATOM      2  C   UNL     1      46.745   5.141  13.994  0.00  0.00    +0.000 A 
ATOM      3  C   UNL     1      46.890   6.081  12.978  0.00  0.00    +0.000 A 
ATOM      4  C   UNL     1      46.173   5.928  11.790  0.00  0.00    +0.000 A 
ATOM      5  C   UNL     1      45.308   4.844  11.637  0.00  0.00    +0.000 A 
ATOM      6  C   UNL     1      45.222   3.966  12.709  0.00  0.00    +0.000 A 
ATOM      7  N   UNL     1      45.900   4.100  13.873  0.00  0.00    +0.000 NA
ATOM      8  H   UNL     1      48.480   5.348  14.926  0.00  0.00    +0.000 HD
ENDROOT
BRANCH   1   9
ATOM      9  C   UNL     1      47.243   4.268  16.173  0.00  0.00    +0.000 C 
BRANCH   9  14
ATOM     10  C   UNL     1      52.100   1.657  17.689  0.00  0.00    +0.000 C 
ATOM     11  C   UNL     1      50.824   2.338  17.313  0.00  0.00    +0.000 A 
ATOM     12  C   UNL     1      49.924   1.760  16.432  0.00  0.00    +0.000 A 
ATOM     13  N   UNL     1      48.780   2.370  16.052  0.00  0.00    +0.000 NA
ATOM     14  C   UNL     1      48.532   3.596  16.597  0.00  0.00    +0.000 A 
ATOM     15  C   UNL     1      49.425   4.178  17.502  0.00  0.00    +0.000 A 
ATOM     16  C   UNL     1      49.214   5.520  18.139  0.00  0.00    +0.000 C 
ATOM     17  N   UNL     1      50.583   3.553  17.861  0.00  0.00    +0.000 NA
ENDBRANCH   9  14
ENDBRANCH   1   9
BRANCH   5  18
ATOM     18  C   UNL     1      44.565   4.549  10.366  0.00  0.00    +0.000 C 
BRANCH  18  19
ATOM     19  N   UNL     1      43.400   5.405  10.161  0.00  0.00    +0.000 NA
ATOM     20  H   UNL     1      43.565   5.994   9.346  0.00  0.00    +0.000 HD
ATOM     21  H   UNL     1      43.311   6.036  10.954  0.00  0.00    +0.000 HD
ENDBRANCH  18  19
ENDBRANCH   5  18
TORSDOF 4
ENDMDL
MODEL 7
REMARK VINA RESULT:    -5.983      3.010      5.590
REMARK INTER + INTRA:          -7.447
REMARK INTER:                  -7.190
REMARK INTRA:                  -0.258
REMARK UNBOUND:                -0.240
REMARK  Name = 
REMARK  6 active torsions:
REMARK  status: ('A' for Active; 'I' for Inactive)
REMARK    1  A    between atoms: C_1  and  C_2
REMARK    2  A    between atoms: C_5  and  C_6
REMARK    3  A    between atoms: C_6  and  N_7
REMARK    4  A    between atoms: C_11  and  C_12
REMARK    5  A    between atoms: C_12  and  N_13
REMARK    6  A    between atoms: C_16  and  C_17
REMARK                            x       y       z     vdW  Elec       q    Type
REMARK                         _______ _______ _______ _____ _____    ______ ____
ROOT
ATOM      1  N   UNL     1      46.964   5.447  14.352  0.00  0.00    +0.000 N 
ATOM      2  C   UNL     1      46.260   4.968  13.234  0.00  0.00    +0.000 A 
ATOM      3  C   UNL     1      46.054   5.831  12.162  0.00  0.00    +0.000 A 
ATOM      4  C   UNL     1      45.376   5.375  11.031  0.00  0.00    +0.000 A 
ATOM      5  C   UNL     1      44.899   4.065  10.989  0.00  0.00    +0.000 A 
ATOM      6  C   UNL     1      45.143   3.282  12.110  0.00  0.00    +0.000 A 
ATOM      7  N   UNL     1      45.790   3.707  13.221  0.00  0.00    +0.000 NA
ATOM      8  H   UNL     1      47.874   5.780  14.045  0.00  0.00    +0.000 HD
ENDROOT
BRANCH   1   9
ATOM      9  C   UNL     1      47.101   4.453  15.421  0.00  0.00    +0.000 C 
BRANCH   9  14
ATOM     10  C   UNL     1      51.477   5.843  18.832  0.00  0.00    +0.000 C 
ATOM     11  C   UNL     1      50.343   5.461  17.936  0.00  0.00    +0.000 A 
ATOM     12  C   UNL     1      50.059   6.170  16.781  0.00  0.00    +0.000 A 
ATOM     13  N   UNL     1      49.021   5.864  15.972  0.00  0.00    +0.000 NA
ATOM     14  C   UNL     1      48.257   4.794  16.338  0.00  0.00    +0.000 A 
ATOM     15  C   UNL     1      48.548   4.061  17.493  0.00  0.00    +0.000 A 
ATOM     16  C   UNL     1      47.753   2.875  17.952  0.00  0.00    +0.000 C 
ATOM     17  N   UNL     1      49.591   4.395  18.305  0.00  0.00    +0.000 NA
ENDBRANCH   9  14
ENDBRANCH   1   9
BRANCH   5  18
ATOM     18  C   UNL     1      44.237   3.460   9.784  0.00  0.00    +0.000 C 
BRANCH  18  19
ATOM     19  N   UNL     1      43.933   4.432   8.738  0.00  0.00    +0.000 NA
ATOM     20  H   UNL     1      43.875   3.945   7.844  0.00  0.00    +0.000 HD
ATOM     21  H   UNL     1      44.711   5.083   8.656  0.00  0.00    +0.000 HD
ENDBRANCH  18  19
ENDBRANCH   5  18
TORSDOF 4
ENDMDL
MODEL 8
REMARK VINA RESULT:    -5.950      3.222      7.684
REMARK INTER + INTRA:          -7.407
REMARK INTER:                  -7.160
REMARK INTRA:                  -0.246
REMARK UNBOUND:                -0.240
REMARK  Name = 
REMARK  6 active torsions:
REMARK  status: ('A' for Active; 'I' for Inactive)
REMARK    1  A    between atoms: C_1  and  C_2
REMARK    2  A    between atoms: C_5  and  C_6
REMARK    3  A    between atoms: C_6  and  N_7
REMARK    4  A    between atoms: C_11  and  C_12
REMARK    5  A    between atoms: C_12  and  N_13
REMARK    6  A    between atoms: C_16  and  C_17
REMARK                            x       y       z     vdW  Elec       q    Type
REMARK                         _______ _______ _______ _____ _____    ______ ____
ROOT
ATOM      1  N   UNL     1      46.669   3.886  14.795  0.00  0.00    +0.000 N 
ATOM      2  C   UNL     1      47.626   4.033  15.814  0.00  0.00    +0.000 A 
ATOM      3  C   UNL     1      47.936   2.925  16.595  0.00  0.00    +0.000 A 
ATOM      4  C   UNL     1      48.898   3.037  17.600  0.00  0.00    +0.000 A 
ATOM      5  C   UNL     1      49.530   4.261  17.822  0.00  0.00    +0.000 A 
ATOM      6  C   UNL     1      49.146   5.312  17.000  0.00  0.00    +0.000 A 
ATOM      7  N   UNL     1      48.210   5.228  16.026  0.00  0.00    +0.000 NA
ATOM      8  H   UNL     1      46.971   3.144  14.170  0.00  0.00    +0.000 HD
ENDROOT
BRANCH   1   9
ATOM      9  C   UNL     1      46.414   5.126  14.055  0.00  0.00    +0.000 C 
BRANCH   9  14
ATOM     10  C   UNL     1      44.427   3.930   8.827  0.00  0.00    +0.000 C 
ATOM     11  C   UNL     1      44.966   4.244  10.185  0.00  0.00    +0.000 A 
ATOM     12  C   UNL     1      44.878   3.337  11.229  0.00  0.00    +0.000 A 
ATOM     13  N   UNL     1      45.330   3.609  12.473  0.00  0.00    +0.000 NA
ATOM     14  C   UNL     1      45.904   4.833  12.660  0.00  0.00    +0.000 A 
ATOM     15  C   UNL     1      46.014   5.747  11.607  0.00  0.00    +0.000 A 
ATOM     16  C   UNL     1      46.635   7.106  11.742  0.00  0.00    +0.000 C 
ATOM     17  N   UNL     1      45.538   5.459  10.361  0.00  0.00    +0.000 NA
ENDBRANCH   9  14
ENDBRANCH   1   9
BRANCH   5  18
ATOM     18  C   UNL     1      50.637   4.455  18.818  0.00  0.00    +0.000 C 
BRANCH  18  19
ATOM     19  N   UNL     1      50.177   4.464  20.204  0.00  0.00    +0.000 NA
ATOM     20  H   UNL     1      50.542   5.297  20.666  0.00  0.00    +0.000 HD
ATOM     21  H   UNL     1      50.584   3.668  20.691  0.00  0.00    +0.000 HD
ENDBRANCH  18  19
ENDBRANCH   5  18
TORSDOF 4
ENDMDL
MODEL 9
REMARK VINA RESULT:    -5.895      1.635      6.210
REMARK INTER + INTRA:          -7.340
REMARK INTER:                  -7.638
REMARK INTRA:                   0.298
REMARK UNBOUND:                -0.240
REMARK  Name = 
REMARK  6 active torsions:
REMARK  status: ('A' for Active; 'I' for Inactive)
REMARK    1  A    between atoms: C_1  and  C_2
REMARK    2  A    between atoms: C_5  and  C_6
REMARK    3  A    between atoms: C_6  and  N_7
REMARK    4  A    between atoms: C_11  and  C_12
REMARK    5  A    between atoms: C_12  and  N_13
REMARK    6  A    between atoms: C_16  and  C_17
REMARK                            x       y       z     vdW  Elec       q    Type
REMARK                         _______ _______ _______ _____ _____    ______ ____
ROOT
ATOM      1  N   UNL     1      45.157   3.007  11.448  0.00  0.00    +0.000 N 
ATOM      2  C   UNL     1      45.345   4.323  11.905  0.00  0.00    +0.000 A 
ATOM      3  C   UNL     1      46.006   4.516  13.114  0.00  0.00    +0.000 A 
ATOM      4  C   UNL     1      46.224   5.813  13.581  0.00  0.00    +0.000 A 
ATOM      5  C   UNL     1      45.765   6.903  12.841  0.00  0.00    +0.000 A 
ATOM      6  C   UNL     1      45.107   6.610  11.654  0.00  0.00    +0.000 A 
ATOM      7  N   UNL     1      44.877   5.361  11.187  0.00  0.00    +0.000 NA
ATOM      8  H   UNL     1      46.065   2.555  11.379  0.00  0.00    +0.000 HD
ENDROOT
BRANCH   1   9
ATOM      9  C   UNL     1      44.432   2.932  10.176  0.00  0.00    +0.000 C 
BRANCH   9  14
ATOM     10  C   UNL     1      47.957   1.699   5.844  0.00  0.00    +0.000 C 
ATOM     11  C   UNL     1      47.052   2.031   6.986  0.00  0.00    +0.000 A 
ATOM     12  C   UNL     1      46.466   1.042   7.760  0.00  0.00    +0.000 A 
ATOM     13  N   UNL     1      45.621   1.316   8.778  0.00  0.00    +0.000 NA
ATOM     14  C   UNL     1      45.375   2.635   9.029  0.00  0.00    +0.000 A 
ATOM     15  C   UNL     1      45.976   3.639   8.264  0.00  0.00    +0.000 A 
ATOM     16  C   UNL     1      45.752   5.106   8.487  0.00  0.00    +0.000 C 
ATOM     17  N   UNL     1      46.815   3.342   7.231  0.00  0.00    +0.000 NA
ENDBRANCH   9  14
ENDBRANCH   1   9
BRANCH   5  18
ATOM     18  C   UNL     1      46.030   8.333  13.217  0.00  0.00    +0.000 C 
BRANCH  18  19
ATOM     19  N   UNL     1      44.934   9.236  12.877  0.00  0.00    +0.000 NA
ATOM     20  H   UNL     1      44.900   9.343  11.864  0.00  0.00    +0.000 HD
ATOM     21  H   UNL     1      45.140  10.159  13.254  0.00  0.00    +0.000 HD
ENDBRANCH  18  19
ENDBRANCH   5  18
TORSDOF 4
ENDMDL
