MODEL 1
REMARK VINA RESULT:    -8.467      0.000      0.000
REMARK INTER + INTRA:         -10.930
REMARK INTER:                 -10.448
REMARK INTRA:                  -0.482
REMARK UNBOUND:                -0.482
REMARK  Name = 
REMARK  4 active torsions:
REMARK  status: ('A' for Active; 'I' for Inactive)
REMARK    1  A    between atoms: C_2  and  C_4
REMARK    2  A    between atoms: N_8  and  C_9
REMARK    3  A    between atoms: C_9  and  C_10
REMARK    4  A    between atoms: C_14  and  C_15
REMARK                            x       y       z     vdW  Elec       q    Type
REMARK                         _______ _______ _______ _____ _____    ______ ____
ROOT
ATOM      1  C   UNL     1      46.619   2.488   7.175  0.00  0.00    +0.000 A 
ATOM      2  C   UNL     1      45.958   3.675   7.470  0.00  0.00    +0.000 A 
ATOM      3  C   UNL     1      45.092   3.718   8.565  0.00  0.00    +0.000 A 
ATOM      4  C   UNL     1      44.915   2.586   9.353  0.00  0.00    +0.000 A 
ATOM      5  N   UNL     1      44.110   2.536  10.453  0.00  0.00    +0.000 N 
ATOM      6  N   UNL     1      45.540   1.426   9.062  0.00  0.00    +0.000 NA
ATOM      7  C   UNL     1      46.361   1.393   7.982  0.00  0.00    +0.000 A 
ATOM      8  H   UNL     1      44.145   1.641  10.926  0.00  0.00    +0.000 HD
ENDROOT
BRANCH   1  10
ATOM      9  N   UNL     1      47.487   3.296   5.057  0.00  0.00    +0.000 N 
ATOM     10  C   UNL     1      47.555   2.349   6.044  0.00  0.00    +0.000 C 
ATOM     11  O   UNL     1      48.382   1.449   6.000  0.00  0.00    +0.000 OA
ATOM     12  H   UNL     1      48.197   3.251   4.337  0.00  0.00    +0.000 HD
ATOM     13  H   UNL     1      46.998   4.172   5.178  0.00  0.00    +0.000 HD
ENDBRANCH   1  10
BRANCH   5  14
ATOM     14  C   UNL     1      43.469   3.663  11.092  0.00  0.00    +0.000 C 
BRANCH  14  15
ATOM     15  C   UNL     1      44.457   4.516  11.853  0.00  0.00    +0.000 A 
ATOM     16  C   UNL     1      45.329   3.928  12.763  0.00  0.00    +0.000 A 
ATOM     17  N   UNL     1      46.266   4.627  13.438  0.00  0.00    +0.000 NA
ATOM     18  C   UNL     1      46.286   5.957  13.182  0.00  0.00    +0.000 A 
ATOM     19  C   UNL     1      45.415   6.586  12.291  0.00  0.00    +0.000 A 
ATOM     20  N   UNL     1      44.493   5.857  11.605  0.00  0.00    +0.000 NA
BRANCH  19  21
ATOM     21  C   UNL     1      45.459   8.029  12.009  0.00  0.00    +0.000 A 
ATOM     22  C   UNL     1      46.536   8.851  12.381  0.00  0.00    +0.000 A 
ATOM     23  C   UNL     1      46.545  10.205  12.047  0.00  0.00    +0.000 A 
ATOM     24  C   UNL     1      45.465  10.718  11.352  0.00  0.00    +0.000 A 
ATOM     25  N   UNL     1      44.397   9.981  10.990  0.00  0.00    +0.000 NA
ATOM     26  C   UNL     1      44.419   8.666  11.331  0.00  0.00    +0.000 A 
ENDBRANCH  19  21
ENDBRANCH  14  15
ENDBRANCH   5  14
TORSDOF 4
ENDMDL
MODEL 2
REMARK VINA RESULT:    -8.237      1.830      3.764
REMARK INTER + INTRA:         -10.645
REMARK INTER:                 -10.190
REMARK INTRA:                  -0.455
REMARK UNBOUND:                -0.482
REMARK  Name = 
REMARK  4 active torsions:
REMARK  status: ('A' for Active; 'I' for Inactive)
REMARK    1  A    between atoms: C_2  and  C_4
REMARK    2  A    between atoms: N_8  and  C_9
REMARK    3  A    between atoms: C_9  and  C_10
REMARK    4  A    between atoms: C_14  and  C_15
REMARK                            x       y       z     vdW  Elec       q    Type
REMARK                         _______ _______ _______ _____ _____    ______ ____
ROOT
ATOM      1  C   UNL     1      46.502   2.722   7.495  0.00  0.00    +0.000 A 
ATOM      2  C   UNL     1      46.068   4.035   7.648  0.00  0.00    +0.000 A 
ATOM      3  C   UNL     1      45.179   4.341   8.681  0.00  0.00    +0.000 A 
ATOM      4  C   UNL     1      44.755   3.341   9.548  0.00  0.00    +0.000 A 
ATOM      5  N   UNL     1      43.908   3.545  10.599  0.00  0.00    +0.000 N 
ATOM      6  N   UNL     1      45.159   2.063   9.395  0.00  0.00    +0.000 NA
ATOM      7  C   UNL     1      46.005   1.775   8.373  0.00  0.00    +0.000 A 
ATOM      8  H   UNL     1      43.751   2.708  11.146  0.00  0.00    +0.000 HD
ENDROOT
BRANCH   1  10
ATOM      9  N   UNL     1      47.395   2.991   5.253  0.00  0.00    +0.000 N 
ATOM     10  C   UNL     1      47.442   2.306   6.437  0.00  0.00    +0.000 C 
ATOM     11  O   UNL     1      48.257   1.410   6.617  0.00  0.00    +0.000 OA
ATOM     12  H   UNL     1      48.109   2.767   4.572  0.00  0.00    +0.000 HD
ATOM     13  H   UNL     1      46.919   3.878   5.157  0.00  0.00    +0.000 HD
ENDBRANCH   1  10
BRANCH   5  14
ATOM     14  C   UNL     1      43.467   4.827  11.101  0.00  0.00    +0.000 C 
BRANCH  14  15
ATOM     15  C   UNL     1      44.593   5.595  11.751  0.00  0.00    +0.000 A 
ATOM     16  C   UNL     1      44.872   6.897  11.348  0.00  0.00    +0.000 A 
ATOM     17  N   UNL     1      45.833   7.653  11.922  0.00  0.00    +0.000 NA
ATOM     18  C   UNL     1      46.528   7.044  12.912  0.00  0.00    +0.000 A 
ATOM     19  C   UNL     1      46.291   5.734  13.331  0.00  0.00    +0.000 A 
ATOM     20  N   UNL     1      45.302   4.998  12.753  0.00  0.00    +0.000 NA
BRANCH  19  21
ATOM     21  C   UNL     1      47.042   5.091  14.419  0.00  0.00    +0.000 A 
ATOM     22  C   UNL     1      47.777   5.812  15.375  0.00  0.00    +0.000 A 
ATOM     23  C   UNL     1      48.434   5.152  16.414  0.00  0.00    +0.000 A 
ATOM     24  C   UNL     1      48.350   3.773  16.473  0.00  0.00    +0.000 A 
ATOM     25  N   UNL     1      47.678   3.030  15.572  0.00  0.00    +0.000 NA
ATOM     26  C   UNL     1      47.051   3.703  14.573  0.00  0.00    +0.000 A 
ENDBRANCH  19  21
ENDBRANCH  14  15
ENDBRANCH   5  14
TORSDOF 4
ENDMDL
MODEL 3
REMARK VINA RESULT:    -7.678      3.198      6.793
REMARK INTER + INTRA:          -9.956
REMARK INTER:                  -9.386
REMARK INTRA:                  -0.569
REMARK UNBOUND:                -0.482
REMARK  Name = 
REMARK  4 active torsions:
REMARK  status: ('A' for Active; 'I' for Inactive)
REMARK    1  A    between atoms: C_2  and  C_4
REMARK    2  A    between atoms: N_8  and  C_9
REMARK    3  A    between atoms: C_9  and  C_10
REMARK    4  A    between atoms: C_14  and  C_15
REMARK                            x       y       z     vdW  Elec       q    Type
REMARK                         _______ _______ _______ _____ _____    ______ ____
ROOT
ATOM      1  C   UNL     1      49.386   7.776  12.662  0.00  0.00    +0.000 A 
ATOM      2  C   UNL     1      48.353   7.843  11.733  0.00  0.00    +0.000 A 
ATOM      3  C   UNL     1      47.168   7.147  11.984  0.00  0.00    +0.000 A 
ATOM      4  C   UNL     1      47.030   6.414  13.156  0.00  0.00    +0.000 A 
ATOM      5  N   UNL     1      45.907   5.720  13.500  0.00  0.00    +0.000 N 
ATOM      6  N   UNL     1      48.035   6.331  14.053  0.00  0.00    +0.000 NA
ATOM      7  C   UNL     1      49.189   6.995  13.787  0.00  0.00    +0.000 A 
ATOM      8  H   UNL     1      45.975   5.287  14.413  0.00  0.00    +0.000 HD
ENDROOT
BRANCH   1  10
ATOM      9  N   UNL     1      51.670   7.807  11.839  0.00  0.00    +0.000 N 
ATOM     10  C   UNL     1      50.670   8.482  12.486  0.00  0.00    +0.000 C 
ATOM     11  O   UNL     1      50.829   9.633  12.868  0.00  0.00    +0.000 OA
ATOM     12  H   UNL     1      52.511   8.332  11.634  0.00  0.00    +0.000 HD
ATOM     13  H   UNL     1      51.500   6.968  11.302  0.00  0.00    +0.000 HD
ENDBRANCH   1  10
BRANCH   5  14
ATOM     14  C   UNL     1      44.630   5.777  12.824  0.00  0.00    +0.000 C 
BRANCH  14  15
ATOM     15  C   UNL     1      44.373   4.536  12.001  0.00  0.00    +0.000 A 
ATOM     16  C   UNL     1      43.414   3.616  12.410  0.00  0.00    +0.000 A 
ATOM     17  N   UNL     1      43.104   2.514  11.695  0.00  0.00    +0.000 NA
ATOM     18  C   UNL     1      43.812   2.352  10.551  0.00  0.00    +0.000 A 
ATOM     19  C   UNL     1      44.795   3.243  10.119  0.00  0.00    +0.000 A 
ATOM     20  N   UNL     1      45.075   4.360  10.845  0.00  0.00    +0.000 NA
BRANCH  19  21
ATOM     21  C   UNL     1      45.545   3.064   8.866  0.00  0.00    +0.000 A 
ATOM     22  C   UNL     1      46.041   1.821   8.440  0.00  0.00    +0.000 A 
ATOM     23  C   UNL     1      46.706   1.701   7.220  0.00  0.00    +0.000 A 
ATOM     24  C   UNL     1      46.872   2.836   6.447  0.00  0.00    +0.000 A 
ATOM     25  N   UNL     1      46.436   4.056   6.817  0.00  0.00    +0.000 NA
ATOM     26  C   UNL     1      45.794   4.139   8.011  0.00  0.00    +0.000 A 
ENDBRANCH  19  21
ENDBRANCH  14  15
ENDBRANCH   5  14
TORSDOF 4
ENDMDL
MODEL 4
REMARK VINA RESULT:    -7.635      2.999      7.091
REMARK INTER + INTRA:          -9.902
REMARK INTER:                  -9.356
REMARK INTRA:                  -0.546
REMARK UNBOUND:                -0.482
REMARK  Name = 
REMARK  4 active torsions:
REMARK  status: ('A' for Active; 'I' for Inactive)
REMARK    1  A    between atoms: C_2  and  C_4
REMARK    2  A    between atoms: N_8  and  C_9
REMARK    3  A    between atoms: C_9  and  C_10
REMARK    4  A    between atoms: C_14  and  C_15
REMARK                            x       y       z     vdW  Elec       q    Type
REMARK                         _______ _______ _______ _____ _____    ______ ____
ROOT
ATOM      1  C   UNL     1      48.281   6.888  13.559  0.00  0.00    +0.000 A 
ATOM      2  C   UNL     1      47.102   6.285  13.985  0.00  0.00    +0.000 A 
ATOM      3  C   UNL     1      45.995   6.282  13.134  0.00  0.00    +0.000 A 
ATOM      4  C   UNL     1      46.087   6.862  11.874  0.00  0.00    +0.000 A 
ATOM      5  N   UNL     1      45.070   6.890  10.965  0.00  0.00    +0.000 N 
ATOM      6  N   UNL     1      47.222   7.464  11.462  0.00  0.00    +0.000 NA
ATOM      7  C   UNL     1      48.284   7.479  12.308  0.00  0.00    +0.000 A 
ATOM      8  H   UNL     1      45.339   7.314  10.086  0.00  0.00    +0.000 HD
ENDROOT
BRANCH   1  10
ATOM      9  N   UNL     1      50.537   7.706  13.927  0.00  0.00    +0.000 N 
ATOM     10  C   UNL     1      49.502   6.935  14.386  0.00  0.00    +0.000 C 
ATOM     11  O   UNL     1      49.580   6.343  15.453  0.00  0.00    +0.000 OA
ATOM     12  H   UNL     1      51.330   7.813  14.547  0.00  0.00    +0.000 HD
ATOM     13  H   UNL     1      50.421   8.391  13.193  0.00  0.00    +0.000 HD
ENDBRANCH   1  10
BRANCH   5  14
ATOM     14  C   UNL     1      43.817   6.176  11.066  0.00  0.00    +0.000 C 
BRANCH  14  15
ATOM     15  C   UNL     1      43.973   4.714  10.718  0.00  0.00    +0.000 A 
ATOM     16  C   UNL     1      43.277   3.749  11.438  0.00  0.00    +0.000 A 
ATOM     17  N   UNL     1      43.336   2.432  11.146  0.00  0.00    +0.000 NA
ATOM     18  C   UNL     1      44.143   2.109  10.108  0.00  0.00    +0.000 A 
ATOM     19  C   UNL     1      44.872   3.046   9.375  0.00  0.00    +0.000 A 
ATOM     20  N   UNL     1      44.780   4.371   9.673  0.00  0.00    +0.000 NA
BRANCH  19  21
ATOM     21  C   UNL     1      45.732   2.683   8.238  0.00  0.00    +0.000 A 
ATOM     22  C   UNL     1      46.050   3.577   7.201  0.00  0.00    +0.000 A 
ATOM     23  C   UNL     1      46.909   3.194   6.171  0.00  0.00    +0.000 A 
ATOM     24  C   UNL     1      47.430   1.913   6.191  0.00  0.00    +0.000 A 
ATOM     25  N   UNL     1      47.142   1.009   7.148  0.00  0.00    +0.000 NA
ATOM     26  C   UNL     1      46.302   1.413   8.136  0.00  0.00    +0.000 A 
ENDBRANCH  19  21
ENDBRANCH  14  15
ENDBRANCH   5  14
TORSDOF 4
ENDMDL
MODEL 5
REMARK VINA RESULT:    -7.374      4.313      8.263
REMARK INTER + INTRA:          -9.581
REMARK INTER:                  -9.236
REMARK INTRA:                  -0.345
REMARK UNBOUND:                -0.482
REMARK  Name = 
REMARK  4 active torsions:
REMARK  status: ('A' for Active; 'I' for Inactive)
REMARK    1  A    between atoms: C_2  and  C_4
REMARK    2  A    between atoms: N_8  and  C_9
REMARK    3  A    between atoms: C_9  and  C_10
REMARK    4  A    between atoms: C_14  and  C_15
REMARK                            x       y       z     vdW  Elec       q    Type
REMARK                         _______ _______ _______ _____ _____    ______ ____
ROOT
ATOM      1  C   UNL     1      48.624   4.358  18.002  0.00  0.00    +0.000 A 
ATOM      2  C   UNL     1      48.655   5.500  17.209  0.00  0.00    +0.000 A 
ATOM      3  C   UNL     1      47.922   5.522  16.021  0.00  0.00    +0.000 A 
ATOM      4  C   UNL     1      47.162   4.418  15.655  0.00  0.00    +0.000 A 
ATOM      5  N   UNL     1      46.396   4.352  14.527  0.00  0.00    +0.000 N 
ATOM      6  N   UNL     1      47.142   3.300  16.410  0.00  0.00    +0.000 NA
ATOM      7  C   UNL     1      47.877   3.284  17.552  0.00  0.00    +0.000 A 
ATOM      8  H   UNL     1      45.878   3.486  14.453  0.00  0.00    +0.000 HD
ENDROOT
BRANCH   1  10
ATOM      9  N   UNL     1      48.658   3.813  20.368  0.00  0.00    +0.000 N 
ATOM     10  C   UNL     1      49.362   4.243  19.275  0.00  0.00    +0.000 C 
ATOM     11  O   UNL     1      50.558   4.487  19.349  0.00  0.00    +0.000 OA
ATOM     12  H   UNL     1      49.192   3.642  21.210  0.00  0.00    +0.000 HD
ATOM     13  H   UNL     1      47.751   3.375  20.292  0.00  0.00    +0.000 HD
ENDBRANCH   1  10
BRANCH   5  14
ATOM     14  C   UNL     1      46.092   5.451  13.639  0.00  0.00    +0.000 C 
BRANCH  14  15
ATOM     15  C   UNL     1      45.151   5.037  12.532  0.00  0.00    +0.000 A 
ATOM     16  C   UNL     1      43.789   5.298  12.642  0.00  0.00    +0.000 A 
ATOM     17  N   UNL     1      42.903   4.997  11.669  0.00  0.00    +0.000 NA
ATOM     18  C   UNL     1      43.433   4.398  10.576  0.00  0.00    +0.000 A 
ATOM     19  C   UNL     1      44.789   4.102  10.437  0.00  0.00    +0.000 A 
ATOM     20  N   UNL     1      45.668   4.435  11.423  0.00  0.00    +0.000 NA
BRANCH  19  21
ATOM     21  C   UNL     1      45.354   3.465   9.238  0.00  0.00    +0.000 A 
ATOM     22  C   UNL     1      45.796   4.193   8.120  0.00  0.00    +0.000 A 
ATOM     23  C   UNL     1      46.366   3.540   7.026  0.00  0.00    +0.000 A 
ATOM     24  C   UNL     1      46.476   2.163   7.067  0.00  0.00    +0.000 A 
ATOM     25  N   UNL     1      46.049   1.414   8.103  0.00  0.00    +0.000 NA
ATOM     26  C   UNL     1      45.497   2.080   9.151  0.00  0.00    +0.000 A 
ENDBRANCH  19  21
ENDBRANCH  14  15
ENDBRANCH   5  14
TORSDOF 4
ENDMDL
MODEL 6
REMARK VINA RESULT:    -6.947      5.422      7.926
REMARK INTER + INTRA:          -9.054
REMARK INTER:                  -8.662
REMARK INTRA:                  -0.392
REMARK UNBOUND:                -0.482
REMARK  Name = 
REMARK  4 active torsions:
REMARK  status: ('A' for Active; 'I' for Inactive)
REMARK    1  A    between atoms: C_2  and  C_4
REMARK    2  A    between atoms: N_8  and  C_9
REMARK    3  A    between atoms: C_9  and  C_10
REMARK    4  A    between atoms: C_14  and  C_15
REMARK                            x       y       z     vdW  Elec       q    Type
REMARK                         _______ _______ _______ _____ _____    ______ ____
ROOT
ATOM      1  C   UNL     1      45.199   4.510  11.448  0.00  0.00    +0.000 A 
ATOM      2  C   UNL     1      45.846   5.730  11.612  0.00  0.00    +0.000 A 
ATOM      3  C   UNL     1      46.527   5.983  12.805  0.00  0.00    +0.000 A 
ATOM      4  C   UNL     1      46.564   5.014  13.800  0.00  0.00    +0.000 A 
ATOM      5  N   UNL     1      47.220   5.158  14.988  0.00  0.00    +0.000 N 
ATOM      6  N   UNL     1      45.924   3.835  13.654  0.00  0.00    +0.000 NA
ATOM      7  C   UNL     1      45.247   3.611  12.499  0.00  0.00    +0.000 A 
ATOM      8  H   UNL     1      47.175   4.329  15.567  0.00  0.00    +0.000 HD
ENDROOT
BRANCH   1  10
ATOM      9  N   UNL     1      44.854   4.752   9.057  0.00  0.00    +0.000 N 
ATOM     10  C   UNL     1      44.459   4.152  10.223  0.00  0.00    +0.000 C 
ATOM     11  O   UNL     1      43.556   3.327  10.235  0.00  0.00    +0.000 OA
ATOM     12  H   UNL     1      44.410   4.427   8.208  0.00  0.00    +0.000 HD
ATOM     13  H   UNL     1      45.735   5.238   8.967  0.00  0.00    +0.000 HD
ENDBRANCH   1  10
BRANCH   5  14
ATOM     14  C   UNL     1      48.126   6.230  15.336  0.00  0.00    +0.000 C 
BRANCH  14  15
ATOM     15  C   UNL     1      48.922   5.912  16.580  0.00  0.00    +0.000 A 
ATOM     16  C   UNL     1      48.816   6.726  17.702  0.00  0.00    +0.000 A 
ATOM     17  N   UNL     1      49.464   6.470  18.859  0.00  0.00    +0.000 NA
ATOM     18  C   UNL     1      50.248   5.365  18.846  0.00  0.00    +0.000 A 
ATOM     19  C   UNL     1      50.395   4.535  17.734  0.00  0.00    +0.000 A 
ATOM     20  N   UNL     1      49.715   4.801  16.585  0.00  0.00    +0.000 NA
BRANCH  19  21
ATOM     21  C   UNL     1      51.237   3.329  17.738  0.00  0.00    +0.000 A 
ATOM     22  C   UNL     1      52.592   3.341  18.111  0.00  0.00    +0.000 A 
ATOM     23  C   UNL     1      53.332   2.159  18.140  0.00  0.00    +0.000 A 
ATOM     24  C   UNL     1      52.701   0.980  17.786  0.00  0.00    +0.000 A 
ATOM     25  N   UNL     1      51.412   0.914  17.401  0.00  0.00    +0.000 NA
ATOM     26  C   UNL     1      50.720   2.083  17.381  0.00  0.00    +0.000 A 
ENDBRANCH  19  21
ENDBRANCH  14  15
ENDBRANCH   5  14
TORSDOF 4
ENDMDL
MODEL 7
REMARK VINA RESULT:    -6.513      5.681      8.499
REMARK INTER + INTRA:          -8.518
REMARK INTER:                  -8.075
REMARK INTRA:                  -0.443
REMARK UNBOUND:                -0.482
REMARK  Name = 
REMARK  4 active torsions:
REMARK  status: ('A' for Active; 'I' for Inactive)
REMARK    1  A    between atoms: C_2  and  C_4
REMARK    2  A    between atoms: N_8  and  C_9
REMARK    3  A    between atoms: C_9  and  C_10
REMARK    4  A    between atoms: C_14  and  C_15
REMARK                            x       y       z     vdW  Elec       q    Type
REMARK                         _______ _______ _______ _____ _____    ______ ____
ROOT
ATOM      1  C   UNL     1      52.112   2.073  17.696  0.00  0.00    +0.000 A 
ATOM      2  C   UNL     1      51.013   1.494  17.071  0.00  0.00    +0.000 A 
ATOM      3  C   UNL     1      49.812   2.206  17.012  0.00  0.00    +0.000 A 
ATOM      4  C   UNL     1      49.735   3.480  17.559  0.00  0.00    +0.000 A 
ATOM      5  N   UNL     1      48.616   4.261  17.532  0.00  0.00    +0.000 N 
ATOM      6  N   UNL     1      50.792   4.040  18.183  0.00  0.00    +0.000 NA
ATOM      7  C   UNL     1      51.946   3.329  18.252  0.00  0.00    +0.000 A 
ATOM      8  H   UNL     1      48.763   5.176  17.939  0.00  0.00    +0.000 HD
ENDROOT
BRANCH   1  10
ATOM      9  N   UNL     1      53.474   0.249  18.540  0.00  0.00    +0.000 N 
ATOM     10  C   UNL     1      53.421   1.401  17.802  0.00  0.00    +0.000 C 
ATOM     11  O   UNL     1      54.413   1.830  17.228  0.00  0.00    +0.000 OA
ATOM     12  H   UNL     1      54.350  -0.258  18.525  0.00  0.00    +0.000 HD
ATOM     13  H   UNL     1      52.645  -0.258  18.816  0.00  0.00    +0.000 HD
ENDBRANCH   1  10
BRANCH   5  14
ATOM     14  C   UNL     1      47.408   3.992  16.784  0.00  0.00    +0.000 C 
BRANCH  14  15
ATOM     15  C   UNL     1      47.389   4.724  15.463  0.00  0.00    +0.000 A 
ATOM     16  C   UNL     1      48.292   5.755  15.225  0.00  0.00    +0.000 A 
ATOM     17  N   UNL     1      48.358   6.416  14.050  0.00  0.00    +0.000 NA
ATOM     18  C   UNL     1      47.463   6.016  13.114  0.00  0.00    +0.000 A 
ATOM     19  C   UNL     1      46.531   4.999  13.322  0.00  0.00    +0.000 A 
ATOM     20  N   UNL     1      46.497   4.332  14.508  0.00  0.00    +0.000 NA
BRANCH  19  21
ATOM     21  C   UNL     1      45.575   4.563  12.292  0.00  0.00    +0.000 A 
ATOM     22  C   UNL     1      45.431   5.214  11.055  0.00  0.00    +0.000 A 
ATOM     23  C   UNL     1      44.541   4.730  10.096  0.00  0.00    +0.000 A 
ATOM     24  C   UNL     1      43.801   3.602  10.398  0.00  0.00    +0.000 A 
ATOM     25  N   UNL     1      43.883   2.951  11.575  0.00  0.00    +0.000 NA
ATOM     26  C   UNL     1      44.758   3.449  12.487  0.00  0.00    +0.000 A 
ENDBRANCH  19  21
ENDBRANCH  14  15
ENDBRANCH   5  14
TORSDOF 4
ENDMDL
MODEL 8
REMARK VINA RESULT:    -6.241      5.788      7.954
REMARK INTER + INTRA:          -8.182
REMARK INTER:                  -7.774
REMARK INTRA:                  -0.408
REMARK UNBOUND:                -0.482
REMARK  Name = 
REMARK  4 active torsions:
REMARK  status: ('A' for Active; 'I' for Inactive)
REMARK    1  A    between atoms: C_2  and  C_4
REMARK    2  A    between atoms: N_8  and  C_9
REMARK    3  A    between atoms: C_9  and  C_10
REMARK    4  A    between atoms: C_14  and  C_15
REMARK                            x       y       z     vdW  Elec       q    Type
REMARK                         _______ _______ _______ _____ _____    ______ ____
ROOT
ATOM      1  C   UNL     1      45.658   5.068  11.501  0.00  0.00    +0.000 A 
ATOM      2  C   UNL     1      46.523   5.963  12.122  0.00  0.00    +0.000 A 
ATOM      3  C   UNL     1      46.883   5.748  13.454  0.00  0.00    +0.000 A 
ATOM      4  C   UNL     1      46.391   4.640  14.134  0.00  0.00    +0.000 A 
ATOM      5  N   UNL     1      46.702   4.333  15.426  0.00  0.00    +0.000 N 
ATOM      6  N   UNL     1      45.538   3.778  13.543  0.00  0.00    +0.000 NA
ATOM      7  C   UNL     1      45.179   4.011  12.255  0.00  0.00    +0.000 A 
ATOM      8  H   UNL     1      46.286   3.464  15.736  0.00  0.00    +0.000 HD
ENDROOT
BRANCH   1  10
ATOM      9  N   UNL     1      43.897   5.019   9.831  0.00  0.00    +0.000 N 
ATOM     10  C   UNL     1      45.226   5.210  10.098  0.00  0.00    +0.000 C 
ATOM     11  O   UNL     1      46.010   5.521   9.212  0.00  0.00    +0.000 OA
ATOM     12  H   UNL     1      43.592   5.216   8.886  0.00  0.00    +0.000 HD
ATOM     13  H   UNL     1      43.193   5.007  10.556  0.00  0.00    +0.000 HD
ENDBRANCH   1  10
BRANCH   5  14
ATOM     14  C   UNL     1      47.717   4.973  16.234  0.00  0.00    +0.000 C 
BRANCH  14  15
ATOM     15  C   UNL     1      48.808   4.008  16.635  0.00  0.00    +0.000 A 
ATOM     16  C   UNL     1      48.695   2.658  16.319  0.00  0.00    +0.000 A 
ATOM     17  N   UNL     1      49.655   1.754  16.607  0.00  0.00    +0.000 NA
ATOM     18  C   UNL     1      50.739   2.253  17.249  0.00  0.00    +0.000 A 
ATOM     19  C   UNL     1      50.880   3.596  17.599  0.00  0.00    +0.000 A 
ATOM     20  N   UNL     1      49.908   4.493  17.279  0.00  0.00    +0.000 NA
BRANCH  19  21
ATOM     21  C   UNL     1      52.070   4.127  18.281  0.00  0.00    +0.000 A 
ATOM     22  C   UNL     1      53.275   4.409  17.615  0.00  0.00    +0.000 A 
ATOM     23  C   UNL     1      54.358   4.955  18.303  0.00  0.00    +0.000 A 
ATOM     24  C   UNL     1      54.219   5.202  19.657  0.00  0.00    +0.000 A 
ATOM     25  N   UNL     1      53.095   4.931  20.350  0.00  0.00    +0.000 NA
ATOM     26  C   UNL     1      52.060   4.399  19.650  0.00  0.00    +0.000 A 
ENDBRANCH  19  21
ENDBRANCH  14  15
ENDBRANCH   5  14
TORSDOF 4
ENDMDL
MODEL 9
REMARK VINA RESULT:    -5.987      3.942      7.476
REMARK INTER + INTRA:          -7.869
REMARK INTER:                  -7.440
REMARK INTRA:                  -0.429
REMARK UNBOUND:                -0.482
REMARK  Name = 
REMARK  4 active torsions:
REMARK  status: ('A' for Active; 'I' for Inactive)
REMARK    1  A    between atoms: C_2  and  C_4
REMARK    2  A    between atoms: N_8  and  C_9
REMARK    3  A    between atoms: C_9  and  C_10
REMARK    4  A    between atoms: C_14  and  C_15
REMARK                            x       y       z     vdW  Elec       q    Type
REMARK                         _______ _______ _______ _____ _____    ______ ____
ROOT
ATOM      1  C   UNL     1      50.879   8.543  13.138  0.00  0.00    +0.000 A 
ATOM      2  C   UNL     1      49.847   8.508  14.069  0.00  0.00    +0.000 A 
ATOM      3  C   UNL     1      48.576   8.097  13.660  0.00  0.00    +0.000 A 
ATOM      4  C   UNL     1      48.362   7.716  12.341  0.00  0.00    +0.000 A 
ATOM      5  N   UNL     1      47.166   7.281  11.852  0.00  0.00    +0.000 N 
ATOM      6  N   UNL     1      49.355   7.765  11.429  0.00  0.00    +0.000 NA
ATOM      7  C   UNL     1      50.580   8.186  11.834  0.00  0.00    +0.000 A 
ATOM      8  H   UNL     1      47.214   7.003  10.880  0.00  0.00    +0.000 HD
ENDROOT
BRANCH   1  10
ATOM      9  N   UNL     1      52.876   9.823  12.619  0.00  0.00    +0.000 N 
ATOM     10  C   UNL     1      52.254   8.957  13.478  0.00  0.00    +0.000 C 
ATOM     11  O   UNL     1      52.806   8.574  14.500  0.00  0.00    +0.000 OA
ATOM     12  H   UNL     1      53.777  10.179  12.910  0.00  0.00    +0.000 HD
ATOM     13  H   UNL     1      52.373  10.343  11.913  0.00  0.00    +0.000 HD
ENDBRANCH   1  10
BRANCH   5  14
ATOM     14  C   UNL     1      45.991   6.962  12.633  0.00  0.00    +0.000 C 
BRANCH  14  15
ATOM     15  C   UNL     1      45.082   5.993  11.913  0.00  0.00    +0.000 A 
ATOM     16  C   UNL     1      43.733   5.930  12.242  0.00  0.00    +0.000 A 
ATOM     17  N   UNL     1      42.859   5.121  11.605  0.00  0.00    +0.000 NA
ATOM     18  C   UNL     1      43.397   4.353  10.627  0.00  0.00    +0.000 A 
ATOM     19  C   UNL     1      44.748   4.375  10.282  0.00  0.00    +0.000 A 
ATOM     20  N   UNL     1      45.606   5.215  10.923  0.00  0.00    +0.000 NA
BRANCH  19  21
ATOM     21  C   UNL     1      45.316   3.547   9.206  0.00  0.00    +0.000 A 
ATOM     22  C   UNL     1      45.854   4.087   8.026  0.00  0.00    +0.000 A 
ATOM     23  C   UNL     1      46.421   3.257   7.058  0.00  0.00    +0.000 A 
ATOM     24  C   UNL     1      46.431   1.894   7.286  0.00  0.00    +0.000 A 
ATOM     25  N   UNL     1      45.910   1.321   8.389  0.00  0.00    +0.000 NA
ATOM     26  C   UNL     1      45.365   2.156   9.311  0.00  0.00    +0.000 A 
ENDBRANCH  19  21
ENDBRANCH  14  15
ENDBRANCH   5  14
TORSDOF 4
ENDMDL
