MODEL 1
REMARK VINA RESULT:    -8.550      0.000      0.000
REMARK INTER + INTRA:         -13.253
REMARK INTER:                 -12.049
REMARK INTRA:                  -1.204
REMARK UNBOUND:                -1.204
REMARK  Name = 
REMARK  7 active torsions:
REMARK  status: ('A' for Active; 'I' for Inactive)
REMARK    1  A    between atoms: C_2  and  C_4
REMARK    2  A    between atoms: C_7  and  N_8
REMARK    3  A    between atoms: N_8  and  C_9
REMARK    4  A    between atoms: C_9  and  C_10
REMARK    5  A    between atoms: C_10  and  C_13
REMARK    6  A    between atoms: C_17  and  C_18
REMARK    7  A    between atoms: C_18  and  C_19
REMARK                            x       y       z     vdW  Elec       q    Type
REMARK                         _______ _______ _______ _____ _____    ______ ____
ROOT
ATOM      1  C   UNL     1      43.913   4.776  12.437  0.00  0.00    +0.000 C 
ATOM      2  F   UNL     1      43.023   5.395  13.265  0.00  0.00    +0.000 F 
ATOM      3  F   UNL     1      43.797   3.440  12.711  0.00  0.00    +0.000 F 
ENDROOT
BRANCH   1   4
ATOM      4  C   UNL     1      45.326   5.289  12.630  0.00  0.00    +0.000 A 
ATOM      5  C   UNL     1      45.913   6.133  11.677  0.00  0.00    +0.000 A 
ATOM      6  C   UNL     1      47.178   6.672  11.900  0.00  0.00    +0.000 A 
ATOM      7  C   UNL     1      47.867   6.375  13.078  0.00  0.00    +0.000 A 
ATOM      8  C   UNL     1      47.302   5.532  14.044  0.00  0.00    +0.000 A 
ATOM      9  C   UNL     1      46.033   4.988  13.807  0.00  0.00    +0.000 A 
BRANCH   8  10
ATOM     10  C   UNL     1      48.041   5.229  15.326  0.00  0.00    +0.000 C 
BRANCH  10  11
ATOM     11  C   UNL     1      47.226   4.290  16.210  0.00  0.00    +0.000 C 
ATOM     12  C   UNL     1      47.168   4.580  17.722  0.00  0.00    +0.000 C 
ATOM     13  N   UNL     1      47.630   3.217  18.007  0.00  0.00    +0.000 NA
ATOM     14  C   UNL     1      47.944   2.984  16.594  0.00  0.00    +0.000 C 
ATOM     15  H   UNL     1      46.907   2.602  18.379  0.00  0.00    +0.000 HD
ENDBRANCH  10  11
ENDBRANCH   8  10
ENDBRANCH   1   4
BRANCH   1  16
ATOM     16  C   UNL     1      43.492   5.007  10.964  0.00  0.00    +0.000 C 
BRANCH  16  17
ATOM     17  N   UNL     1      43.489   3.781  10.154  0.00  0.00    +0.000 N 
ATOM     18  H   UNL     1      43.064   2.973  10.611  0.00  0.00    +0.000 HD
BRANCH  17  22
ATOM     19  C   UNL     1      46.604   2.669   7.544  0.00  0.00    +0.000 A 
ATOM     20  C   UNL     1      46.213   4.007   7.611  0.00  0.00    +0.000 A 
ATOM     21  C   UNL     1      45.193   4.394   8.488  0.00  0.00    +0.000 A 
ATOM     22  C   UNL     1      44.567   3.467   9.331  0.00  0.00    +0.000 A 
ATOM     23  C   UNL     1      44.958   2.125   9.232  0.00  0.00    +0.000 A 
ATOM     24  C   UNL     1      45.960   1.724   8.346  0.00  0.00    +0.000 A 
BRANCH  19  26
ATOM     25  N   UNL     1      47.890   2.983   5.504  0.00  0.00    +0.000 N 
ATOM     26  C   UNL     1      47.665   2.212   6.610  0.00  0.00    +0.000 C 
ATOM     27  O   UNL     1      48.334   1.213   6.833  0.00  0.00    +0.000 OA
ATOM     28  H   UNL     1      48.689   2.726   4.941  0.00  0.00    +0.000 HD
ATOM     29  H   UNL     1      47.550   3.931   5.428  0.00  0.00    +0.000 HD
ENDBRANCH  19  26
ENDBRANCH  17  22
ENDBRANCH  16  17
ENDBRANCH   1  16
TORSDOF 7
ENDMDL
MODEL 2
REMARK VINA RESULT:    -8.154      2.333      3.558
REMARK INTER + INTRA:         -12.695
REMARK INTER:                 -11.649
REMARK INTRA:                  -1.046
REMARK UNBOUND:                -1.204
REMARK  Name = 
REMARK  7 active torsions:
REMARK  status: ('A' for Active; 'I' for Inactive)
REMARK    1  A    between atoms: C_2  and  C_4
REMARK    2  A    between atoms: C_7  and  N_8
REMARK    3  A    between atoms: N_8  and  C_9
REMARK    4  A    between atoms: C_9  and  C_10
REMARK    5  A    between atoms: C_10  and  C_13
REMARK    6  A    between atoms: C_17  and  C_18
REMARK    7  A    between atoms: C_18  and  C_19
REMARK                            x       y       z     vdW  Elec       q    Type
REMARK                         _______ _______ _______ _____ _____    ______ ____
ROOT
ATOM      1  C   UNL     1      43.518   5.609  12.194  0.00  0.00    +0.000 C 
ATOM      2  F   UNL     1      43.106   6.736  11.546  0.00  0.00    +0.000 F 
ATOM      3  F   UNL     1      42.667   5.468  13.257  0.00  0.00    +0.000 F 
ENDROOT
BRANCH   1   4
ATOM      4  C   UNL     1      44.970   5.692  12.619  0.00  0.00    +0.000 A 
ATOM      5  C   UNL     1      45.483   4.808  13.578  0.00  0.00    +0.000 A 
ATOM      6  C   UNL     1      46.837   4.831  13.901  0.00  0.00    +0.000 A 
ATOM      7  C   UNL     1      47.692   5.735  13.269  0.00  0.00    +0.000 A 
ATOM      8  C   UNL     1      47.203   6.631  12.309  0.00  0.00    +0.000 A 
ATOM      9  C   UNL     1      45.838   6.606  11.996  0.00  0.00    +0.000 A 
BRANCH   8  10
ATOM     10  C   UNL     1      48.134   7.594  11.611  0.00  0.00    +0.000 C 
BRANCH  10  11
ATOM     11  C   UNL     1      48.204   8.919  12.363  0.00  0.00    +0.000 C 
ATOM     12  C   UNL     1      48.299  10.219  11.542  0.00  0.00    +0.000 C 
ATOM     13  N   UNL     1      49.504  10.607  12.283  0.00  0.00    +0.000 NA
ATOM     14  C   UNL     1      49.600   9.280  12.902  0.00  0.00    +0.000 C 
ATOM     15  H   UNL     1      49.357  11.365  12.948  0.00  0.00    +0.000 HD
ENDBRANCH  10  11
ENDBRANCH   8  10
ENDBRANCH   1   4
BRANCH   1  16
ATOM     16  C   UNL     1      43.337   4.384  11.263  0.00  0.00    +0.000 C 
BRANCH  16  17
ATOM     17  N   UNL     1      43.629   4.670   9.851  0.00  0.00    +0.000 N 
ATOM     18  H   UNL     1      42.806   4.862   9.280  0.00  0.00    +0.000 HD
BRANCH  17  22
ATOM     19  C   UNL     1      46.514   2.475   7.704  0.00  0.00    +0.000 A 
ATOM     20  C   UNL     1      46.488   3.866   7.589  0.00  0.00    +0.000 A 
ATOM     21  C   UNL     1      45.548   4.609   8.312  0.00  0.00    +0.000 A 
ATOM     22  C   UNL     1      44.641   3.989   9.180  0.00  0.00    +0.000 A 
ATOM     23  C   UNL     1      44.668   2.591   9.264  0.00  0.00    +0.000 A 
ATOM     24  C   UNL     1      45.588   1.837   8.532  0.00  0.00    +0.000 A 
BRANCH  19  26
ATOM     25  N   UNL     1      48.551   2.295   6.388  0.00  0.00    +0.000 N 
ATOM     26  C   UNL     1      47.480   1.647   6.936  0.00  0.00    +0.000 C 
ATOM     27  O   UNL     1      47.347   0.436   6.827  0.00  0.00    +0.000 OA
ATOM     28  H   UNL     1      49.257   1.705   5.969  0.00  0.00    +0.000 HD
ATOM     29  H   UNL     1      48.827   3.222   6.675  0.00  0.00    +0.000 HD
ENDBRANCH  19  26
ENDBRANCH  17  22
ENDBRANCH  16  17
ENDBRANCH   1  16
TORSDOF 7
ENDMDL
MODEL 3
REMARK VINA RESULT:    -8.028      2.557      3.167
REMARK INTER + INTRA:         -12.517
REMARK INTER:                 -11.411
REMARK INTRA:                  -1.106
REMARK UNBOUND:                -1.204
REMARK  Name = 
REMARK  7 active torsions:
REMARK  status: ('A' for Active; 'I' for Inactive)
REMARK    1  A    between atoms: C_2  and  C_4
REMARK    2  A    between atoms: C_7  and  N_8
REMARK    3  A    between atoms: N_8  and  C_9
REMARK    4  A    between atoms: C_9  and  C_10
REMARK    5  A    between atoms: C_10  and  C_13
REMARK    6  A    between atoms: C_17  and  C_18
REMARK    7  A    between atoms: C_18  and  C_19
REMARK                            x       y       z     vdW  Elec       q    Type
REMARK                         _______ _______ _______ _____ _____    ______ ____
ROOT
ATOM      1  C   UNL     1      44.666   4.546  12.354  0.00  0.00    +0.000 C 
ATOM      2  F   UNL     1      44.213   4.314  13.620  0.00  0.00    +0.000 F 
ATOM      3  F   UNL     1      45.533   3.522  12.085  0.00  0.00    +0.000 F 
ENDROOT
BRANCH   1   4
ATOM      4  C   UNL     1      45.314   5.908  12.219  0.00  0.00    +0.000 A 
ATOM      5  C   UNL     1      44.567   7.076  12.427  0.00  0.00    +0.000 A 
ATOM      6  C   UNL     1      45.187   8.322  12.388  0.00  0.00    +0.000 A 
ATOM      7  C   UNL     1      46.558   8.415  12.142  0.00  0.00    +0.000 A 
ATOM      8  C   UNL     1      47.325   7.263  11.927  0.00  0.00    +0.000 A 
ATOM      9  C   UNL     1      46.692   6.014  11.960  0.00  0.00    +0.000 A 
BRANCH   8  10
ATOM     10  C   UNL     1      48.813   7.364  11.681  0.00  0.00    +0.000 C 
BRANCH  10  11
ATOM     11  C   UNL     1      49.486   8.187  12.775  0.00  0.00    +0.000 C 
ATOM     12  C   UNL     1      51.001   8.440  12.667  0.00  0.00    +0.000 C 
ATOM     13  N   UNL     1      51.195   7.895  14.016  0.00  0.00    +0.000 NA
ATOM     14  C   UNL     1      49.813   7.404  14.059  0.00  0.00    +0.000 C 
ATOM     15  H   UNL     1      51.408   8.598  14.722  0.00  0.00    +0.000 HD
ENDBRANCH  10  11
ENDBRANCH   8  10
ENDBRANCH   1   4
BRANCH   1  16
ATOM     16  C   UNL     1      43.482   4.452  11.359  0.00  0.00    +0.000 C 
BRANCH  16  17
ATOM     17  N   UNL     1      43.832   4.851   9.988  0.00  0.00    +0.000 N 
ATOM     18  H   UNL     1      43.081   5.316   9.479  0.00  0.00    +0.000 HD
BRANCH  17  22
ATOM     19  C   UNL     1      46.480   2.507   7.698  0.00  0.00    +0.000 A 
ATOM     20  C   UNL     1      45.529   1.876   8.501  0.00  0.00    +0.000 A 
ATOM     21  C   UNL     1      44.630   2.643   9.252  0.00  0.00    +0.000 A 
ATOM     22  C   UNL     1      44.641   4.042   9.195  0.00  0.00    +0.000 A 
ATOM     23  C   UNL     1      45.618   4.656   8.401  0.00  0.00    +0.000 A 
ATOM     24  C   UNL     1      46.534   3.902   7.663  0.00  0.00    +0.000 A 
BRANCH  19  26
ATOM     25  N   UNL     1      48.550   2.415   6.425  0.00  0.00    +0.000 N 
ATOM     26  C   UNL     1      47.468   1.731   6.904  0.00  0.00    +0.000 C 
ATOM     27  O   UNL     1      47.342   0.530   6.715  0.00  0.00    +0.000 OA
ATOM     28  H   UNL     1      49.268   1.854   5.987  0.00  0.00    +0.000 HD
ATOM     29  H   UNL     1      48.815   3.323   6.777  0.00  0.00    +0.000 HD
ENDBRANCH  19  26
ENDBRANCH  17  22
ENDBRANCH  16  17
ENDBRANCH   1  16
TORSDOF 7
ENDMDL
MODEL 4
REMARK VINA RESULT:    -8.025      2.220      3.665
REMARK INTER + INTRA:         -12.513
REMARK INTER:                 -11.447
REMARK INTRA:                  -1.066
REMARK UNBOUND:                -1.204
REMARK  Name = 
REMARK  7 active torsions:
REMARK  status: ('A' for Active; 'I' for Inactive)
REMARK    1  A    between atoms: C_2  and  C_4
REMARK    2  A    between atoms: C_7  and  N_8
REMARK    3  A    between atoms: N_8  and  C_9
REMARK    4  A    between atoms: C_9  and  C_10
REMARK    5  A    between atoms: C_10  and  C_13
REMARK    6  A    between atoms: C_17  and  C_18
REMARK    7  A    between atoms: C_18  and  C_19
REMARK                            x       y       z     vdW  Elec       q    Type
REMARK                         _______ _______ _______ _____ _____    ______ ____
ROOT
ATOM      1  C   UNL     1      43.567   4.652  12.668  0.00  0.00    +0.000 C 
ATOM      2  F   UNL     1      42.624   5.488  13.191  0.00  0.00    +0.000 F 
ATOM      3  F   UNL     1      43.320   3.428  13.230  0.00  0.00    +0.000 F 
ENDROOT
BRANCH   1   4
ATOM      4  C   UNL     1      44.976   5.142  12.934  0.00  0.00    +0.000 A 
ATOM      5  C   UNL     1      45.872   4.362  13.678  0.00  0.00    +0.000 A 
ATOM      6  C   UNL     1      47.191   4.775  13.846  0.00  0.00    +0.000 A 
ATOM      7  C   UNL     1      47.628   5.970  13.271  0.00  0.00    +0.000 A 
ATOM      8  C   UNL     1      46.751   6.768  12.526  0.00  0.00    +0.000 A 
ATOM      9  C   UNL     1      45.423   6.348  12.369  0.00  0.00    +0.000 A 
BRANCH   8  10
ATOM     10  C   UNL     1      47.231   8.050  11.887  0.00  0.00    +0.000 C 
BRANCH  10  11
ATOM     11  C   UNL     1      46.694   9.263  12.639  0.00  0.00    +0.000 C 
ATOM     12  C   UNL     1      45.551  10.071  11.997  0.00  0.00    +0.000 C 
ATOM     13  N   UNL     1      46.343  11.300  12.117  0.00  0.00    +0.000 NA
ATOM     14  C   UNL     1      47.541  10.540  12.489  0.00  0.00    +0.000 C 
ATOM     15  H   UNL     1      46.015  11.938  12.841  0.00  0.00    +0.000 HD
ENDBRANCH  10  11
ENDBRANCH   8  10
ENDBRANCH   1   4
BRANCH   1  16
ATOM     16  C   UNL     1      43.357   4.533  11.138  0.00  0.00    +0.000 C 
BRANCH  16  17
ATOM     17  N   UNL     1      43.797   3.246  10.582  0.00  0.00    +0.000 N 
ATOM     18  H   UNL     1      43.888   2.497  11.269  0.00  0.00    +0.000 HD
BRANCH  17  22
ATOM     19  C   UNL     1      46.491   2.949   7.356  0.00  0.00    +0.000 A 
ATOM     20  C   UNL     1      46.050   4.208   7.765  0.00  0.00    +0.000 A 
ATOM     21  C   UNL     1      45.171   4.323   8.848  0.00  0.00    +0.000 A 
ATOM     22  C   UNL     1      44.739   3.196   9.559  0.00  0.00    +0.000 A 
ATOM     23  C   UNL     1      45.175   1.939   9.117  0.00  0.00    +0.000 A 
ATOM     24  C   UNL     1      46.036   1.811   8.025  0.00  0.00    +0.000 A 
BRANCH  19  26
ATOM     25  N   UNL     1      48.693   2.414   6.473  0.00  0.00    +0.000 N 
ATOM     26  C   UNL     1      47.406   2.781   6.197  0.00  0.00    +0.000 C 
ATOM     27  O   UNL     1      47.020   2.928   5.046  0.00  0.00    +0.000 OA
ATOM     28  H   UNL     1      49.270   2.193   5.673  0.00  0.00    +0.000 HD
ATOM     29  H   UNL     1      48.967   2.036   7.367  0.00  0.00    +0.000 HD
ENDBRANCH  19  26
ENDBRANCH  17  22
ENDBRANCH  16  17
ENDBRANCH   1  16
TORSDOF 7
ENDMDL
MODEL 5
REMARK VINA RESULT:    -7.938      1.377      1.995
REMARK INTER + INTRA:         -12.391
REMARK INTER:                 -11.654
REMARK INTRA:                  -0.737
REMARK UNBOUND:                -1.204
REMARK  Name = 
REMARK  7 active torsions:
REMARK  status: ('A' for Active; 'I' for Inactive)
REMARK    1  A    between atoms: C_2  and  C_4
REMARK    2  A    between atoms: C_7  and  N_8
REMARK    3  A    between atoms: N_8  and  C_9
REMARK    4  A    between atoms: C_9  and  C_10
REMARK    5  A    between atoms: C_10  and  C_13
REMARK    6  A    between atoms: C_17  and  C_18
REMARK    7  A    between atoms: C_18  and  C_19
REMARK                            x       y       z     vdW  Elec       q    Type
REMARK                         _______ _______ _______ _____ _____    ______ ____
ROOT
ATOM      1  C   UNL     1      45.088   6.520  11.368  0.00  0.00    +0.000 C 
ATOM      2  F   UNL     1      45.621   6.737  10.130  0.00  0.00    +0.000 F 
ATOM      3  F   UNL     1      44.255   7.582  11.596  0.00  0.00    +0.000 F 
ENDROOT
BRANCH   1   4
ATOM      4  C   UNL     1      46.155   6.376  12.433  0.00  0.00    +0.000 A 
ATOM      5  C   UNL     1      47.069   7.413  12.670  0.00  0.00    +0.000 A 
ATOM      6  C   UNL     1      47.991   7.312  13.708  0.00  0.00    +0.000 A 
ATOM      7  C   UNL     1      48.009   6.177  14.520  0.00  0.00    +0.000 A 
ATOM      8  C   UNL     1      47.109   5.126  14.302  0.00  0.00    +0.000 A 
ATOM      9  C   UNL     1      46.190   5.233  13.250  0.00  0.00    +0.000 A 
BRANCH   8  10
ATOM     10  C   UNL     1      47.117   3.908  15.195  0.00  0.00    +0.000 C 
BRANCH  10  11
ATOM     11  C   UNL     1      47.956   4.159  16.444  0.00  0.00    +0.000 C 
ATOM     12  C   UNL     1      48.510   2.941  17.206  0.00  0.00    +0.000 C 
ATOM     13  N   UNL     1      47.896   3.429  18.446  0.00  0.00    +0.000 NA
ATOM     14  C   UNL     1      47.142   4.454  17.716  0.00  0.00    +0.000 C 
ATOM     15  H   UNL     1      48.562   3.805  19.120  0.00  0.00    +0.000 HD
ENDBRANCH  10  11
ENDBRANCH   8  10
ENDBRANCH   1   4
BRANCH   1  16
ATOM     16  C   UNL     1      44.231   5.230  11.338  0.00  0.00    +0.000 C 
BRANCH  16  17
ATOM     17  N   UNL     1      43.821   4.826   9.986  0.00  0.00    +0.000 N 
ATOM     18  H   UNL     1      42.813   4.720   9.864  0.00  0.00    +0.000 HD
BRANCH  17  22
ATOM     19  C   UNL     1      46.327   2.199   7.848  0.00  0.00    +0.000 A 
ATOM     20  C   UNL     1      45.427   1.679   8.778  0.00  0.00    +0.000 A 
ATOM     21  C   UNL     1      44.574   2.538   9.482  0.00  0.00    +0.000 A 
ATOM     22  C   UNL     1      44.581   3.920   9.252  0.00  0.00    +0.000 A 
ATOM     23  C   UNL     1      45.508   4.424   8.330  0.00  0.00    +0.000 A 
ATOM     24  C   UNL     1      46.378   3.579   7.638  0.00  0.00    +0.000 A 
BRANCH  19  26
ATOM     25  N   UNL     1      48.351   1.929   6.526  0.00  0.00    +0.000 N 
ATOM     26  C   UNL     1      47.265   1.325   7.097  0.00  0.00    +0.000 C 
ATOM     27  O   UNL     1      47.099   0.116   7.021  0.00  0.00    +0.000 OA
ATOM     28  H   UNL     1      49.038   1.309   6.119  0.00  0.00    +0.000 HD
ATOM     29  H   UNL     1      48.653   2.856   6.787  0.00  0.00    +0.000 HD
ENDBRANCH  19  26
ENDBRANCH  17  22
ENDBRANCH  16  17
ENDBRANCH   1  16
TORSDOF 7
ENDMDL
MODEL 6
REMARK VINA RESULT:    -7.596      2.818      3.351
REMARK INTER + INTRA:         -11.909
REMARK INTER:                 -10.895
REMARK INTRA:                  -1.014
REMARK UNBOUND:                -1.204
REMARK  Name = 
REMARK  7 active torsions:
REMARK  status: ('A' for Active; 'I' for Inactive)
REMARK    1  A    between atoms: C_2  and  C_4
REMARK    2  A    between atoms: C_7  and  N_8
REMARK    3  A    between atoms: N_8  and  C_9
REMARK    4  A    between atoms: C_9  and  C_10
REMARK    5  A    between atoms: C_10  and  C_13
REMARK    6  A    between atoms: C_17  and  C_18
REMARK    7  A    between atoms: C_18  and  C_19
REMARK                            x       y       z     vdW  Elec       q    Type
REMARK                         _______ _______ _______ _____ _____    ______ ____
ROOT
ATOM      1  C   UNL     1      44.542   5.239  12.208  0.00  0.00    +0.000 C 
ATOM      2  F   UNL     1      43.709   5.267  13.288  0.00  0.00    +0.000 F 
ATOM      3  F   UNL     1      45.256   4.077  12.329  0.00  0.00    +0.000 F 
ENDROOT
BRANCH   1   4
ATOM      4  C   UNL     1      45.430   6.464  12.139  0.00  0.00    +0.000 A 
ATOM      5  C   UNL     1      44.903   7.739  12.383  0.00  0.00    +0.000 A 
ATOM      6  C   UNL     1      45.740   8.853  12.404  0.00  0.00    +0.000 A 
ATOM      7  C   UNL     1      47.110   8.702  12.183  0.00  0.00    +0.000 A 
ATOM      8  C   UNL     1      47.660   7.438  11.934  0.00  0.00    +0.000 A 
ATOM      9  C   UNL     1      46.810   6.325  11.907  0.00  0.00    +0.000 A 
BRANCH   8  10
ATOM     10  C   UNL     1      49.146   7.275  11.717  0.00  0.00    +0.000 C 
BRANCH  10  11
ATOM     11  C   UNL     1      49.908   8.473  12.274  0.00  0.00    +0.000 C 
ATOM     12  C   UNL     1      51.350   8.710  11.786  0.00  0.00    +0.000 C 
ATOM     13  N   UNL     1      51.823   8.727  13.175  0.00  0.00    +0.000 NA
ATOM     14  C   UNL     1      50.526   8.250  13.666  0.00  0.00    +0.000 C 
ATOM     15  H   UNL     1      52.081   9.653  13.515  0.00  0.00    +0.000 HD
ENDBRANCH  10  11
ENDBRANCH   8  10
ENDBRANCH   1   4
BRANCH   1  16
ATOM     16  C   UNL     1      43.699   5.155  10.911  0.00  0.00    +0.000 C 
BRANCH  16  17
ATOM     17  N   UNL     1      43.740   3.836  10.266  0.00  0.00    +0.000 N 
ATOM     18  H   UNL     1      43.440   3.064  10.862  0.00  0.00    +0.000 HD
BRANCH  17  22
ATOM     19  C   UNL     1      46.673   2.693   7.465  0.00  0.00    +0.000 A 
ATOM     20  C   UNL     1      46.366   4.046   7.620  0.00  0.00    +0.000 A 
ATOM     21  C   UNL     1      45.408   4.441   8.561  0.00  0.00    +0.000 A 
ATOM     22  C   UNL     1      44.762   3.507   9.381  0.00  0.00    +0.000 A 
ATOM     23  C   UNL     1      45.068   2.152   9.193  0.00  0.00    +0.000 A 
ATOM     24  C   UNL     1      46.007   1.743   8.243  0.00  0.00    +0.000 A 
BRANCH  19  26
ATOM     25  N   UNL     1      47.853   3.021   5.363  0.00  0.00    +0.000 N 
ATOM     26  C   UNL     1      47.666   2.229   6.461  0.00  0.00    +0.000 C 
ATOM     27  O   UNL     1      48.314   1.205   6.623  0.00  0.00    +0.000 OA
ATOM     28  H   UNL     1      48.610   2.753   4.750  0.00  0.00    +0.000 HD
ATOM     29  H   UNL     1      47.538   3.979   5.329  0.00  0.00    +0.000 HD
ENDBRANCH  19  26
ENDBRANCH  17  22
ENDBRANCH  16  17
ENDBRANCH   1  16
TORSDOF 7
ENDMDL
MODEL 7
REMARK VINA RESULT:    -7.537      2.634      7.591
REMARK INTER + INTRA:         -11.826
REMARK INTER:                 -11.073
REMARK INTRA:                  -0.753
REMARK UNBOUND:                -1.204
REMARK  Name = 
REMARK  7 active torsions:
REMARK  status: ('A' for Active; 'I' for Inactive)
REMARK    1  A    between atoms: C_2  and  C_4
REMARK    2  A    between atoms: C_7  and  N_8
REMARK    3  A    between atoms: N_8  and  C_9
REMARK    4  A    between atoms: C_9  and  C_10
REMARK    5  A    between atoms: C_10  and  C_13
REMARK    6  A    between atoms: C_17  and  C_18
REMARK    7  A    between atoms: C_18  and  C_19
REMARK                            x       y       z     vdW  Elec       q    Type
REMARK                         _______ _______ _______ _____ _____    ______ ____
ROOT
ATOM      1  C   UNL     1      44.229   5.777  11.493  0.00  0.00    +0.000 C 
ATOM      2  F   UNL     1      43.798   5.372  12.722  0.00  0.00    +0.000 F 
ATOM      3  F   UNL     1      43.229   6.569  10.998  0.00  0.00    +0.000 F 
ENDROOT
BRANCH   1   4
ATOM      4  C   UNL     1      44.549   4.607  10.585  0.00  0.00    +0.000 A 
ATOM      5  C   UNL     1      44.003   3.341  10.836  0.00  0.00    +0.000 A 
ATOM      6  C   UNL     1      44.229   2.290   9.951  0.00  0.00    +0.000 A 
ATOM      7  C   UNL     1      45.001   2.494   8.805  0.00  0.00    +0.000 A 
ATOM      8  C   UNL     1      45.561   3.749   8.535  0.00  0.00    +0.000 A 
ATOM      9  C   UNL     1      45.335   4.798   9.435  0.00  0.00    +0.000 A 
BRANCH   8  10
ATOM     10  C   UNL     1      46.378   3.973   7.284  0.00  0.00    +0.000 C 
BRANCH  10  11
ATOM     11  C   UNL     1      46.682   2.648   6.593  0.00  0.00    +0.000 C 
ATOM     12  C   UNL     1      47.986   1.915   6.961  0.00  0.00    +0.000 C 
ATOM     13  N   UNL     1      48.367   1.869   5.545  0.00  0.00    +0.000 NA
ATOM     14  C   UNL     1      47.278   2.781   5.180  0.00  0.00    +0.000 C 
ATOM     15  H   UNL     1      48.293   0.944   5.124  0.00  0.00    +0.000 HD
ENDBRANCH  10  11
ENDBRANCH   8  10
ENDBRANCH   1   4
BRANCH   1  16
ATOM     16  C   UNL     1      45.500   6.648  11.656  0.00  0.00    +0.000 C 
BRANCH  16  17
ATOM     17  N   UNL     1      46.711   5.873  11.961  0.00  0.00    +0.000 N 
ATOM     18  H   UNL     1      46.955   5.176  11.257  0.00  0.00    +0.000 HD
BRANCH  17  22
ATOM     19  C   UNL     1      47.725   4.519  15.819  0.00  0.00    +0.000 A 
ATOM     20  C   UNL     1      48.040   5.827  15.449  0.00  0.00    +0.000 A 
ATOM     21  C   UNL     1      47.691   6.296  14.177  0.00  0.00    +0.000 A 
ATOM     22  C   UNL     1      47.000   5.487  13.266  0.00  0.00    +0.000 A 
ATOM     23  C   UNL     1      46.714   4.171  13.649  0.00  0.00    +0.000 A 
ATOM     24  C   UNL     1      47.075   3.684  14.908  0.00  0.00    +0.000 A 
BRANCH  19  26
ATOM     25  N   UNL     1      47.175   3.184  17.777  0.00  0.00    +0.000 N 
ATOM     26  C   UNL     1      48.098   3.974  17.151  0.00  0.00    +0.000 C 
ATOM     27  O   UNL     1      49.193   4.189  17.651  0.00  0.00    +0.000 OA
ATOM     28  H   UNL     1      47.485   2.729  18.624  0.00  0.00    +0.000 HD
ATOM     29  H   UNL     1      46.390   2.780  17.288  0.00  0.00    +0.000 HD
ENDBRANCH  19  26
ENDBRANCH  17  22
ENDBRANCH  16  17
ENDBRANCH   1  16
TORSDOF 7
ENDMDL
MODEL 8
REMARK VINA RESULT:    -7.438      3.505      7.312
REMARK INTER + INTRA:         -11.686
REMARK INTER:                 -10.648
REMARK INTRA:                  -1.037
REMARK UNBOUND:                -1.204
REMARK  Name = 
REMARK  7 active torsions:
REMARK  status: ('A' for Active; 'I' for Inactive)
REMARK    1  A    between atoms: C_2  and  C_4
REMARK    2  A    between atoms: C_7  and  N_8
REMARK    3  A    between atoms: N_8  and  C_9
REMARK    4  A    between atoms: C_9  and  C_10
REMARK    5  A    between atoms: C_10  and  C_13
REMARK    6  A    between atoms: C_17  and  C_18
REMARK    7  A    between atoms: C_18  and  C_19
REMARK                            x       y       z     vdW  Elec       q    Type
REMARK                         _______ _______ _______ _____ _____    ______ ____
ROOT
ATOM      1  C   UNL     1      44.010   6.048  11.359  0.00  0.00    +0.000 C 
ATOM      2  F   UNL     1      42.664   6.259  11.287  0.00  0.00    +0.000 F 
ATOM      3  F   UNL     1      44.585   7.203  10.901  0.00  0.00    +0.000 F 
ENDROOT
BRANCH   1   4
ATOM      4  C   UNL     1      44.441   4.830  10.568  0.00  0.00    +0.000 A 
ATOM      5  C   UNL     1      43.933   3.562  10.881  0.00  0.00    +0.000 A 
ATOM      6  C   UNL     1      44.264   2.459  10.097  0.00  0.00    +0.000 A 
ATOM      7  C   UNL     1      45.103   2.613   8.992  0.00  0.00    +0.000 A 
ATOM      8  C   UNL     1      45.626   3.870   8.661  0.00  0.00    +0.000 A 
ATOM      9  C   UNL     1      45.294   4.971   9.460  0.00  0.00    +0.000 A 
BRANCH   8  10
ATOM     10  C   UNL     1      46.517   4.038   7.452  0.00  0.00    +0.000 C 
BRANCH  10  11
ATOM     11  C   UNL     1      46.690   2.711   6.720  0.00  0.00    +0.000 C 
ATOM     12  C   UNL     1      47.957   1.882   7.002  0.00  0.00    +0.000 C 
ATOM     13  N   UNL     1      48.259   1.843   5.567  0.00  0.00    +0.000 NA
ATOM     14  C   UNL     1      47.218   2.836   5.280  0.00  0.00    +0.000 C 
ATOM     15  H   UNL     1      48.098   0.935   5.133  0.00  0.00    +0.000 HD
ENDBRANCH  10  11
ENDBRANCH   8  10
ENDBRANCH   1   4
BRANCH   1  16
ATOM     16  C   UNL     1      44.423   5.856  12.840  0.00  0.00    +0.000 C 
BRANCH  16  17
ATOM     17  N   UNL     1      45.875   5.749  13.038  0.00  0.00    +0.000 N 
ATOM     18  H   UNL     1      46.152   5.169  13.831  0.00  0.00    +0.000 HD
BRANCH  17  22
ATOM     19  C   UNL     1      48.356   9.026  12.113  0.00  0.00    +0.000 A 
ATOM     20  C   UNL     1      47.255   9.217  12.950  0.00  0.00    +0.000 A 
ATOM     21  C   UNL     1      46.434   8.132  13.281  0.00  0.00    +0.000 A 
ATOM     22  C   UNL     1      46.708   6.841  12.813  0.00  0.00    +0.000 A 
ATOM     23  C   UNL     1      47.803   6.675  11.956  0.00  0.00    +0.000 A 
ATOM     24  C   UNL     1      48.618   7.753  11.601  0.00  0.00    +0.000 A 
BRANCH  19  26
ATOM     25  N   UNL     1      50.451   9.829  11.174  0.00  0.00    +0.000 N 
ATOM     26  C   UNL     1      49.239  10.154  11.717  0.00  0.00    +0.000 C 
ATOM     27  O   UNL     1      48.888  11.319  11.835  0.00  0.00    +0.000 OA
ATOM     28  H   UNL     1      50.990  10.600  10.805  0.00  0.00    +0.000 HD
ATOM     29  H   UNL     1      50.657   8.904  10.826  0.00  0.00    +0.000 HD
ENDBRANCH  19  26
ENDBRANCH  17  22
ENDBRANCH  16  17
ENDBRANCH   1  16
TORSDOF 7
ENDMDL
MODEL 9
REMARK VINA RESULT:    -6.670      3.176      7.993
REMARK INTER + INTRA:         -10.603
REMARK INTER:                  -9.681
REMARK INTRA:                  -0.922
REMARK UNBOUND:                -1.204
REMARK  Name = 
REMARK  7 active torsions:
REMARK  status: ('A' for Active; 'I' for Inactive)
REMARK    1  A    between atoms: C_2  and  C_4
REMARK    2  A    between atoms: C_7  and  N_8
REMARK    3  A    between atoms: N_8  and  C_9
REMARK    4  A    between atoms: C_9  and  C_10
REMARK    5  A    between atoms: C_10  and  C_13
REMARK    6  A    between atoms: C_17  and  C_18
REMARK    7  A    between atoms: C_18  and  C_19
REMARK                            x       y       z     vdW  Elec       q    Type
REMARK                         _______ _______ _______ _____ _____    ______ ____
ROOT
ATOM      1  C   UNL     1      45.679   6.472  11.411  0.00  0.00    +0.000 C 
ATOM      2  F   UNL     1      44.844   7.448  10.952  0.00  0.00    +0.000 F 
ATOM      3  F   UNL     1      46.837   6.618  10.696  0.00  0.00    +0.000 F 
ENDROOT
BRANCH   1   4
ATOM      4  C   UNL     1      45.077   5.090  11.267  0.00  0.00    +0.000 A 
ATOM      5  C   UNL     1      44.301   4.541  12.297  0.00  0.00    +0.000 A 
ATOM      6  C   UNL     1      43.677   3.307  12.126  0.00  0.00    +0.000 A 
ATOM      7  C   UNL     1      43.821   2.611  10.924  0.00  0.00    +0.000 A 
ATOM      8  C   UNL     1      44.595   3.137   9.881  0.00  0.00    +0.000 A 
ATOM      9  C   UNL     1      45.225   4.375  10.066  0.00  0.00    +0.000 A 
BRANCH   8  10
ATOM     10  C   UNL     1      44.733   2.392   8.574  0.00  0.00    +0.000 C 
BRANCH  10  11
ATOM     11  C   UNL     1      46.198   2.281   8.168  0.00  0.00    +0.000 C 
ATOM     12  C   UNL     1      46.592   2.698   6.738  0.00  0.00    +0.000 C 
ATOM     13  N   UNL     1      47.221   1.390   6.523  0.00  0.00    +0.000 NA
ATOM     14  C   UNL     1      46.648   0.864   7.766  0.00  0.00    +0.000 C 
ATOM     15  H   UNL     1      48.240   1.415   6.513  0.00  0.00    +0.000 HD
ENDBRANCH  10  11
ENDBRANCH   8  10
ENDBRANCH   1   4
BRANCH   1  16
ATOM     16  C   UNL     1      45.998   6.728  12.906  0.00  0.00    +0.000 C 
BRANCH  16  17
ATOM     17  N   UNL     1      47.401   6.472  13.261  0.00  0.00    +0.000 N 
ATOM     18  H   UNL     1      47.987   6.174  12.481  0.00  0.00    +0.000 HD
BRANCH  17  22
ATOM     19  C   UNL     1      48.320   4.896  17.059  0.00  0.00    +0.000 A 
ATOM     20  C   UNL     1      47.445   4.200  16.224  0.00  0.00    +0.000 A 
ATOM     21  C   UNL     1      47.146   4.702  14.951  0.00  0.00    +0.000 A 
ATOM     22  C   UNL     1      47.732   5.883  14.478  0.00  0.00    +0.000 A 
ATOM     23  C   UNL     1      48.589   6.578  15.340  0.00  0.00    +0.000 A 
ATOM     24  C   UNL     1      48.879   6.098  16.620  0.00  0.00    +0.000 A 
BRANCH  19  26
ATOM     25  N   UNL     1      47.681   4.562  19.382  0.00  0.00    +0.000 N 
ATOM     26  C   UNL     1      48.645   4.411  18.425  0.00  0.00    +0.000 C 
ATOM     27  O   UNL     1      49.711   3.869  18.679  0.00  0.00    +0.000 OA
ATOM     28  H   UNL     1      47.871   4.126  20.273  0.00  0.00    +0.000 HD
ATOM     29  H   UNL     1      46.718   4.757  19.151  0.00  0.00    +0.000 HD
ENDBRANCH  19  26
ENDBRANCH  17  22
ENDBRANCH  16  17
ENDBRANCH   1  16
TORSDOF 7
ENDMDL
