MODEL 1
REMARK VINA RESULT:    -8.990      0.000      0.000
REMARK INTER + INTRA:         -11.445
REMARK INTER:                 -11.092
REMARK INTRA:                  -0.352
REMARK UNBOUND:                -0.352
REMARK  Name = 
REMARK  4 active torsions:
REMARK  status: ('A' for Active; 'I' for Inactive)
REMARK    1  A    between atoms: C_2  and  C_4
REMARK    2  A    between atoms: N_8  and  C_9
REMARK    3  A    between atoms: C_9  and  C_10
REMARK    4  A    between atoms: C_14  and  C_15
REMARK                            x       y       z     vdW  Elec       q    Type
REMARK                         _______ _______ _______ _____ _____    ______ ____
ROOT
ATOM      1  C   UNL     1      43.830   4.825  11.612  0.00  0.00    +0.000 C 
ATOM      2  C   UNL     1      42.490   5.279  12.170  0.00  0.00    +0.000 C 
ATOM      3  C   UNL     1      43.061   5.984  10.986  0.00  0.00    +0.000 C 
ENDROOT
BRANCH   1   8
ATOM      4  C   UNL     1      46.413   2.752   7.626  0.00  0.00    +0.000 A 
ATOM      5  C   UNL     1      46.149   4.083   7.931  0.00  0.00    +0.000 A 
ATOM      6  C   UNL     1      45.317   4.378   9.011  0.00  0.00    +0.000 A 
ATOM      7  C   UNL     1      44.764   3.350   9.768  0.00  0.00    +0.000 A 
ATOM      8  N   UNL     1      43.914   3.575  10.852  0.00  0.00    +0.000 N 
ATOM      9  N   UNL     1      45.002   2.055   9.469  0.00  0.00    +0.000 NA
ATOM     10  C   UNL     1      45.806   1.781   8.408  0.00  0.00    +0.000 A 
ATOM     11  H   UNL     1      43.706   2.688  11.297  0.00  0.00    +0.000 HD
BRANCH   4  13
ATOM     12  N   UNL     1      47.264   3.118   5.382  0.00  0.00    +0.000 N 
ATOM     13  C   UNL     1      47.282   2.340   6.505  0.00  0.00    +0.000 C 
ATOM     14  O   UNL     1      48.012   1.362   6.588  0.00  0.00    +0.000 OA
ATOM     15  H   UNL     1      47.932   2.878   4.655  0.00  0.00    +0.000 HD
ATOM     16  H   UNL     1      46.857   4.041   5.353  0.00  0.00    +0.000 HD
ENDBRANCH   4  13
ENDBRANCH   1   8
BRANCH   1  17
ATOM     17  C   UNL     1      45.103   5.227  12.349  0.00  0.00    +0.000 A 
ATOM     18  C   UNL     1      45.592   4.486  13.441  0.00  0.00    +0.000 A 
ATOM     19  C   UNL     1      46.845   4.755  13.995  0.00  0.00    +0.000 A 
ATOM     20  C   UNL     1      47.637   5.774  13.473  0.00  0.00    +0.000 A 
ATOM     21  C   UNL     1      47.166   6.562  12.416  0.00  0.00    +0.000 A 
ATOM     22  C   UNL     1      45.900   6.289  11.890  0.00  0.00    +0.000 A 
BRANCH  21  23
ATOM     23  C   UNL     1      48.009   7.628  11.752  0.00  0.00    +0.000 C 
ATOM     24  C   UNL     1      49.500   7.402  12.052  0.00  0.00    +0.000 C 
ATOM     25  C   UNL     1      50.344   8.539  11.491  0.00  0.00    +0.000 C 
ATOM     26  C   UNL     1      49.780   9.884  11.925  0.00  0.00    +0.000 C 
ATOM     27  O   UNL     1      48.426  10.019  11.493  0.00  0.00    +0.000 OA
ATOM     28  C   UNL     1      47.571   9.051  12.110  0.00  0.00    +0.000 C 
ENDBRANCH  21  23
ENDBRANCH   1  17
TORSDOF 4
ENDMDL
MODEL 2
REMARK VINA RESULT:    -8.985      2.271      3.543
REMARK INTER + INTRA:         -11.438
REMARK INTER:                 -11.218
REMARK INTRA:                  -0.220
REMARK UNBOUND:                -0.352
REMARK  Name = 
REMARK  4 active torsions:
REMARK  status: ('A' for Active; 'I' for Inactive)
REMARK    1  A    between atoms: C_2  and  C_4
REMARK    2  A    between atoms: N_8  and  C_9
REMARK    3  A    between atoms: C_9  and  C_10
REMARK    4  A    between atoms: C_14  and  C_15
REMARK                            x       y       z     vdW  Elec       q    Type
REMARK                         _______ _______ _______ _____ _____    ______ ____
ROOT
ATOM      1  C   UNL     1      44.016   4.731  11.556  0.00  0.00    +0.000 C 
ATOM      2  C   UNL     1      42.729   5.097  12.279  0.00  0.00    +0.000 C 
ATOM      3  C   UNL     1      43.115   5.855  11.054  0.00  0.00    +0.000 C 
ENDROOT
BRANCH   1   8
ATOM      4  C   UNL     1      46.516   2.748   7.472  0.00  0.00    +0.000 A 
ATOM      5  C   UNL     1      46.269   4.071   7.819  0.00  0.00    +0.000 A 
ATOM      6  C   UNL     1      45.457   4.344   8.920  0.00  0.00    +0.000 A 
ATOM      7  C   UNL     1      44.907   3.300   9.656  0.00  0.00    +0.000 A 
ATOM      8  N   UNL     1      44.077   3.502  10.760  0.00  0.00    +0.000 N 
ATOM      9  N   UNL     1      45.129   2.012   9.318  0.00  0.00    +0.000 NA
ATOM     10  C   UNL     1      45.914   1.761   8.236  0.00  0.00    +0.000 A 
ATOM     11  H   UNL     1      43.868   2.605  11.184  0.00  0.00    +0.000 HD
BRANCH   4  13
ATOM     12  N   UNL     1      47.202   3.060   5.164  0.00  0.00    +0.000 N 
ATOM     13  C   UNL     1      47.365   2.360   6.327  0.00  0.00    +0.000 C 
ATOM     14  O   UNL     1      48.199   1.471   6.421  0.00  0.00    +0.000 OA
ATOM     15  H   UNL     1      47.852   2.846   4.414  0.00  0.00    +0.000 HD
ATOM     16  H   UNL     1      46.697   3.932   5.107  0.00  0.00    +0.000 HD
ENDBRANCH   4  13
ENDBRANCH   1   8
BRANCH   1  17
ATOM     17  C   UNL     1      45.344   5.191  12.147  0.00  0.00    +0.000 A 
ATOM     18  C   UNL     1      46.094   6.229  11.565  0.00  0.00    +0.000 A 
ATOM     19  C   UNL     1      47.213   6.761  12.207  0.00  0.00    +0.000 A 
ATOM     20  C   UNL     1      47.611   6.266  13.445  0.00  0.00    +0.000 A 
ATOM     21  C   UNL     1      46.917   5.203  14.036  0.00  0.00    +0.000 A 
ATOM     22  C   UNL     1      45.812   4.670  13.366  0.00  0.00    +0.000 A 
BRANCH  21  23
ATOM     23  C   UNL     1      47.249   4.675  15.414  0.00  0.00    +0.000 C 
ATOM     24  C   UNL     1      48.308   5.560  16.091  0.00  0.00    +0.000 C 
ATOM     25  C   UNL     1      48.737   4.967  17.427  0.00  0.00    +0.000 C 
ATOM     26  C   UNL     1      49.110   3.500  17.262  0.00  0.00    +0.000 C 
ATOM     27  O   UNL     1      48.009   2.764  16.729  0.00  0.00    +0.000 OA
ATOM     28  C   UNL     1      47.665   3.201  15.410  0.00  0.00    +0.000 C 
ENDBRANCH  21  23
ENDBRANCH   1  17
TORSDOF 4
ENDMDL
MODEL 3
REMARK VINA RESULT:    -7.218      3.901      7.456
REMARK INTER + INTRA:          -9.258
REMARK INTER:                  -8.750
REMARK INTRA:                  -0.508
REMARK UNBOUND:                -0.352
REMARK  Name = 
REMARK  4 active torsions:
REMARK  status: ('A' for Active; 'I' for Inactive)
REMARK    1  A    between atoms: C_2  and  C_4
REMARK    2  A    between atoms: N_8  and  C_9
REMARK    3  A    between atoms: C_9  and  C_10
REMARK    4  A    between atoms: C_14  and  C_15
REMARK                            x       y       z     vdW  Elec       q    Type
REMARK                         _______ _______ _______ _____ _____    ______ ____
ROOT
ATOM      1  C   UNL     1      48.570   7.543  12.680  0.00  0.00    +0.000 C 
ATOM      2  C   UNL     1      49.573   7.023  11.661  0.00  0.00    +0.000 C 
ATOM      3  C   UNL     1      49.410   8.496  11.835  0.00  0.00    +0.000 C 
ENDROOT
BRANCH   1   8
ATOM      4  C   UNL     1      47.949   4.326  16.695  0.00  0.00    +0.000 A 
ATOM      5  C   UNL     1      47.218   4.446  15.519  0.00  0.00    +0.000 A 
ATOM      6  C   UNL     1      47.517   5.486  14.638  0.00  0.00    +0.000 A 
ATOM      7  C   UNL     1      48.534   6.385  14.940  0.00  0.00    +0.000 A 
ATOM      8  N   UNL     1      48.877   7.454  14.111  0.00  0.00    +0.000 N 
ATOM      9  N   UNL     1      49.240   6.285  16.087  0.00  0.00    +0.000 NA
ATOM     10  C   UNL     1      48.930   5.273  16.941  0.00  0.00    +0.000 A 
ATOM     11  H   UNL     1      49.695   7.917  14.490  0.00  0.00    +0.000 HD
BRANCH   4  13
ATOM     12  N   UNL     1      48.658   3.079  18.654  0.00  0.00    +0.000 N 
ATOM     13  C   UNL     1      47.709   3.258  17.687  0.00  0.00    +0.000 C 
ATOM     14  O   UNL     1      46.690   2.581  17.664  0.00  0.00    +0.000 OA
ATOM     15  H   UNL     1      48.439   2.405  19.382  0.00  0.00    +0.000 HD
ATOM     16  H   UNL     1      49.390   3.747  18.843  0.00  0.00    +0.000 HD
ENDBRANCH   4  13
ENDBRANCH   1   8
BRANCH   1  17
ATOM     17  C   UNL     1      47.087   7.514  12.328  0.00  0.00    +0.000 A 
ATOM     18  C   UNL     1      46.254   8.628  12.538  0.00  0.00    +0.000 A 
ATOM     19  C   UNL     1      44.946   8.655  12.052  0.00  0.00    +0.000 A 
ATOM     20  C   UNL     1      44.438   7.567  11.349  0.00  0.00    +0.000 A 
ATOM     21  C   UNL     1      45.221   6.422  11.159  0.00  0.00    +0.000 A 
ATOM     22  C   UNL     1      46.522   6.408  11.672  0.00  0.00    +0.000 A 
BRANCH  21  23
ATOM     23  C   UNL     1      44.757   5.241  10.335  0.00  0.00    +0.000 C 
ATOM     24  C   UNL     1      44.562   4.004  11.225  0.00  0.00    +0.000 C 
ATOM     25  C   UNL     1      44.214   2.781  10.386  0.00  0.00    +0.000 C 
ATOM     26  C   UNL     1      45.207   2.622   9.243  0.00  0.00    +0.000 C 
ATOM     27  O   UNL     1      45.216   3.792   8.425  0.00  0.00    +0.000 OA
ATOM     28  C   UNL     1      45.673   4.941   9.145  0.00  0.00    +0.000 C 
ENDBRANCH  21  23
ENDBRANCH   1  17
TORSDOF 4
ENDMDL
MODEL 4
REMARK VINA RESULT:    -6.795      3.599      6.227
REMARK INTER + INTRA:          -8.737
REMARK INTER:                  -8.444
REMARK INTRA:                  -0.292
REMARK UNBOUND:                -0.352
REMARK  Name = 
REMARK  4 active torsions:
REMARK  status: ('A' for Active; 'I' for Inactive)
REMARK    1  A    between atoms: C_2  and  C_4
REMARK    2  A    between atoms: N_8  and  C_9
REMARK    3  A    between atoms: C_9  and  C_10
REMARK    4  A    between atoms: C_14  and  C_15
REMARK                            x       y       z     vdW  Elec       q    Type
REMARK                         _______ _______ _______ _____ _____    ______ ____
ROOT
ATOM      1  C   UNL     1      48.524   8.234  12.722  0.00  0.00    +0.000 C 
ATOM      2  C   UNL     1      47.788   9.551  12.912  0.00  0.00    +0.000 C 
ATOM      3  C   UNL     1      49.096   9.546  12.196  0.00  0.00    +0.000 C 
ENDROOT
BRANCH   1   8
ATOM      4  C   UNL     1      44.300   5.425  11.662  0.00  0.00    +0.000 A 
ATOM      5  C   UNL     1      44.748   5.954  12.867  0.00  0.00    +0.000 A 
ATOM      6  C   UNL     1      45.995   6.577  12.911  0.00  0.00    +0.000 A 
ATOM      7  C   UNL     1      46.773   6.665  11.762  0.00  0.00    +0.000 A 
ATOM      8  N   UNL     1      48.033   7.263  11.740  0.00  0.00    +0.000 N 
ATOM      9  N   UNL     1      46.352   6.141  10.591  0.00  0.00    +0.000 NA
ATOM     10  C   UNL     1      45.140   5.526  10.564  0.00  0.00    +0.000 A 
ATOM     11  H   UNL     1      48.371   7.285  10.784  0.00  0.00    +0.000 HD
BRANCH   4  13
ATOM     12  N   UNL     1      41.874   5.515  11.681  0.00  0.00    +0.000 N 
ATOM     13  C   UNL     1      42.994   4.750  11.514  0.00  0.00    +0.000 C 
ATOM     14  O   UNL     1      42.916   3.564  11.225  0.00  0.00    +0.000 OA
ATOM     15  H   UNL     1      40.985   5.062  11.488  0.00  0.00    +0.000 HD
ATOM     16  H   UNL     1      41.888   6.523  11.697  0.00  0.00    +0.000 HD
ENDBRANCH   4  13
ENDBRANCH   1   8
BRANCH   1  17
ATOM     17  C   UNL     1      49.275   7.638  13.907  0.00  0.00    +0.000 A 
ATOM     18  C   UNL     1      50.562   8.080  14.266  0.00  0.00    +0.000 A 
ATOM     19  C   UNL     1      51.168   7.658  15.451  0.00  0.00    +0.000 A 
ATOM     20  C   UNL     1      50.503   6.781  16.303  0.00  0.00    +0.000 A 
ATOM     21  C   UNL     1      49.241   6.285  15.959  0.00  0.00    +0.000 A 
ATOM     22  C   UNL     1      48.661   6.704  14.758  0.00  0.00    +0.000 A 
BRANCH  21  23
ATOM     23  C   UNL     1      48.433   5.396  16.879  0.00  0.00    +0.000 C 
ATOM     24  C   UNL     1      49.362   4.541  17.756  0.00  0.00    +0.000 C 
ATOM     25  C   UNL     1      48.558   3.556  18.596  0.00  0.00    +0.000 C 
ATOM     26  C   UNL     1      47.582   2.784  17.721  0.00  0.00    +0.000 C 
ATOM     27  O   UNL     1      46.702   3.682  17.044  0.00  0.00    +0.000 OA
ATOM     28  C   UNL     1      47.408   4.534  16.136  0.00  0.00    +0.000 C 
ENDBRANCH  21  23
ENDBRANCH   1  17
TORSDOF 4
ENDMDL
MODEL 5
REMARK VINA RESULT:    -6.771      6.248      8.725
REMARK INTER + INTRA:          -8.707
REMARK INTER:                  -8.199
REMARK INTRA:                  -0.508
REMARK UNBOUND:                -0.352
REMARK  Name = 
REMARK  4 active torsions:
REMARK  status: ('A' for Active; 'I' for Inactive)
REMARK    1  A    between atoms: C_2  and  C_4
REMARK    2  A    between atoms: N_8  and  C_9
REMARK    3  A    between atoms: C_9  and  C_10
REMARK    4  A    between atoms: C_14  and  C_15
REMARK                            x       y       z     vdW  Elec       q    Type
REMARK                         _______ _______ _______ _____ _____    ______ ____
ROOT
ATOM      1  C   UNL     1      48.208   3.452  17.047  0.00  0.00    +0.000 C 
ATOM      2  C   UNL     1      47.962   3.746  18.520  0.00  0.00    +0.000 C 
ATOM      3  C   UNL     1      46.952   2.956  17.757  0.00  0.00    +0.000 C 
ENDROOT
BRANCH   1   8
ATOM      4  C   UNL     1      53.062   2.039  18.189  0.00  0.00    +0.000 A 
ATOM      5  C   UNL     1      52.426   3.267  18.333  0.00  0.00    +0.000 A 
ATOM      6  C   UNL     1      51.134   3.424  17.831  0.00  0.00    +0.000 A 
ATOM      7  C   UNL     1      50.497   2.362  17.199  0.00  0.00    +0.000 A 
ATOM      8  N   UNL     1      49.211   2.455  16.664  0.00  0.00    +0.000 N 
ATOM      9  N   UNL     1      51.112   1.170  17.042  0.00  0.00    +0.000 NA
ATOM     10  C   UNL     1      52.375   1.034  17.525  0.00  0.00    +0.000 A 
ATOM     11  H   UNL     1      48.925   1.540  16.332  0.00  0.00    +0.000 HD
BRANCH   4  13
ATOM     12  N   UNL     1      54.576   1.613  20.038  0.00  0.00    +0.000 N 
ATOM     13  C   UNL     1      54.426   1.775  18.689  0.00  0.00    +0.000 C 
ATOM     14  O   UNL     1      55.378   1.677  17.928  0.00  0.00    +0.000 OA
ATOM     15  H   UNL     1      55.501   1.341  20.360  0.00  0.00    +0.000 HD
ATOM     16  H   UNL     1      53.803   1.464  20.668  0.00  0.00    +0.000 HD
ENDBRANCH   4  13
ENDBRANCH   1   8
BRANCH   1  17
ATOM     17  C   UNL     1      47.971   4.563  16.030  0.00  0.00    +0.000 A 
ATOM     18  C   UNL     1      48.683   5.775  16.078  0.00  0.00    +0.000 A 
ATOM     19  C   UNL     1      48.589   6.710  15.046  0.00  0.00    +0.000 A 
ATOM     20  C   UNL     1      47.778   6.458  13.944  0.00  0.00    +0.000 A 
ATOM     21  C   UNL     1      47.019   5.283  13.882  0.00  0.00    +0.000 A 
ATOM     22  C   UNL     1      47.112   4.369  14.936  0.00  0.00    +0.000 A 
BRANCH  21  23
ATOM     23  C   UNL     1      46.183   4.913  12.676  0.00  0.00    +0.000 C 
ATOM     24  C   UNL     1      46.227   6.032  11.624  0.00  0.00    +0.000 C 
ATOM     25  C   UNL     1      45.291   5.721  10.463  0.00  0.00    +0.000 C 
ATOM     26  C   UNL     1      43.907   5.355  10.979  0.00  0.00    +0.000 C 
ATOM     27  O   UNL     1      43.985   4.234  11.860  0.00  0.00    +0.000 OA
ATOM     28  C   UNL     1      44.744   4.533  13.036  0.00  0.00    +0.000 C 
ENDBRANCH  21  23
ENDBRANCH   1  17
TORSDOF 4
ENDMDL
MODEL 6
REMARK VINA RESULT:    -6.728      3.724      6.381
REMARK INTER + INTRA:          -8.654
REMARK INTER:                  -7.916
REMARK INTRA:                  -0.738
REMARK UNBOUND:                -0.352
REMARK  Name = 
REMARK  4 active torsions:
REMARK  status: ('A' for Active; 'I' for Inactive)
REMARK    1  A    between atoms: C_2  and  C_4
REMARK    2  A    between atoms: N_8  and  C_9
REMARK    3  A    between atoms: C_9  and  C_10
REMARK    4  A    between atoms: C_14  and  C_15
REMARK                            x       y       z     vdW  Elec       q    Type
REMARK                         _______ _______ _______ _____ _____    ______ ____
ROOT
ATOM      1  C   UNL     1      45.783   4.455  12.948  0.00  0.00    +0.000 C 
ATOM      2  C   UNL     1      44.318   4.114  13.174  0.00  0.00    +0.000 C 
ATOM      3  C   UNL     1      44.933   3.834  11.844  0.00  0.00    +0.000 C 
ENDROOT
BRANCH   1   8
ATOM      4  C   UNL     1      48.294   3.857  17.442  0.00  0.00    +0.000 A 
ATOM      5  C   UNL     1      47.654   4.971  16.912  0.00  0.00    +0.000 A 
ATOM      6  C   UNL     1      47.151   4.910  15.612  0.00  0.00    +0.000 A 
ATOM      7  C   UNL     1      47.292   3.746  14.863  0.00  0.00    +0.000 A 
ATOM      8  N   UNL     1      46.825   3.622  13.554  0.00  0.00    +0.000 N 
ATOM      9  N   UNL     1      47.926   2.664  15.365  0.00  0.00    +0.000 NA
ATOM     10  C   UNL     1      48.420   2.741  16.629  0.00  0.00    +0.000 A 
ATOM     11  H   UNL     1      46.963   2.666  13.244  0.00  0.00    +0.000 HD
BRANCH   4  13
ATOM     12  N   UNL     1      48.296   2.943  19.691  0.00  0.00    +0.000 N 
ATOM     13  C   UNL     1      48.855   3.824  18.808  0.00  0.00    +0.000 C 
ATOM     14  O   UNL     1      49.799   4.532  19.129  0.00  0.00    +0.000 OA
ATOM     15  H   UNL     1      48.749   2.865  20.597  0.00  0.00    +0.000 HD
ATOM     16  H   UNL     1      47.679   2.195  19.414  0.00  0.00    +0.000 HD
ENDBRANCH   4  13
ENDBRANCH   1   8
BRANCH   1  17
ATOM     17  C   UNL     1      46.167   5.912  12.716  0.00  0.00    +0.000 A 
ATOM     18  C   UNL     1      45.235   6.956  12.859  0.00  0.00    +0.000 A 
ATOM     19  C   UNL     1      45.633   8.293  12.819  0.00  0.00    +0.000 A 
ATOM     20  C   UNL     1      46.973   8.619  12.630  0.00  0.00    +0.000 A 
ATOM     21  C   UNL     1      47.924   7.609  12.438  0.00  0.00    +0.000 A 
ATOM     22  C   UNL     1      47.500   6.277  12.461  0.00  0.00    +0.000 A 
BRANCH  21  23
ATOM     23  C   UNL     1      49.404   7.893  12.310  0.00  0.00    +0.000 C 
ATOM     24  C   UNL     1      50.051   8.025  13.698  0.00  0.00    +0.000 C 
ATOM     25  C   UNL     1      51.514   8.433  13.577  0.00  0.00    +0.000 C 
ATOM     26  C   UNL     1      51.655   9.644  12.666  0.00  0.00    +0.000 C 
ATOM     27  O   UNL     1      51.117   9.360  11.375  0.00  0.00    +0.000 OA
ATOM     28  C   UNL     1      49.709   9.108  11.428  0.00  0.00    +0.000 C 
ENDBRANCH  21  23
ENDBRANCH   1  17
TORSDOF 4
ENDMDL
MODEL 7
REMARK VINA RESULT:    -6.644      3.272      5.681
REMARK INTER + INTRA:          -8.550
REMARK INTER:                  -7.725
REMARK INTRA:                  -0.824
REMARK UNBOUND:                -0.352
REMARK  Name = 
REMARK  4 active torsions:
REMARK  status: ('A' for Active; 'I' for Inactive)
REMARK    1  A    between atoms: C_2  and  C_4
REMARK    2  A    between atoms: N_8  and  C_9
REMARK    3  A    between atoms: C_9  and  C_10
REMARK    4  A    between atoms: C_14  and  C_15
REMARK                            x       y       z     vdW  Elec       q    Type
REMARK                         _______ _______ _______ _____ _____    ______ ____
ROOT
ATOM      1  C   UNL     1      47.566   8.163  13.339  0.00  0.00    +0.000 C 
ATOM      2  C   UNL     1      48.909   7.451  13.386  0.00  0.00    +0.000 C 
ATOM      3  C   UNL     1      48.499   8.305  14.538  0.00  0.00    +0.000 C 
ENDROOT
BRANCH   1   8
ATOM      4  C   UNL     1      44.725   4.541  10.958  0.00  0.00    +0.000 A 
ATOM      5  C   UNL     1      45.627   5.461  10.437  0.00  0.00    +0.000 A 
ATOM      6  C   UNL     1      46.179   6.423  11.283  0.00  0.00    +0.000 A 
ATOM      7  C   UNL     1      45.827   6.454  12.628  0.00  0.00    +0.000 A 
ATOM      8  N   UNL     1      46.331   7.396  13.526  0.00  0.00    +0.000 N 
ATOM      9  N   UNL     1      44.941   5.573  13.140  0.00  0.00    +0.000 NA
ATOM     10  C   UNL     1      44.402   4.648  12.302  0.00  0.00    +0.000 A 
ATOM     11  H   UNL     1      46.003   7.172  14.459  0.00  0.00    +0.000 HD
BRANCH   4  13
ATOM     12  N   UNL     1      44.092   3.657   8.787  0.00  0.00    +0.000 N 
ATOM     13  C   UNL     1      44.092   3.484  10.143  0.00  0.00    +0.000 C 
ATOM     14  O   UNL     1      43.613   2.482  10.656  0.00  0.00    +0.000 OA
ATOM     15  H   UNL     1      43.736   2.883   8.234  0.00  0.00    +0.000 HD
ATOM     16  H   UNL     1      44.662   4.342   8.315  0.00  0.00    +0.000 HD
ENDBRANCH   4  13
ENDBRANCH   1   8
BRANCH   1  17
ATOM     17  C   UNL     1      47.432   9.416  12.481  0.00  0.00    +0.000 A 
ATOM     18  C   UNL     1      48.552  10.044  11.906  0.00  0.00    +0.000 A 
ATOM     19  C   UNL     1      48.406  11.080  10.982  0.00  0.00    +0.000 A 
ATOM     20  C   UNL     1      47.136  11.516  10.615  0.00  0.00    +0.000 A 
ATOM     21  C   UNL     1      45.999  10.947  11.199  0.00  0.00    +0.000 A 
ATOM     22  C   UNL     1      46.168   9.924  12.137  0.00  0.00    +0.000 A 
BRANCH  21  23
ATOM     23  C   UNL     1      44.593  11.318  10.782  0.00  0.00    +0.000 C 
ATOM     24  C   UNL     1      43.588  10.958  11.888  0.00  0.00    +0.000 C 
ATOM     25  C   UNL     1      42.159  11.216  11.427  0.00  0.00    +0.000 C 
ATOM     26  C   UNL     1      41.912  10.565  10.073  0.00  0.00    +0.000 C 
ATOM     27  O   UNL     1      42.836  11.063   9.105  0.00  0.00    +0.000 OA
ATOM     28  C   UNL     1      44.186  10.718   9.433  0.00  0.00    +0.000 C 
ENDBRANCH  21  23
ENDBRANCH   1  17
TORSDOF 4
ENDMDL
MODEL 8
REMARK VINA RESULT:    -6.637      2.944      5.355
REMARK INTER + INTRA:          -8.542
REMARK INTER:                  -7.676
REMARK INTRA:                  -0.866
REMARK UNBOUND:                -0.352
REMARK  Name = 
REMARK  4 active torsions:
REMARK  status: ('A' for Active; 'I' for Inactive)
REMARK    1  A    between atoms: C_2  and  C_4
REMARK    2  A    between atoms: N_8  and  C_9
REMARK    3  A    between atoms: C_9  and  C_10
REMARK    4  A    between atoms: C_14  and  C_15
REMARK                            x       y       z     vdW  Elec       q    Type
REMARK                         _______ _______ _______ _____ _____    ______ ____
ROOT
ATOM      1  C   UNL     1      47.813   8.333  13.730  0.00  0.00    +0.000 C 
ATOM      2  C   UNL     1      48.666   7.374  14.546  0.00  0.00    +0.000 C 
ATOM      3  C   UNL     1      48.284   8.690  15.136  0.00  0.00    +0.000 C 
ENDROOT
BRANCH   1   8
ATOM      4  C   UNL     1      44.684   5.248  10.980  0.00  0.00    +0.000 A 
ATOM      5  C   UNL     1      45.979   5.681  10.716  0.00  0.00    +0.000 A 
ATOM      6  C   UNL     1      46.567   6.618  11.566  0.00  0.00    +0.000 A 
ATOM      7  C   UNL     1      45.862   7.107  12.660  0.00  0.00    +0.000 A 
ATOM      8  N   UNL     1      46.386   8.054  13.542  0.00  0.00    +0.000 N 
ATOM      9  N   UNL     1      44.600   6.704  12.916  0.00  0.00    +0.000 NA
ATOM     10  C   UNL     1      44.034   5.799  12.074  0.00  0.00    +0.000 A 
ATOM     11  H   UNL     1      45.731   8.194  14.303  0.00  0.00    +0.000 HD
BRANCH   4  13
ATOM     12  N   UNL     1      44.087   4.398   8.786  0.00  0.00    +0.000 N 
ATOM     13  C   UNL     1      43.979   4.258  10.142  0.00  0.00    +0.000 C 
ATOM     14  O   UNL     1      43.349   3.334  10.637  0.00  0.00    +0.000 OA
ATOM     15  H   UNL     1      43.675   3.660   8.223  0.00  0.00    +0.000 HD
ATOM     16  H   UNL     1      44.766   4.997   8.343  0.00  0.00    +0.000 HD
ENDBRANCH   4  13
ENDBRANCH   1   8
BRANCH   1  17
ATOM     17  C   UNL     1      48.474   9.130  12.612  0.00  0.00    +0.000 A 
ATOM     18  C   UNL     1      47.993  10.392  12.217  0.00  0.00    +0.000 A 
ATOM     19  C   UNL     1      48.705  11.190  11.320  0.00  0.00    +0.000 A 
ATOM     20  C   UNL     1      49.913  10.743  10.793  0.00  0.00    +0.000 A 
ATOM     21  C   UNL     1      50.402   9.475  11.126  0.00  0.00    +0.000 A 
ATOM     22  C   UNL     1      49.663   8.683  12.011  0.00  0.00    +0.000 A 
BRANCH  21  23
ATOM     23  C   UNL     1      51.746   8.966  10.653  0.00  0.00    +0.000 C 
ATOM     24  C   UNL     1      51.688   7.453  10.387  0.00  0.00    +0.000 C 
ATOM     25  C   UNL     1      53.066   6.913  10.029  0.00  0.00    +0.000 C 
ATOM     26  C   UNL     1      54.097   7.363  11.054  0.00  0.00    +0.000 C 
ATOM     27  O   UNL     1      54.134   8.789  11.130  0.00  0.00    +0.000 OA
ATOM     28  C   UNL     1      52.894   9.329  11.599  0.00  0.00    +0.000 C 
ENDBRANCH  21  23
ENDBRANCH   1  17
TORSDOF 4
ENDMDL
MODEL 9
REMARK VINA RESULT:    -6.573      4.833      8.558
REMARK INTER + INTRA:          -8.462
REMARK INTER:                  -7.866
REMARK INTRA:                  -0.597
REMARK UNBOUND:                -0.352
REMARK  Name = 
REMARK  4 active torsions:
REMARK  status: ('A' for Active; 'I' for Inactive)
REMARK    1  A    between atoms: C_2  and  C_4
REMARK    2  A    between atoms: N_8  and  C_9
REMARK    3  A    between atoms: C_9  and  C_10
REMARK    4  A    between atoms: C_14  and  C_15
REMARK                            x       y       z     vdW  Elec       q    Type
REMARK                         _______ _______ _______ _____ _____    ______ ____
ROOT
ATOM      1  C   UNL     1      48.436   8.187  14.013  0.00  0.00    +0.000 C 
ATOM      2  C   UNL     1      49.712   7.621  13.410  0.00  0.00    +0.000 C 
ATOM      3  C   UNL     1      49.401   9.068  13.227  0.00  0.00    +0.000 C 
ENDROOT
BRANCH   1   8
ATOM      4  C   UNL     1      49.154   5.629  18.463  0.00  0.00    +0.000 A 
ATOM      5  C   UNL     1      48.860   5.153  17.191  0.00  0.00    +0.000 A 
ATOM      6  C   UNL     1      48.592   6.066  16.171  0.00  0.00    +0.000 A 
ATOM      7  C   UNL     1      48.619   7.432  16.431  0.00  0.00    +0.000 A 
ATOM      8  N   UNL     1      48.348   8.398  15.461  0.00  0.00    +0.000 N 
ATOM      9  N   UNL     1      48.889   7.903  17.668  0.00  0.00    +0.000 NA
ATOM     10  C   UNL     1      49.139   7.002  18.655  0.00  0.00    +0.000 A 
ATOM     11  H   UNL     1      48.511   9.317  15.856  0.00  0.00    +0.000 HD
BRANCH   4  13
ATOM     12  N   UNL     1      48.528   3.787  19.916  0.00  0.00    +0.000 N 
ATOM     13  C   UNL     1      49.455   4.743  19.606  0.00  0.00    +0.000 C 
ATOM     14  O   UNL     1      50.502   4.838  20.231  0.00  0.00    +0.000 OA
ATOM     15  H   UNL     1      48.787   3.126  20.643  0.00  0.00    +0.000 HD
ATOM     16  H   UNL     1      47.770   3.529  19.301  0.00  0.00    +0.000 HD
ENDBRANCH   4  13
ENDBRANCH   1   8
BRANCH   1  17
ATOM     17  C   UNL     1      47.110   7.908  13.314  0.00  0.00    +0.000 A 
ATOM     18  C   UNL     1      46.346   8.939  12.737  0.00  0.00    +0.000 A 
ATOM     19  C   UNL     1      45.229   8.657  11.949  0.00  0.00    +0.000 A 
ATOM     20  C   UNL     1      44.846   7.339  11.723  0.00  0.00    +0.000 A 
ATOM     21  C   UNL     1      45.555   6.287  12.316  0.00  0.00    +0.000 A 
ATOM     22  C   UNL     1      46.658   6.592  13.119  0.00  0.00    +0.000 A 
BRANCH  21  23
ATOM     23  C   UNL     1      45.240   4.833  12.044  0.00  0.00    +0.000 C 
ATOM     24  C   UNL     1      44.769   4.645  10.593  0.00  0.00    +0.000 C 
ATOM     25  C   UNL     1      44.334   3.206  10.346  0.00  0.00    +0.000 C 
ATOM     26  C   UNL     1      43.355   2.755  11.421  0.00  0.00    +0.000 C 
ATOM     27  O   UNL     1      43.948   2.873  12.715  0.00  0.00    +0.000 OA
ATOM     28  C   UNL     1      44.245   4.235  13.042  0.00  0.00    +0.000 C 
ENDBRANCH  21  23
ENDBRANCH   1  17
TORSDOF 4
ENDMDL
