MODEL 1
REMARK VINA RESULT:    -7.730      0.000      0.000
REMARK INTER + INTRA:          -9.582
REMARK INTER:                  -9.086
REMARK INTRA:                  -0.496
REMARK UNBOUND:                -0.496
REMARK  Name = 
REMARK  3 active torsions:
REMARK  status: ('A' for Active; 'I' for Inactive)
REMARK    1  A    between atoms: C_2  and  C_4
REMARK    2  A    between atoms: N_8  and  C_9
REMARK    3  A    between atoms: C_9  and  C_10
REMARK                            x       y       z     vdW  Elec       q    Type
REMARK                         _______ _______ _______ _____ _____    ______ ____
ROOT
ATOM      1  C   UNL     1      46.463   2.919   7.383  0.00  0.00    +0.000 A 
ATOM      2  C   UNL     1      45.891   1.832   8.035  0.00  0.00    +0.000 A 
ATOM      3  C   UNL     1      45.151   2.053   9.198  0.00  0.00    +0.000 A 
ATOM      4  C   UNL     1      44.997   3.350   9.694  0.00  0.00    +0.000 A 
ATOM      5  N   UNL     1      44.209   3.503  10.861  0.00  0.00    +0.000 N 
ATOM      6  N   UNL     1      45.533   4.409   9.055  0.00  0.00    +0.000 NA
ATOM      7  C   UNL     1      46.273   4.175   7.938  0.00  0.00    +0.000 A 
ATOM      8  H   UNL     1      44.391   2.735  11.499  0.00  0.00    +0.000 HD
ENDROOT
BRANCH   1  10
ATOM      9  N   UNL     1      48.601   2.483   6.320  0.00  0.00    +0.000 N 
ATOM     10  C   UNL     1      47.273   2.775   6.157  0.00  0.00    +0.000 C 
ATOM     11  O   UNL     1      46.776   2.875   5.042  0.00  0.00    +0.000 OA
ATOM     12  H   UNL     1      49.132   2.298   5.480  0.00  0.00    +0.000 HD
ATOM     13  H   UNL     1      48.978   2.139   7.193  0.00  0.00    +0.000 HD
ENDBRANCH   1  10
BRANCH   5  14
ATOM     14  C   UNL     1      44.028   4.817  11.530  0.00  0.00    +0.000 C 
ATOM     15  C   UNL     1      42.574   5.101  11.885  0.00  0.00    +0.000 C 
ATOM     16  C   UNL     1      43.266   5.948  10.868  0.00  0.00    +0.000 C 
BRANCH  14  17
ATOM     17  C   UNL     1      45.107   5.244  12.536  0.00  0.00    +0.000 C 
ATOM     18  C   UNL     1      46.102   6.246  11.938  0.00  0.00    +0.000 C 
ATOM     19  C   UNL     1      47.158   6.632  12.959  0.00  0.00    +0.000 C 
ATOM     20  O   UNL     1      47.831   5.471  13.446  0.00  0.00    +0.000 OA
ATOM     21  C   UNL     1      46.941   4.566  14.099  0.00  0.00    +0.000 C 
ATOM     22  C   UNL     1      45.872   4.059  13.136  0.00  0.00    +0.000 C 
ENDBRANCH  14  17
ENDBRANCH   5  14
TORSDOF 3
ENDMDL
MODEL 2
REMARK VINA RESULT:    -6.406      1.282      1.649
REMARK INTER + INTRA:          -8.026
REMARK INTER:                  -8.796
REMARK INTRA:                   0.770
REMARK UNBOUND:                -0.496
REMARK  Name = 
REMARK  3 active torsions:
REMARK  status: ('A' for Active; 'I' for Inactive)
REMARK    1  A    between atoms: C_2  and  C_4
REMARK    2  A    between atoms: N_8  and  C_9
REMARK    3  A    between atoms: C_9  and  C_10
REMARK                            x       y       z     vdW  Elec       q    Type
REMARK                         _______ _______ _______ _____ _____    ______ ____
ROOT
ATOM      1  C   UNL     1      46.402   2.180   7.857  0.00  0.00    +0.000 A 
ATOM      2  C   UNL     1      46.282   3.427   7.251  0.00  0.00    +0.000 A 
ATOM      3  C   UNL     1      45.698   4.474   7.966  0.00  0.00    +0.000 A 
ATOM      4  C   UNL     1      45.240   4.262   9.268  0.00  0.00    +0.000 A 
ATOM      5  N   UNL     1      44.686   5.376   9.945  0.00  0.00    +0.000 N 
ATOM      6  N   UNL     1      45.371   3.061   9.867  0.00  0.00    +0.000 NA
ATOM      7  C   UNL     1      45.918   2.043   9.149  0.00  0.00    +0.000 A 
ATOM      8  H   UNL     1      44.134   5.929   9.297  0.00  0.00    +0.000 HD
ENDROOT
BRANCH   1  10
ATOM      9  N   UNL     1      46.650  -0.225   7.641  0.00  0.00    +0.000 N 
ATOM     10  C   UNL     1      46.991   1.014   7.169  0.00  0.00    +0.000 C 
ATOM     11  O   UNL     1      47.724   1.145   6.196  0.00  0.00    +0.000 OA
ATOM     12  H   UNL     1      46.984  -1.020   7.113  0.00  0.00    +0.000 HD
ATOM     13  H   UNL     1      45.861  -0.373   8.255  0.00  0.00    +0.000 HD
ENDBRANCH   1  10
BRANCH   5  14
ATOM     14  C   UNL     1      44.097   5.267  11.304  0.00  0.00    +0.000 C 
ATOM     15  C   UNL     1      43.008   4.205  11.390  0.00  0.00    +0.000 C 
ATOM     16  C   UNL     1      42.654   5.644  11.579  0.00  0.00    +0.000 C 
BRANCH  14  17
ATOM     17  C   UNL     1      45.056   5.406  12.495  0.00  0.00    +0.000 C 
ATOM     18  C   UNL     1      46.190   6.401  12.222  0.00  0.00    +0.000 C 
ATOM     19  C   UNL     1      47.123   6.498  13.417  0.00  0.00    +0.000 C 
ATOM     20  O   UNL     1      47.641   5.211  13.753  0.00  0.00    +0.000 OA
ATOM     21  C   UNL     1      46.609   4.292  14.112  0.00  0.00    +0.000 C 
ATOM     22  C   UNL     1      45.648   4.067  12.948  0.00  0.00    +0.000 C 
ENDBRANCH  14  17
ENDBRANCH   5  14
TORSDOF 3
ENDMDL
MODEL 3
REMARK VINA RESULT:    -6.369      2.555      6.160
REMARK INTER + INTRA:          -7.982
REMARK INTER:                  -7.751
REMARK INTRA:                  -0.231
REMARK UNBOUND:                -0.496
REMARK  Name = 
REMARK  3 active torsions:
REMARK  status: ('A' for Active; 'I' for Inactive)
REMARK    1  A    between atoms: C_2  and  C_4
REMARK    2  A    between atoms: N_8  and  C_9
REMARK    3  A    between atoms: C_9  and  C_10
REMARK                            x       y       z     vdW  Elec       q    Type
REMARK                         _______ _______ _______ _____ _____    ______ ____
ROOT
ATOM      1  C   UNL     1      48.221   6.772  13.621  0.00  0.00    +0.000 A 
ATOM      2  C   UNL     1      47.952   7.777  12.697  0.00  0.00    +0.000 A 
ATOM      3  C   UNL     1      46.848   7.644  11.854  0.00  0.00    +0.000 A 
ATOM      4  C   UNL     1      46.033   6.512  11.941  0.00  0.00    +0.000 A 
ATOM      5  N   UNL     1      44.913   6.457  11.075  0.00  0.00    +0.000 N 
ATOM      6  N   UNL     1      46.278   5.545  12.848  0.00  0.00    +0.000 NA
ATOM      7  C   UNL     1      47.372   5.676  13.645  0.00  0.00    +0.000 A 
ATOM      8  H   UNL     1      45.166   6.830  10.166  0.00  0.00    +0.000 HD
ENDROOT
BRANCH   1  10
ATOM      9  N   UNL     1      50.441   7.594  14.156  0.00  0.00    +0.000 N 
ATOM     10  C   UNL     1      49.375   6.825  14.540  0.00  0.00    +0.000 C 
ATOM     11  O   UNL     1      49.369   6.237  15.614  0.00  0.00    +0.000 OA
ATOM     12  H   UNL     1      51.191   7.698  14.827  0.00  0.00    +0.000 HD
ATOM     13  H   UNL     1      50.374   8.286  13.423  0.00  0.00    +0.000 HD
ENDBRANCH   1  10
BRANCH   5  14
ATOM     14  C   UNL     1      44.012   5.278  11.017  0.00  0.00    +0.000 C 
ATOM     15  C   UNL     1      42.575   5.617  11.398  0.00  0.00    +0.000 C 
ATOM     16  C   UNL     1      43.375   4.702  12.267  0.00  0.00    +0.000 C 
BRANCH  14  17
ATOM     17  C   UNL     1      44.232   4.285   9.867  0.00  0.00    +0.000 C 
ATOM     18  C   UNL     1      44.431   2.848  10.363  0.00  0.00    +0.000 C 
ATOM     19  C   UNL     1      44.659   1.901   9.198  0.00  0.00    +0.000 C 
ATOM     20  O   UNL     1      45.772   2.331   8.414  0.00  0.00    +0.000 OA
ATOM     21  C   UNL     1      45.568   3.628   7.854  0.00  0.00    +0.000 C 
ATOM     22  C   UNL     1      45.396   4.676   8.950  0.00  0.00    +0.000 C 
ENDBRANCH  14  17
ENDBRANCH   5  14
TORSDOF 3
ENDMDL
MODEL 4
REMARK VINA RESULT:    -5.205      2.333      3.415
REMARK INTER + INTRA:          -6.614
REMARK INTER:                  -6.202
REMARK INTRA:                  -0.413
REMARK UNBOUND:                -0.496
REMARK  Name = 
REMARK  3 active torsions:
REMARK  status: ('A' for Active; 'I' for Inactive)
REMARK    1  A    between atoms: C_2  and  C_4
REMARK    2  A    between atoms: N_8  and  C_9
REMARK    3  A    between atoms: C_9  and  C_10
REMARK                            x       y       z     vdW  Elec       q    Type
REMARK                         _______ _______ _______ _____ _____    ______ ____
ROOT
ATOM      1  C   UNL     1      44.746   3.960   9.611  0.00  0.00    +0.000 A 
ATOM      2  C   UNL     1      43.788   3.963  10.620  0.00  0.00    +0.000 A 
ATOM      3  C   UNL     1      43.746   5.037  11.510  0.00  0.00    +0.000 A 
ATOM      4  C   UNL     1      44.659   6.087  11.384  0.00  0.00    +0.000 A 
ATOM      5  N   UNL     1      44.540   7.158  12.303  0.00  0.00    +0.000 N 
ATOM      6  N   UNL     1      45.577   6.098  10.397  0.00  0.00    +0.000 NA
ATOM      7  C   UNL     1      45.623   5.032   9.553  0.00  0.00    +0.000 A 
ATOM      8  H   UNL     1      44.309   6.795  13.222  0.00  0.00    +0.000 HD
ENDROOT
BRANCH   1  10
ATOM      9  N   UNL     1      45.331   3.180   7.388  0.00  0.00    +0.000 N 
ATOM     10  C   UNL     1      44.872   2.858   8.637  0.00  0.00    +0.000 C 
ATOM     11  O   UNL     1      44.614   1.699   8.940  0.00  0.00    +0.000 OA
ATOM     12  H   UNL     1      45.499   2.411   6.754  0.00  0.00    +0.000 HD
ATOM     13  H   UNL     1      45.794   4.057   7.190  0.00  0.00    +0.000 HD
ENDBRANCH   1  10
BRANCH   5  14
ATOM     14  C   UNL     1      45.492   8.298  12.323  0.00  0.00    +0.000 C 
ATOM     15  C   UNL     1      44.804   9.635  12.567  0.00  0.00    +0.000 C 
ATOM     16  C   UNL     1      45.469   9.373  11.255  0.00  0.00    +0.000 C 
BRANCH  14  17
ATOM     17  C   UNL     1      46.852   8.060  12.995  0.00  0.00    +0.000 C 
ATOM     18  C   UNL     1      48.020   8.167  12.007  0.00  0.00    +0.000 C 
ATOM     19  C   UNL     1      49.344   7.912  12.707  0.00  0.00    +0.000 C 
ATOM     20  O   UNL     1      49.333   6.638  13.350  0.00  0.00    +0.000 OA
ATOM     21  C   UNL     1      48.317   6.548  14.350  0.00  0.00    +0.000 C 
ATOM     22  C   UNL     1      46.931   6.721  13.737  0.00  0.00    +0.000 C 
ENDBRANCH  14  17
ENDBRANCH   5  14
TORSDOF 3
ENDMDL
MODEL 5
REMARK VINA RESULT:    -5.156      3.450      5.414
REMARK INTER + INTRA:          -6.556
REMARK INTER:                  -6.951
REMARK INTRA:                   0.395
REMARK UNBOUND:                -0.496
REMARK  Name = 
REMARK  3 active torsions:
REMARK  status: ('A' for Active; 'I' for Inactive)
REMARK    1  A    between atoms: C_2  and  C_4
REMARK    2  A    between atoms: N_8  and  C_9
REMARK    3  A    between atoms: C_9  and  C_10
REMARK                            x       y       z     vdW  Elec       q    Type
REMARK                         _______ _______ _______ _____ _____    ______ ____
ROOT
ATOM      1  C   UNL     1      44.841   3.934  11.628  0.00  0.00    +0.000 A 
ATOM      2  C   UNL     1      45.109   3.897  12.993  0.00  0.00    +0.000 A 
ATOM      3  C   UNL     1      45.850   4.931  13.566  0.00  0.00    +0.000 A 
ATOM      4  C   UNL     1      46.317   5.981  12.771  0.00  0.00    +0.000 A 
ATOM      5  N   UNL     1      47.037   7.012  13.423  0.00  0.00    +0.000 N 
ATOM      6  N   UNL     1      46.045   6.031  11.451  0.00  0.00    +0.000 NA
ATOM      7  C   UNL     1      45.343   5.003  10.903  0.00  0.00    +0.000 A 
ATOM      8  H   UNL     1      47.638   6.611  14.135  0.00  0.00    +0.000 HD
ENDROOT
BRANCH   1  10
ATOM      9  N   UNL     1      44.635   2.346   9.804  0.00  0.00    +0.000 N 
ATOM     10  C   UNL     1      44.079   2.874  10.939  0.00  0.00    +0.000 C 
ATOM     11  O   UNL     1      43.014   2.458  11.378  0.00  0.00    +0.000 OA
ATOM     12  H   UNL     1      44.153   1.561   9.386  0.00  0.00    +0.000 HD
ATOM     13  H   UNL     1      45.609   2.473   9.568  0.00  0.00    +0.000 HD
ENDBRANCH   1  10
BRANCH   5  14
ATOM     14  C   UNL     1      47.649   8.145  12.682  0.00  0.00    +0.000 C 
ATOM     15  C   UNL     1      48.904   7.739  11.919  0.00  0.00    +0.000 C 
ATOM     16  C   UNL     1      49.009   8.700  13.058  0.00  0.00    +0.000 C 
BRANCH  14  17
ATOM     17  C   UNL     1      46.691   9.137  12.007  0.00  0.00    +0.000 C 
ATOM     18  C   UNL     1      47.254  10.563  11.972  0.00  0.00    +0.000 C 
ATOM     19  C   UNL     1      46.273  11.515  11.310  0.00  0.00    +0.000 C 
ATOM     20  O   UNL     1      45.012  11.479  11.980  0.00  0.00    +0.000 OA
ATOM     21  C   UNL     1      44.417  10.182  11.938  0.00  0.00    +0.000 C 
ATOM     22  C   UNL     1      45.297   9.154  12.643  0.00  0.00    +0.000 C 
ENDBRANCH  14  17
ENDBRANCH   5  14
TORSDOF 3
ENDMDL
MODEL 6
REMARK VINA RESULT:    -5.103      3.880      5.732
REMARK INTER + INTRA:          -6.494
REMARK INTER:                  -5.985
REMARK INTRA:                  -0.509
REMARK UNBOUND:                -0.496
REMARK  Name = 
REMARK  3 active torsions:
REMARK  status: ('A' for Active; 'I' for Inactive)
REMARK    1  A    between atoms: C_2  and  C_4
REMARK    2  A    between atoms: N_8  and  C_9
REMARK    3  A    between atoms: C_9  and  C_10
REMARK                            x       y       z     vdW  Elec       q    Type
REMARK                         _______ _______ _______ _____ _____    ______ ____
ROOT
ATOM      1  C   UNL     1      44.671   5.008  11.956  0.00  0.00    +0.000 A 
ATOM      2  C   UNL     1      44.096   6.268  11.828  0.00  0.00    +0.000 A 
ATOM      3  C   UNL     1      44.914   7.396  11.907  0.00  0.00    +0.000 A 
ATOM      4  C   UNL     1      46.287   7.252  12.118  0.00  0.00    +0.000 A 
ATOM      5  N   UNL     1      47.061   8.438  12.158  0.00  0.00    +0.000 N 
ATOM      6  N   UNL     1      46.852   6.032  12.224  0.00  0.00    +0.000 NA
ATOM      7  C   UNL     1      46.039   4.943  12.171  0.00  0.00    +0.000 A 
ATOM      8  H   UNL     1      46.547   9.164  12.647  0.00  0.00    +0.000 HD
ENDROOT
BRANCH   1  10
ATOM      9  N   UNL     1      44.411   2.659  12.511  0.00  0.00    +0.000 N 
ATOM     10  C   UNL     1      43.879   3.763  11.901  0.00  0.00    +0.000 C 
ATOM     11  O   UNL     1      42.778   3.725  11.366  0.00  0.00    +0.000 OA
ATOM     12  H   UNL     1      43.827   1.834  12.547  0.00  0.00    +0.000 HD
ATOM     13  H   UNL     1      45.172   2.720  13.174  0.00  0.00    +0.000 HD
ENDBRANCH   1  10
BRANCH   5  14
ATOM     14  C   UNL     1      48.517   8.426  12.447  0.00  0.00    +0.000 C 
ATOM     15  C   UNL     1      49.319   9.274  11.466  0.00  0.00    +0.000 C 
ATOM     16  C   UNL     1      49.513   7.793  11.495  0.00  0.00    +0.000 C 
BRANCH  14  17
ATOM     17  C   UNL     1      48.938   8.453  13.924  0.00  0.00    +0.000 C 
ATOM     18  C   UNL     1      49.337   7.067  14.444  0.00  0.00    +0.000 C 
ATOM     19  C   UNL     1      49.732   7.134  15.910  0.00  0.00    +0.000 C 
ATOM     20  O   UNL     1      48.671   7.687  16.689  0.00  0.00    +0.000 OA
ATOM     21  C   UNL     1      48.348   9.019  16.290  0.00  0.00    +0.000 C 
ATOM     22  C   UNL     1      47.868   9.055  14.842  0.00  0.00    +0.000 C 
ENDBRANCH  14  17
ENDBRANCH   5  14
TORSDOF 3
ENDMDL
MODEL 7
REMARK VINA RESULT:    -4.951      3.279      5.196
REMARK INTER + INTRA:          -6.316
REMARK INTER:                  -6.687
REMARK INTRA:                   0.371
REMARK UNBOUND:                -0.496
REMARK  Name = 
REMARK  3 active torsions:
REMARK  status: ('A' for Active; 'I' for Inactive)
REMARK    1  A    between atoms: C_2  and  C_4
REMARK    2  A    between atoms: N_8  and  C_9
REMARK    3  A    between atoms: C_9  and  C_10
REMARK                            x       y       z     vdW  Elec       q    Type
REMARK                         _______ _______ _______ _____ _____    ______ ____
ROOT
ATOM      1  C   UNL     1      45.030   4.414  11.136  0.00  0.00    +0.000 A 
ATOM      2  C   UNL     1      45.238   3.872  12.400  0.00  0.00    +0.000 A 
ATOM      3  C   UNL     1      46.025   4.571  13.316  0.00  0.00    +0.000 A 
ATOM      4  C   UNL     1      46.597   5.795  12.957  0.00  0.00    +0.000 A 
ATOM      5  N   UNL     1      47.359   6.464  13.946  0.00  0.00    +0.000 N 
ATOM      6  N   UNL     1      46.383   6.334  11.740  0.00  0.00    +0.000 NA
ATOM      7  C   UNL     1      45.635   5.628  10.849  0.00  0.00    +0.000 A 
ATOM      8  H   UNL     1      47.901   5.788  14.474  0.00  0.00    +0.000 HD
ENDROOT
BRANCH   1  10
ATOM      9  N   UNL     1      44.092   4.374   8.897  0.00  0.00    +0.000 N 
ATOM     10  C   UNL     1      44.225   3.735  10.101  0.00  0.00    +0.000 C 
ATOM     11  O   UNL     1      43.727   2.633  10.295  0.00  0.00    +0.000 OA
ATOM     12  H   UNL     1      43.615   3.866   8.164  0.00  0.00    +0.000 HD
ATOM     13  H   UNL     1      44.694   5.137   8.619  0.00  0.00    +0.000 HD
ENDBRANCH   1  10
BRANCH   5  14
ATOM     14  C   UNL     1      48.078   7.734  13.669  0.00  0.00    +0.000 C 
ATOM     15  C   UNL     1      47.841   8.790  14.742  0.00  0.00    +0.000 C 
ATOM     16  C   UNL     1      47.335   9.017  13.355  0.00  0.00    +0.000 C 
BRANCH  14  17
ATOM     17  C   UNL     1      49.490   7.623  13.075  0.00  0.00    +0.000 C 
ATOM     18  C   UNL     1      50.474   8.608  13.715  0.00  0.00    +0.000 C 
ATOM     19  C   UNL     1      51.853   8.477  13.091  0.00  0.00    +0.000 C 
ATOM     20  O   UNL     1      51.782   8.670  11.678  0.00  0.00    +0.000 OA
ATOM     21  C   UNL     1      50.951   7.700  11.043  0.00  0.00    +0.000 C 
ATOM     22  C   UNL     1      49.515   7.793  11.551  0.00  0.00    +0.000 C 
ENDBRANCH  14  17
ENDBRANCH   5  14
TORSDOF 3
ENDMDL
MODEL 8
REMARK VINA RESULT:    -4.762      4.481      7.211
REMARK INTER + INTRA:          -6.094
REMARK INTER:                  -5.591
REMARK INTRA:                  -0.503
REMARK UNBOUND:                -0.496
REMARK  Name = 
REMARK  3 active torsions:
REMARK  status: ('A' for Active; 'I' for Inactive)
REMARK    1  A    between atoms: C_2  and  C_4
REMARK    2  A    between atoms: N_8  and  C_9
REMARK    3  A    between atoms: C_9  and  C_10
REMARK                            x       y       z     vdW  Elec       q    Type
REMARK                         _______ _______ _______ _____ _____    ______ ____
ROOT
ATOM      1  C   UNL     1      46.485   5.072  13.127  0.00  0.00    +0.000 A 
ATOM      2  C   UNL     1      46.891   6.225  12.463  0.00  0.00    +0.000 A 
ATOM      3  C   UNL     1      47.860   7.039  13.051  0.00  0.00    +0.000 A 
ATOM      4  C   UNL     1      48.404   6.696  14.291  0.00  0.00    +0.000 A 
ATOM      5  N   UNL     1      49.403   7.552  14.815  0.00  0.00    +0.000 N 
ATOM      6  N   UNL     1      48.027   5.570  14.930  0.00  0.00    +0.000 NA
ATOM      7  C   UNL     1      47.064   4.800  14.357  0.00  0.00    +0.000 A 
ATOM      8  H   UNL     1      49.163   8.518  14.618  0.00  0.00    +0.000 HD
ENDROOT
BRANCH   1  10
ATOM      9  N   UNL     1      45.687   2.818  12.707  0.00  0.00    +0.000 N 
ATOM     10  C   UNL     1      45.456   4.162  12.585  0.00  0.00    +0.000 C 
ATOM     11  O   UNL     1      44.423   4.587  12.081  0.00  0.00    +0.000 OA
ATOM     12  H   UNL     1      44.941   2.201  12.415  0.00  0.00    +0.000 HD
ATOM     13  H   UNL     1      46.382   2.442  13.337  0.00  0.00    +0.000 HD
ENDBRANCH   1  10
BRANCH   5  14
ATOM     14  C   UNL     1      50.008   7.340  16.155  0.00  0.00    +0.000 C 
ATOM     15  C   UNL     1      51.531   7.390  16.127  0.00  0.00    +0.000 C 
ATOM     16  C   UNL     1      50.839   6.111  16.467  0.00  0.00    +0.000 C 
BRANCH  14  17
ATOM     17  C   UNL     1      49.294   7.979  17.354  0.00  0.00    +0.000 C 
ATOM     18  C   UNL     1      48.487   6.960  18.167  0.00  0.00    +0.000 C 
ATOM     19  C   UNL     1      47.785   7.633  19.334  0.00  0.00    +0.000 C 
ATOM     20  O   UNL     1      46.950   8.694  18.871  0.00  0.00    +0.000 OA
ATOM     21  C   UNL     1      47.693   9.710  18.198  0.00  0.00    +0.000 C 
ATOM     22  C   UNL     1      48.387   9.150  16.959  0.00  0.00    +0.000 C 
ENDBRANCH  14  17
ENDBRANCH   5  14
TORSDOF 3
ENDMDL
