MODEL 1
REMARK VINA RESULT:    -7.019      0.000      0.000
REMARK INTER + INTRA:         -10.583
REMARK INTER:                  -9.686
REMARK INTRA:                  -0.897
REMARK UNBOUND:                -0.897
REMARK  Name = 
REMARK  7 active torsions:
REMARK  status: ('A' for Active; 'I' for Inactive)
REMARK    1  A    between atoms: N_1  and  C_2
REMARK    2  A    between atoms: C_2  and  C_3
REMARK    3  A    between atoms: C_2  and  C_17
REMARK    4  A    between atoms: C_3  and  N_4
REMARK    5  A    between atoms: N_7  and  C_8
REMARK    6  A    between atoms: C_8  and  C_9
REMARK    7  A    between atoms: C_9  and  C_10
REMARK                            x       y       z     vdW  Elec       q    Type
REMARK                         _______ _______ _______ _____ _____    ______ ____
ROOT
ATOM      1  C   UNL     1      46.976   4.540  14.992  0.00  0.00    +0.000 C 
ENDROOT
BRANCH   1   2
ATOM      2  C   UNL     1      47.920   5.161  16.003  0.00  0.00    +0.000 A 
ATOM      3  C   UNL     1      48.647   6.325  15.791  0.00  0.00    +0.000 A 
ATOM      4  S   UNL     1      49.622   6.763  17.120  0.00  0.00    +0.000 S 
ATOM      5  C   UNL     1      49.092   5.423  18.028  0.00  0.00    +0.000 A 
ATOM      6  N   UNL     1      49.555   5.196  19.286  0.00  0.00    +0.000 NA
ATOM      7  C   UNL     1      49.055   4.148  19.855  0.00  0.00    +0.000 A 
ATOM      8  N   UNL     1      48.126   3.316  19.286  0.00  0.00    +0.000 N 
ATOM      9  C   UNL     1      47.606   3.517  18.028  0.00  0.00    +0.000 A 
ATOM     10  O   UNL     1      46.730   2.786  17.579  0.00  0.00    +0.000 OA
ATOM     11  C   UNL     1      48.167   4.664  17.334  0.00  0.00    +0.000 A 
ATOM     12  H   UNL     1      47.754   2.529  19.796  0.00  0.00    +0.000 HD
ENDBRANCH   1   2
BRANCH   1  13
ATOM     13  N   UNL     1      47.541   3.250  14.585  0.00  0.00    +0.000 NA
ATOM     14  H   UNL     1      48.017   2.829  15.379  0.00  0.00    +0.000 HD
ATOM     15  H   UNL     1      48.231   3.387  13.852  0.00  0.00    +0.000 HD
ENDBRANCH   1  13
BRANCH   1  16
ATOM     16  C   UNL     1      46.707   5.526  13.812  0.00  0.00    +0.000 C 
BRANCH  16  17
ATOM     17  N   UNL     1      45.338   5.579  13.250  0.00  0.00    +0.000 NA
ATOM     18  C   UNL     1      44.885   4.213  12.902  0.00  0.00    +0.000 C 
ATOM     19  C   UNL     1      45.595   3.604  11.664  0.00  0.00    +0.000 C 
ATOM     20  N   UNL     1      45.526   4.443  10.443  0.00  0.00    +0.000 NA
ATOM     21  C   UNL     1      45.954   5.820  10.794  0.00  0.00    +0.000 C 
ATOM     22  C   UNL     1      45.250   6.422  12.037  0.00  0.00    +0.000 C 
BRANCH  20  23
ATOM     23  C   UNL     1      44.158   4.397   9.887  0.00  0.00    +0.000 C 
BRANCH  23  24
ATOM     24  C   UNL     1      44.109   3.999   8.414  0.00  0.00    +0.000 C 
BRANCH  24  25
ATOM     25  C   UNL     1      45.311   3.161   8.094  0.00  0.00    +0.000 C 
ATOM     26  N   UNL     1      45.336   1.878   8.354  0.00  0.00    +0.000 NA
ATOM     27  C   UNL     1      46.677   1.444   7.865  0.00  0.00    +0.000 C 
ATOM     28  C   UNL     1      47.195   2.585   6.983  0.00  0.00    +0.000 C 
ATOM     29  N   UNL     1      46.425   3.692   7.498  0.00  0.00    +0.000 N 
ATOM     30  H   UNL     1      46.305   4.508   6.910  0.00  0.00    +0.000 HD
ENDBRANCH  24  25
ENDBRANCH  23  24
ENDBRANCH  20  23
ENDBRANCH  16  17
ENDBRANCH   1  16
TORSDOF 7
ENDMDL
MODEL 2
REMARK VINA RESULT:    -6.503      1.632      2.301
REMARK INTER + INTRA:          -9.872
REMARK INTER:                  -9.147
REMARK INTRA:                  -0.725
REMARK UNBOUND:                -0.897
REMARK  Name = 
REMARK  7 active torsions:
REMARK  status: ('A' for Active; 'I' for Inactive)
REMARK    1  A    between atoms: N_1  and  C_2
REMARK    2  A    between atoms: C_2  and  C_3
REMARK    3  A    between atoms: C_2  and  C_17
REMARK    4  A    between atoms: C_3  and  N_4
REMARK    5  A    between atoms: N_7  and  C_8
REMARK    6  A    between atoms: C_8  and  C_9
REMARK    7  A    between atoms: C_9  and  C_10
REMARK                            x       y       z     vdW  Elec       q    Type
REMARK                         _______ _______ _______ _____ _____    ______ ____
ROOT
ATOM      1  C   UNL     1      48.215   6.192  13.734  0.00  0.00    +0.000 C 
ENDROOT
BRANCH   1   2
ATOM      2  C   UNL     1      48.447   6.476  15.206  0.00  0.00    +0.000 A 
ATOM      3  C   UNL     1      48.802   7.714  15.723  0.00  0.00    +0.000 A 
ATOM      4  S   UNL     1      48.993   7.708  17.418  0.00  0.00    +0.000 S 
ATOM      5  C   UNL     1      48.590   6.056  17.518  0.00  0.00    +0.000 A 
ATOM      6  N   UNL     1      48.570   5.406  18.712  0.00  0.00    +0.000 NA
ATOM      7  C   UNL     1      48.236   4.160  18.633  0.00  0.00    +0.000 A 
ATOM      8  N   UNL     1      47.909   3.508  17.472  0.00  0.00    +0.000 N 
ATOM      9  C   UNL     1      47.888   4.126  16.243  0.00  0.00    +0.000 A 
ATOM     10  O   UNL     1      47.529   3.526  15.235  0.00  0.00    +0.000 OA
ATOM     11  C   UNL     1      48.294   5.522  16.277  0.00  0.00    +0.000 A 
ATOM     12  H   UNL     1      47.630   2.539  17.482  0.00  0.00    +0.000 HD
ENDBRANCH   1   2
BRANCH   1  13
ATOM     13  N   UNL     1      49.395   6.653  12.997  0.00  0.00    +0.000 NA
ATOM     14  H   UNL     1      49.543   6.048  12.193  0.00  0.00    +0.000 HD
ATOM     15  H   UNL     1      50.221   6.588  13.585  0.00  0.00    +0.000 HD
ENDBRANCH   1  13
BRANCH   1  16
ATOM     16  C   UNL     1      46.869   6.826  13.258  0.00  0.00    +0.000 C 
BRANCH  16  17
ATOM     17  N   UNL     1      46.269   6.318  12.003  0.00  0.00    +0.000 NA
ATOM     18  C   UNL     1      44.887   6.832  11.864  0.00  0.00    +0.000 C 
ATOM     19  C   UNL     1      43.872   6.198  12.852  0.00  0.00    +0.000 C 
ATOM     20  N   UNL     1      43.824   4.716  12.816  0.00  0.00    +0.000 NA
ATOM     21  C   UNL     1      45.210   4.199  12.928  0.00  0.00    +0.000 C 
ATOM     22  C   UNL     1      46.224   4.840  11.947  0.00  0.00    +0.000 C 
BRANCH  20  23
ATOM     23  C   UNL     1      43.149   4.273  11.579  0.00  0.00    +0.000 C 
BRANCH  23  24
ATOM     24  C   UNL     1      43.485   2.838  11.179  0.00  0.00    +0.000 C 
BRANCH  24  25
ATOM     25  C   UNL     1      44.214   2.853   9.867  0.00  0.00    +0.000 C 
ATOM     26  N   UNL     1      44.281   3.938   9.138  0.00  0.00    +0.000 NA
ATOM     27  C   UNL     1      45.097   3.522   7.960  0.00  0.00    +0.000 C 
ATOM     28  C   UNL     1      45.755   2.195   8.350  0.00  0.00    +0.000 C 
ATOM     29  N   UNL     1      44.855   1.743   9.384  0.00  0.00    +0.000 N 
ATOM     30  H   UNL     1      45.195   1.063  10.053  0.00  0.00    +0.000 HD
ENDBRANCH  24  25
ENDBRANCH  23  24
ENDBRANCH  20  23
ENDBRANCH  16  17
ENDBRANCH   1  16
TORSDOF 7
ENDMDL
MODEL 3
REMARK VINA RESULT:    -6.239      1.632      2.436
REMARK INTER + INTRA:          -9.507
REMARK INTER:                  -8.876
REMARK INTRA:                  -0.631
REMARK UNBOUND:                -0.897
REMARK  Name = 
REMARK  7 active torsions:
REMARK  status: ('A' for Active; 'I' for Inactive)
REMARK    1  A    between atoms: N_1  and  C_2
REMARK    2  A    between atoms: C_2  and  C_3
REMARK    3  A    between atoms: C_2  and  C_17
REMARK    4  A    between atoms: C_3  and  N_4
REMARK    5  A    between atoms: N_7  and  C_8
REMARK    6  A    between atoms: C_8  and  C_9
REMARK    7  A    between atoms: C_9  and  C_10
REMARK                            x       y       z     vdW  Elec       q    Type
REMARK                         _______ _______ _______ _____ _____    ______ ____
ROOT
ATOM      1  C   UNL     1      47.942   3.771  16.487  0.00  0.00    +0.000 C 
ENDROOT
BRANCH   1   2
ATOM      2  C   UNL     1      48.973   4.303  17.464  0.00  0.00    +0.000 A 
ATOM      3  C   UNL     1      50.345   4.134  17.332  0.00  0.00    +0.000 A 
ATOM      4  S   UNL     1      51.237   4.848  18.599  0.00  0.00    +0.000 S 
ATOM      5  C   UNL     1      49.822   5.420  19.354  0.00  0.00    +0.000 A 
ATOM      6  N   UNL     1      49.878   6.124  20.516  0.00  0.00    +0.000 NA
ATOM      7  C   UNL     1      48.726   6.501  20.965  0.00  0.00    +0.000 A 
ATOM      8  N   UNL     1      47.526   6.250  20.352  0.00  0.00    +0.000 N 
ATOM      9  C   UNL     1      47.417   5.566  19.163  0.00  0.00    +0.000 A 
ATOM     10  O   UNL     1      46.331   5.416  18.614  0.00  0.00    +0.000 OA
ATOM     11  C   UNL     1      48.685   5.089  18.639  0.00  0.00    +0.000 A 
ATOM     12  H   UNL     1      46.662   6.597  20.741  0.00  0.00    +0.000 HD
ENDBRANCH   1   2
BRANCH   1  13
ATOM     13  N   UNL     1      48.493   2.561  15.869  0.00  0.00    +0.000 NA
ATOM     14  H   UNL     1      48.822   2.786  14.933  0.00  0.00    +0.000 HD
ATOM     15  H   UNL     1      47.769   1.855  15.777  0.00  0.00    +0.000 HD
ENDBRANCH   1  13
BRANCH   1  16
ATOM     16  C   UNL     1      47.525   4.880  15.470  0.00  0.00    +0.000 C 
BRANCH  16  17
ATOM     17  N   UNL     1      47.647   4.580  14.026  0.00  0.00    +0.000 NA
ATOM     18  C   UNL     1      47.846   5.836  13.267  0.00  0.00    +0.000 C 
ATOM     19  C   UNL     1      46.584   6.736  13.186  0.00  0.00    +0.000 C 
ATOM     20  N   UNL     1      45.378   6.055  12.654  0.00  0.00    +0.000 NA
ATOM     21  C   UNL     1      45.191   4.783  13.395  0.00  0.00    +0.000 C 
ATOM     22  C   UNL     1      46.455   3.891  13.482  0.00  0.00    +0.000 C 
BRANCH  20  23
ATOM     23  C   UNL     1      45.527   5.850  11.199  0.00  0.00    +0.000 C 
BRANCH  23  24
ATOM     24  C   UNL     1      44.382   5.059  10.572  0.00  0.00    +0.000 C 
BRANCH  24  25
ATOM     25  C   UNL     1      44.951   4.014   9.658  0.00  0.00    +0.000 C 
ATOM     26  N   UNL     1      44.808   2.738   9.910  0.00  0.00    +0.000 NA
ATOM     27  C   UNL     1      45.490   2.072   8.762  0.00  0.00    +0.000 C 
ATOM     28  C   UNL     1      45.678   3.156   7.696  0.00  0.00    +0.000 C 
ATOM     29  N   UNL     1      45.625   4.346   8.512  0.00  0.00    +0.000 N 
ATOM     30  H   UNL     1      45.396   5.225   8.065  0.00  0.00    +0.000 HD
ENDBRANCH  24  25
ENDBRANCH  23  24
ENDBRANCH  20  23
ENDBRANCH  16  17
ENDBRANCH   1  16
TORSDOF 7
ENDMDL
MODEL 4
REMARK VINA RESULT:    -6.191      1.788      2.665
REMARK INTER + INTRA:          -9.441
REMARK INTER:                  -8.762
REMARK INTRA:                  -0.679
REMARK UNBOUND:                -0.897
REMARK  Name = 
REMARK  7 active torsions:
REMARK  status: ('A' for Active; 'I' for Inactive)
REMARK    1  A    between atoms: N_1  and  C_2
REMARK    2  A    between atoms: C_2  and  C_3
REMARK    3  A    between atoms: C_2  and  C_17
REMARK    4  A    between atoms: C_3  and  N_4
REMARK    5  A    between atoms: N_7  and  C_8
REMARK    6  A    between atoms: C_8  and  C_9
REMARK    7  A    between atoms: C_9  and  C_10
REMARK                            x       y       z     vdW  Elec       q    Type
REMARK                         _______ _______ _______ _____ _____    ______ ____
ROOT
ATOM      1  C   UNL     1      49.120   6.546  15.214  0.00  0.00    +0.000 C 
ENDROOT
BRANCH   1   2
ATOM      2  C   UNL     1      48.864   6.825  16.683  0.00  0.00    +0.000 A 
ATOM      3  C   UNL     1      48.561   8.075  17.206  0.00  0.00    +0.000 A 
ATOM      4  S   UNL     1      48.333   8.061  18.897  0.00  0.00    +0.000 S 
ATOM      5  C   UNL     1      48.614   6.384  18.981  0.00  0.00    +0.000 A 
ATOM      6  N   UNL     1      48.575   5.721  20.168  0.00  0.00    +0.000 NA
ATOM      7  C   UNL     1      48.797   4.451  20.075  0.00  0.00    +0.000 A 
ATOM      8  N   UNL     1      49.042   3.782  18.904  0.00  0.00    +0.000 N 
ATOM      9  C   UNL     1      49.066   4.401  17.675  0.00  0.00    +0.000 A 
ATOM     10  O   UNL     1      49.226   3.758  16.643  0.00  0.00    +0.000 OA
ATOM     11  C   UNL     1      48.858   5.838  17.734  0.00  0.00    +0.000 A 
ATOM     12  H   UNL     1      49.180   2.783  18.897  0.00  0.00    +0.000 HD
ENDBRANCH   1   2
BRANCH   1  13
ATOM     13  N   UNL     1      50.467   7.027  14.894  0.00  0.00    +0.000 NA
ATOM     14  H   UNL     1      50.553   7.997  15.188  0.00  0.00    +0.000 HD
ATOM     15  H   UNL     1      50.620   6.997  13.891  0.00  0.00    +0.000 HD
ENDBRANCH   1  13
BRANCH   1  16
ATOM     16  C   UNL     1      47.989   7.164  14.332  0.00  0.00    +0.000 C 
BRANCH  16  17
ATOM     17  N   UNL     1      47.733   6.558  13.006  0.00  0.00    +0.000 NA
ATOM     18  C   UNL     1      46.860   7.448  12.207  0.00  0.00    +0.000 C 
ATOM     19  C   UNL     1      45.388   7.502  12.700  0.00  0.00    +0.000 C 
ATOM     20  N   UNL     1      44.730   6.178  12.810  0.00  0.00    +0.000 NA
ATOM     21  C   UNL     1      45.615   5.276  13.587  0.00  0.00    +0.000 C 
ATOM     22  C   UNL     1      47.085   5.231  13.100  0.00  0.00    +0.000 C 
BRANCH  20  23
ATOM     23  C   UNL     1      44.433   5.658  11.459  0.00  0.00    +0.000 C 
BRANCH  23  24
ATOM     24  C   UNL     1      43.911   4.224  11.456  0.00  0.00    +0.000 C 
BRANCH  24  25
ATOM     25  C   UNL     1      44.313   3.560  10.172  0.00  0.00    +0.000 C 
ATOM     26  N   UNL     1      44.606   4.260   9.106  0.00  0.00    +0.000 NA
ATOM     27  C   UNL     1      44.963   3.226   8.091  0.00  0.00    +0.000 C 
ATOM     28  C   UNL     1      45.178   1.925   8.871  0.00  0.00    +0.000 C 
ATOM     29  N   UNL     1      44.410   2.197  10.062  0.00  0.00    +0.000 N 
ATOM     30  H   UNL     1      44.619   1.668  10.900  0.00  0.00    +0.000 HD
ENDBRANCH  24  25
ENDBRANCH  23  24
ENDBRANCH  20  23
ENDBRANCH  16  17
ENDBRANCH   1  16
TORSDOF 7
ENDMDL
MODEL 5
REMARK VINA RESULT:    -6.068      2.321      3.189
REMARK INTER + INTRA:          -9.272
REMARK INTER:                  -8.490
REMARK INTRA:                  -0.781
REMARK UNBOUND:                -0.897
REMARK  Name = 
REMARK  7 active torsions:
REMARK  status: ('A' for Active; 'I' for Inactive)
REMARK    1  A    between atoms: N_1  and  C_2
REMARK    2  A    between atoms: C_2  and  C_3
REMARK    3  A    between atoms: C_2  and  C_17
REMARK    4  A    between atoms: C_3  and  N_4
REMARK    5  A    between atoms: N_7  and  C_8
REMARK    6  A    between atoms: C_8  and  C_9
REMARK    7  A    between atoms: C_9  and  C_10
REMARK                            x       y       z     vdW  Elec       q    Type
REMARK                         _______ _______ _______ _____ _____    ______ ____
ROOT
ATOM      1  C   UNL     1      48.166   5.279  16.466  0.00  0.00    +0.000 C 
ENDROOT
BRANCH   1   2
ATOM      2  C   UNL     1      49.221   4.272  16.880  0.00  0.00    +0.000 A 
ATOM      3  C   UNL     1      49.088   2.895  16.758  0.00  0.00    +0.000 A 
ATOM      4  S   UNL     1      50.451   2.034  17.317  0.00  0.00    +0.000 S 
ATOM      5  C   UNL     1      51.269   3.471  17.722  0.00  0.00    +0.000 A 
ATOM      6  N   UNL     1      52.514   3.444  18.268  0.00  0.00    +0.000 NA
ATOM      7  C   UNL     1      53.012   4.611  18.513  0.00  0.00    +0.000 A 
ATOM      8  N   UNL     1      52.385   5.802  18.251  0.00  0.00    +0.000 N 
ATOM      9  C   UNL     1      51.138   5.884  17.676  0.00  0.00    +0.000 A 
ATOM     10  O   UNL     1      50.636   6.968  17.399  0.00  0.00    +0.000 OA
ATOM     11  C   UNL     1      50.520   4.594  17.417  0.00  0.00    +0.000 A 
ATOM     12  H   UNL     1      52.841   6.681  18.440  0.00  0.00    +0.000 HD
ENDBRANCH   1   2
BRANCH   1  13
ATOM     13  N   UNL     1      47.559   5.819  17.686  0.00  0.00    +0.000 NA
ATOM     14  H   UNL     1      47.230   6.764  17.505  0.00  0.00    +0.000 HD
ATOM     15  H   UNL     1      48.252   5.873  18.427  0.00  0.00    +0.000 HD
ENDBRANCH   1  13
BRANCH   1  16
ATOM     16  C   UNL     1      47.149   4.632  15.473  0.00  0.00    +0.000 C 
BRANCH  16  17
ATOM     17  N   UNL     1      47.526   4.558  14.043  0.00  0.00    +0.000 NA
ATOM     18  C   UNL     1      47.344   5.883  13.407  0.00  0.00    +0.000 C 
ATOM     19  C   UNL     1      45.860   6.294  13.210  0.00  0.00    +0.000 C 
ATOM     20  N   UNL     1      45.043   5.303  12.468  0.00  0.00    +0.000 NA
ATOM     21  C   UNL     1      45.244   3.970  13.087  0.00  0.00    +0.000 C 
ATOM     22  C   UNL     1      46.726   3.566  13.292  0.00  0.00    +0.000 C 
BRANCH  20  23
ATOM     23  C   UNL     1      45.412   5.328  11.037  0.00  0.00    +0.000 C 
BRANCH  23  24
ATOM     24  C   UNL     1      44.354   4.719  10.121  0.00  0.00    +0.000 C 
BRANCH  24  25
ATOM     25  C   UNL     1      45.034   3.879   9.080  0.00  0.00    +0.000 C 
ATOM     26  N   UNL     1      45.719   4.424   8.107  0.00  0.00    +0.000 NA
ATOM     27  C   UNL     1      46.229   3.254   7.335  0.00  0.00    +0.000 C 
ATOM     28  C   UNL     1      46.034   2.033   8.240  0.00  0.00    +0.000 C 
ATOM     29  N   UNL     1      44.986   2.510   9.110  0.00  0.00    +0.000 N 
ATOM     30  H   UNL     1      44.866   2.060  10.010  0.00  0.00    +0.000 HD
ENDBRANCH  24  25
ENDBRANCH  23  24
ENDBRANCH  20  23
ENDBRANCH  16  17
ENDBRANCH   1  16
TORSDOF 7
ENDMDL
MODEL 6
REMARK VINA RESULT:    -5.939      1.807      2.336
REMARK INTER + INTRA:          -9.093
REMARK INTER:                  -9.711
REMARK INTRA:                   0.618
REMARK UNBOUND:                -0.897
REMARK  Name = 
REMARK  7 active torsions:
REMARK  status: ('A' for Active; 'I' for Inactive)
REMARK    1  A    between atoms: N_1  and  C_2
REMARK    2  A    between atoms: C_2  and  C_3
REMARK    3  A    between atoms: C_2  and  C_17
REMARK    4  A    between atoms: C_3  and  N_4
REMARK    5  A    between atoms: N_7  and  C_8
REMARK    6  A    between atoms: C_8  and  C_9
REMARK    7  A    between atoms: C_9  and  C_10
REMARK                            x       y       z     vdW  Elec       q    Type
REMARK                         _______ _______ _______ _____ _____    ______ ____
ROOT
ATOM      1  C   UNL     1      47.671   3.762  16.171  0.00  0.00    +0.000 C 
ENDROOT
BRANCH   1   2
ATOM      2  C   UNL     1      48.731   4.484  16.980  0.00  0.00    +0.000 A 
ATOM      3  C   UNL     1      48.656   5.815  17.369  0.00  0.00    +0.000 A 
ATOM      4  S   UNL     1      50.010   6.333  18.267  0.00  0.00    +0.000 S 
ATOM      5  C   UNL     1      50.733   4.794  18.179  0.00  0.00    +0.000 A 
ATOM      6  N   UNL     1      51.942   4.548  18.751  0.00  0.00    +0.000 NA
ATOM      7  C   UNL     1      52.359   3.333  18.612  0.00  0.00    +0.000 A 
ATOM      8  N   UNL     1      51.673   2.338  17.966  0.00  0.00    +0.000 N 
ATOM      9  C   UNL     1      50.435   2.527  17.394  0.00  0.00    +0.000 A 
ATOM     10  O   UNL     1      49.824   1.597  16.879  0.00  0.00    +0.000 OA
ATOM     11  C   UNL     1      49.942   3.891  17.492  0.00  0.00    +0.000 A 
ATOM     12  H   UNL     1      52.041   1.401  17.917  0.00  0.00    +0.000 HD
ENDBRANCH   1   2
BRANCH   1  13
ATOM     13  N   UNL     1      48.312   2.622  15.508  0.00  0.00    +0.000 NA
ATOM     14  H   UNL     1      48.471   2.852  14.530  0.00  0.00    +0.000 HD
ATOM     15  H   UNL     1      47.700   1.812  15.536  0.00  0.00    +0.000 HD
ENDBRANCH   1  13
BRANCH   1  16
ATOM     16  C   UNL     1      46.952   4.751  15.199  0.00  0.00    +0.000 C 
BRANCH  16  17
ATOM     17  N   UNL     1      47.127   4.544  13.744  0.00  0.00    +0.000 NA
ATOM     18  C   UNL     1      47.204   5.854  13.056  0.00  0.00    +0.000 C 
ATOM     19  C   UNL     1      45.855   6.620  12.998  0.00  0.00    +0.000 C 
ATOM     20  N   UNL     1      44.736   5.847  12.406  0.00  0.00    +0.000 NA
ATOM     21  C   UNL     1      44.673   4.524  13.074  0.00  0.00    +0.000 C 
ATOM     22  C   UNL     1      46.023   3.765  13.141  0.00  0.00    +0.000 C 
BRANCH  20  23
ATOM     23  C   UNL     1      44.927   5.738  10.945  0.00  0.00    +0.000 C 
BRANCH  23  24
ATOM     24  C   UNL     1      43.978   4.747  10.276  0.00  0.00    +0.000 C 
BRANCH  24  25
ATOM     25  C   UNL     1      44.779   3.788   9.444  0.00  0.00    +0.000 C 
ATOM     26  N   UNL     1      44.710   2.495   9.640  0.00  0.00    +0.000 NA
ATOM     27  C   UNL     1      45.625   1.932   8.605  0.00  0.00    +0.000 C 
ATOM     28  C   UNL     1      45.889   3.067   7.611  0.00  0.00    +0.000 C 
ATOM     29  N   UNL     1      45.599   4.217   8.434  0.00  0.00    +0.000 N 
ATOM     30  H   UNL     1      45.369   5.090   7.976  0.00  0.00    +0.000 HD
ENDBRANCH  24  25
ENDBRANCH  23  24
ENDBRANCH  20  23
ENDBRANCH  16  17
ENDBRANCH   1  16
TORSDOF 7
ENDMDL
MODEL 7
REMARK VINA RESULT:    -5.812      3.726      4.840
REMARK INTER + INTRA:          -8.918
REMARK INTER:                  -8.018
REMARK INTRA:                  -0.901
REMARK UNBOUND:                -0.897
REMARK  Name = 
REMARK  7 active torsions:
REMARK  status: ('A' for Active; 'I' for Inactive)
REMARK    1  A    between atoms: N_1  and  C_2
REMARK    2  A    between atoms: C_2  and  C_3
REMARK    3  A    between atoms: C_2  and  C_17
REMARK    4  A    between atoms: C_3  and  N_4
REMARK    5  A    between atoms: N_7  and  C_8
REMARK    6  A    between atoms: C_8  and  C_9
REMARK    7  A    between atoms: C_9  and  C_10
REMARK                            x       y       z     vdW  Elec       q    Type
REMARK                         _______ _______ _______ _____ _____    ______ ____
ROOT
ATOM      1  C   UNL     1      47.466   8.875  12.795  0.00  0.00    +0.000 C 
ENDROOT
BRANCH   1   2
ATOM      2  C   UNL     1      48.690   9.155  13.646  0.00  0.00    +0.000 A 
ATOM      3  C   UNL     1      48.658   9.743  14.903  0.00  0.00    +0.000 A 
ATOM      4  S   UNL     1      50.203   9.925  15.602  0.00  0.00    +0.000 S 
ATOM      5  C   UNL     1      50.963   9.209  14.257  0.00  0.00    +0.000 A 
ATOM      6  N   UNL     1      52.313   9.060  14.206  0.00  0.00    +0.000 NA
ATOM      7  C   UNL     1      52.745   8.491  13.128  0.00  0.00    +0.000 A 
ATOM      8  N   UNL     1      51.949   8.046  12.105  0.00  0.00    +0.000 N 
ATOM      9  C   UNL     1      50.577   8.148  12.119  0.00  0.00    +0.000 A 
ATOM     10  O   UNL     1      49.895   7.682  11.213  0.00  0.00    +0.000 OA
ATOM     11  C   UNL     1      50.047   8.817  13.296  0.00  0.00    +0.000 A 
ATOM     12  H   UNL     1      52.347   7.583  11.302  0.00  0.00    +0.000 HD
ENDBRANCH   1   2
BRANCH   1  13
ATOM     13  N   UNL     1      46.622  10.074  12.816  0.00  0.00    +0.000 NA
ATOM     14  H   UNL     1      46.931  10.686  13.568  0.00  0.00    +0.000 HD
ATOM     15  H   UNL     1      45.658   9.818  13.007  0.00  0.00    +0.000 HD
ENDBRANCH   1  13
BRANCH   1  16
ATOM     16  C   UNL     1      46.749   7.574  13.274  0.00  0.00    +0.000 C 
BRANCH  16  17
ATOM     17  N   UNL     1      47.131   6.294  12.635  0.00  0.00    +0.000 NA
ATOM     18  C   UNL     1      46.577   6.234  11.263  0.00  0.00    +0.000 C 
ATOM     19  C   UNL     1      45.038   6.042  11.208  0.00  0.00    +0.000 C 
ATOM     20  N   UNL     1      44.538   4.868  11.965  0.00  0.00    +0.000 NA
ATOM     21  C   UNL     1      45.113   4.912  13.332  0.00  0.00    +0.000 C 
ATOM     22  C   UNL     1      46.649   5.114  13.385  0.00  0.00    +0.000 C 
BRANCH  20  23
ATOM     23  C   UNL     1      44.885   3.628  11.242  0.00  0.00    +0.000 C 
BRANCH  23  24
ATOM     24  C   UNL     1      44.078   3.419   9.963  0.00  0.00    +0.000 C 
BRANCH  24  25
ATOM     25  C   UNL     1      45.021   3.159   8.825  0.00  0.00    +0.000 C 
ATOM     26  N   UNL     1      45.412   4.123   8.031  0.00  0.00    +0.000 NA
ATOM     27  C   UNL     1      46.338   3.444   7.079  0.00  0.00    +0.000 C 
ATOM     28  C   UNL     1      46.666   2.085   7.707  0.00  0.00    +0.000 C 
ATOM     29  N   UNL     1      45.529   1.911   8.579  0.00  0.00    +0.000 N 
ATOM     30  H   UNL     1      45.615   1.272   9.359  0.00  0.00    +0.000 HD
ENDBRANCH  24  25
ENDBRANCH  23  24
ENDBRANCH  20  23
ENDBRANCH  16  17
ENDBRANCH   1  16
TORSDOF 7
ENDMDL
MODEL 8
REMARK VINA RESULT:    -5.653      3.220      7.968
REMARK INTER + INTRA:          -8.698
REMARK INTER:                  -7.795
REMARK INTRA:                  -0.903
REMARK UNBOUND:                -0.897
REMARK  Name = 
REMARK  7 active torsions:
REMARK  status: ('A' for Active; 'I' for Inactive)
REMARK    1  A    between atoms: N_1  and  C_2
REMARK    2  A    between atoms: C_2  and  C_3
REMARK    3  A    between atoms: C_2  and  C_17
REMARK    4  A    between atoms: C_3  and  N_4
REMARK    5  A    between atoms: N_7  and  C_8
REMARK    6  A    between atoms: C_8  and  C_9
REMARK    7  A    between atoms: C_9  and  C_10
REMARK                            x       y       z     vdW  Elec       q    Type
REMARK                         _______ _______ _______ _____ _____    ______ ____
ROOT
ATOM      1  C   UNL     1      45.882   6.867  12.239  0.00  0.00    +0.000 C 
ENDROOT
BRANCH   1   2
ATOM      2  C   UNL     1      45.473   5.782  11.262  0.00  0.00    +0.000 A 
ATOM      3  C   UNL     1      45.785   5.781   9.909  0.00  0.00    +0.000 A 
ATOM      4  S   UNL     1      45.177   4.422   9.077  0.00  0.00    +0.000 S 
ATOM      5  C   UNL     1      44.493   3.782  10.499  0.00  0.00    +0.000 A 
ATOM      6  N   UNL     1      43.806   2.609  10.485  0.00  0.00    +0.000 NA
ATOM      7  C   UNL     1      43.354   2.244  11.640  0.00  0.00    +0.000 A 
ATOM      8  N   UNL     1      43.537   2.938  12.808  0.00  0.00    +0.000 N 
ATOM      9  C   UNL     1      44.247   4.114  12.880  0.00  0.00    +0.000 A 
ATOM     10  O   UNL     1      44.443   4.673  13.954  0.00  0.00    +0.000 OA
ATOM     11  C   UNL     1      44.743   4.584  11.597  0.00  0.00    +0.000 A 
ATOM     12  H   UNL     1      43.182   2.583  13.683  0.00  0.00    +0.000 HD
ENDBRANCH   1   2
BRANCH   1  13
ATOM     13  N   UNL     1      44.887   7.940  12.160  0.00  0.00    +0.000 NA
ATOM     14  H   UNL     1      44.927   8.364  11.236  0.00  0.00    +0.000 HD
ATOM     15  H   UNL     1      45.100   8.665  12.839  0.00  0.00    +0.000 HD
ENDBRANCH   1  13
BRANCH   1  16
ATOM     16  C   UNL     1      47.349   7.328  11.966  0.00  0.00    +0.000 C 
BRANCH  16  17
ATOM     17  N   UNL     1      48.449   6.516  12.533  0.00  0.00    +0.000 NA
ATOM     18  C   UNL     1      48.157   6.194  13.949  0.00  0.00    +0.000 C 
ATOM     19  C   UNL     1      48.274   7.405  14.912  0.00  0.00    +0.000 C 
ATOM     20  N   UNL     1      49.577   8.112  14.853  0.00  0.00    +0.000 NA
ATOM     21  C   UNL     1      49.885   8.411  13.433  0.00  0.00    +0.000 C 
ATOM     22  C   UNL     1      49.758   7.203  12.472  0.00  0.00    +0.000 C 
BRANCH  20  23
ATOM     23  C   UNL     1      50.618   7.286  15.499  0.00  0.00    +0.000 C 
BRANCH  23  24
ATOM     24  C   UNL     1      50.380   7.057  16.990  0.00  0.00    +0.000 C 
BRANCH  24  25
ATOM     25  C   UNL     1      50.549   5.598  17.295  0.00  0.00    +0.000 C 
ATOM     26  N   UNL     1      49.659   4.716  16.916  0.00  0.00    +0.000 NA
ATOM     27  C   UNL     1      50.222   3.419  17.394  0.00  0.00    +0.000 C 
ATOM     28  C   UNL     1      51.689   3.696  17.737  0.00  0.00    +0.000 C 
ATOM     29  N   UNL     1      51.647   5.121  17.962  0.00  0.00    +0.000 N 
ATOM     30  H   UNL     1      52.511   5.645  17.888  0.00  0.00    +0.000 HD
ENDBRANCH  24  25
ENDBRANCH  23  24
ENDBRANCH  20  23
ENDBRANCH  16  17
ENDBRANCH   1  16
TORSDOF 7
ENDMDL
MODEL 9
REMARK VINA RESULT:    -5.651      3.434      4.294
REMARK INTER + INTRA:          -8.696
REMARK INTER:                  -7.981
REMARK INTRA:                  -0.716
REMARK UNBOUND:                -0.897
REMARK  Name = 
REMARK  7 active torsions:
REMARK  status: ('A' for Active; 'I' for Inactive)
REMARK    1  A    between atoms: N_1  and  C_2
REMARK    2  A    between atoms: C_2  and  C_3
REMARK    3  A    between atoms: C_2  and  C_17
REMARK    4  A    between atoms: C_3  and  N_4
REMARK    5  A    between atoms: N_7  and  C_8
REMARK    6  A    between atoms: C_8  and  C_9
REMARK    7  A    between atoms: C_9  and  C_10
REMARK                            x       y       z     vdW  Elec       q    Type
REMARK                         _______ _______ _______ _____ _____    ______ ____
ROOT
ATOM      1  C   UNL     1      47.044   8.785  12.305  0.00  0.00    +0.000 C 
ENDROOT
BRANCH   1   2
ATOM      2  C   UNL     1      48.551   8.648  12.398  0.00  0.00    +0.000 A 
ATOM      3  C   UNL     1      49.402   8.542  11.307  0.00  0.00    +0.000 A 
ATOM      4  S   UNL     1      51.045   8.398  11.744  0.00  0.00    +0.000 S 
ATOM      5  C   UNL     1      50.674   8.490  13.403  0.00  0.00    +0.000 A 
ATOM      6  N   UNL     1      51.649   8.421  14.348  0.00  0.00    +0.000 NA
ATOM      7  C   UNL     1      51.219   8.516  15.563  0.00  0.00    +0.000 A 
ATOM      8  N   UNL     1      49.906   8.686  15.919  0.00  0.00    +0.000 N 
ATOM      9  C   UNL     1      48.886   8.789  15.001  0.00  0.00    +0.000 A 
ATOM     10  O   UNL     1      47.731   9.004  15.355  0.00  0.00    +0.000 OA
ATOM     11  C   UNL     1      49.317   8.650  13.620  0.00  0.00    +0.000 A 
ATOM     12  H   UNL     1      49.639   8.782  16.886  0.00  0.00    +0.000 HD
ENDBRANCH   1   2
BRANCH   1  13
ATOM     13  N   UNL     1      46.667  10.048  12.946  0.00  0.00    +0.000 NA
ATOM     14  H   UNL     1      47.211  10.164  13.798  0.00  0.00    +0.000 HD
ATOM     15  H   UNL     1      45.687  10.028  13.210  0.00  0.00    +0.000 HD
ENDBRANCH   1  13
BRANCH   1  16
ATOM     16  C   UNL     1      46.339   7.525  12.902  0.00  0.00    +0.000 C 
BRANCH  16  17
ATOM     17  N   UNL     1      46.820   6.192  12.472  0.00  0.00    +0.000 NA
ATOM     18  C   UNL     1      46.403   5.936  11.074  0.00  0.00    +0.000 C 
ATOM     19  C   UNL     1      44.882   5.675  10.903  0.00  0.00    +0.000 C 
ATOM     20  N   UNL     1      44.347   4.586  11.758  0.00  0.00    +0.000 NA
ATOM     21  C   UNL     1      44.786   4.827  13.154  0.00  0.00    +0.000 C 
ATOM     22  C   UNL     1      46.303   5.097  13.321  0.00  0.00    +0.000 C 
BRANCH  20  23
ATOM     23  C   UNL     1      44.799   3.280  11.236  0.00  0.00    +0.000 C 
BRANCH  23  24
ATOM     24  C   UNL     1      44.167   2.904   9.898  0.00  0.00    +0.000 C 
BRANCH  24  25
ATOM     25  C   UNL     1      45.256   2.658   8.895  0.00  0.00    +0.000 C 
ATOM     26  N   UNL     1      45.756   1.462   8.713  0.00  0.00    +0.000 NA
ATOM     27  C   UNL     1      46.769   1.662   7.636  0.00  0.00    +0.000 C 
ATOM     28  C   UNL     1      46.469   3.035   7.025  0.00  0.00    +0.000 C 
ATOM     29  N   UNL     1      45.760   3.664   8.113  0.00  0.00    +0.000 N 
ATOM     30  H   UNL     1      45.155   4.448   7.903  0.00  0.00    +0.000 HD
ENDBRANCH  24  25
ENDBRANCH  23  24
ENDBRANCH  20  23
ENDBRANCH  16  17
ENDBRANCH   1  16
TORSDOF 7
ENDMDL
