MODEL 1
REMARK VINA RESULT:    -5.967      0.000      0.000
REMARK INTER + INTRA:          -9.310
REMARK INTER:                  -8.060
REMARK INTRA:                  -1.250
REMARK UNBOUND:                -1.250
REMARK  Name = 
REMARK  7 active torsions:
REMARK  status: ('A' for Active; 'I' for Inactive)
REMARK    1  A    between atoms: C_1  and  O_2
REMARK    2  A    between atoms: O_2  and  C_3
REMARK    3  A    between atoms: C_10  and  C_11
REMARK    4  A    between atoms: N_13  and  C_14
REMARK    5  A    between atoms: C_14  and  C_15
REMARK    6  A    between atoms: C_18  and  C_19
REMARK    7  A    between atoms: C_20  and  C_21
REMARK                            x       y       z     vdW  Elec       q    Type
REMARK                         _______ _______ _______ _____ _____    ______ ____
ROOT
ATOM      1  C   UNL     1      47.842   7.990  13.789  0.00  0.00    +0.000 C 
ATOM      2  O   UNL     1      48.698   8.668  13.223  0.00  0.00    +0.000 OA
ATOM      3  N   UNL     1      47.875   7.793  15.145  0.00  0.00    +0.000 N 
ATOM      4  H   UNL     1      47.128   7.285  15.597  0.00  0.00    +0.000 HD
ENDROOT
BRANCH   1  12
ATOM      5  C   UNL     1      46.654   4.768  13.607  0.00  0.00    +0.000 A 
ATOM      6  N   UNL     1      45.995   3.618  13.369  0.00  0.00    +0.000 NA
ATOM      7  C   UNL     1      44.968   3.651  12.519  0.00  0.00    +0.000 A 
ATOM      8  N   UNL     1      44.507   4.711  11.858  0.00  0.00    +0.000 NA
ATOM      9  C   UNL     1      45.187   5.837  12.132  0.00  0.00    +0.000 A 
ATOM     10  S   UNL     1      44.741   7.292  11.379  0.00  0.00    +0.000 S 
ATOM     11  C   UNL     1      45.973   8.144  12.184  0.00  0.00    +0.000 A 
ATOM     12  C   UNL     1      46.739   7.358  13.038  0.00  0.00    +0.000 A 
ATOM     13  C   UNL     1      46.269   5.974  12.997  0.00  0.00    +0.000 A 
BRANCH   5  15
ATOM     14  C   UNL     1      47.381   3.997  15.687  0.00  0.00    +0.000 C 
ATOM     15  O   UNL     1      47.694   4.739  14.510  0.00  0.00    +0.000 OA
ENDBRANCH   5  15
ENDBRANCH   1  12
BRANCH   3  16
ATOM     16  C   UNL     1      48.896   8.357  15.995  0.00  0.00    +0.000 C 
BRANCH  16  17
ATOM     17  C   UNL     1      49.854   7.298  16.491  0.00  0.00    +0.000 A 
ATOM     18  C   UNL     1      51.175   7.254  16.025  0.00  0.00    +0.000 A 
ATOM     19  C   UNL     1      52.064   6.268  16.476  0.00  0.00    +0.000 A 
ATOM     20  C   UNL     1      51.662   5.310  17.414  0.00  0.00    +0.000 A 
ATOM     21  C   UNL     1      50.336   5.344  17.865  0.00  0.00    +0.000 A 
ATOM     22  C   UNL     1      49.440   6.321  17.405  0.00  0.00    +0.000 A 
BRANCH  20  23
ATOM     23  C   UNL     1      52.552   4.229  17.878  0.00  0.00    +0.000 C 
ATOM     24  C   UNL     1      52.298   2.915  17.752  0.00  0.00    +0.000 C 
BRANCH  24  25
ATOM     25  C   UNL     1      53.183   1.840  18.230  0.00  0.00    +0.000 A 
ATOM     26  C   UNL     1      53.208   0.558  17.677  0.00  0.00    +0.000 A 
ATOM     27  C   UNL     1      54.106  -0.397  18.156  0.00  0.00    +0.000 A 
ATOM     28  C   UNL     1      54.970  -0.034  19.175  0.00  0.00    +0.000 A 
ATOM     29  N   UNL     1      54.994   1.195  19.731  0.00  0.00    +0.000 NA
ATOM     30  C   UNL     1      54.107   2.098  19.245  0.00  0.00    +0.000 A 
ENDBRANCH  24  25
ENDBRANCH  20  23
ENDBRANCH  16  17
ENDBRANCH   3  16
TORSDOF 6
ENDMDL
MODEL 2
REMARK VINA RESULT:    -5.512      2.466      3.450
REMARK INTER + INTRA:          -8.695
REMARK INTER:                  -7.873
REMARK INTRA:                  -0.822
REMARK UNBOUND:                -1.250
REMARK  Name = 
REMARK  7 active torsions:
REMARK  status: ('A' for Active; 'I' for Inactive)
REMARK    1  A    between atoms: C_1  and  O_2
REMARK    2  A    between atoms: O_2  and  C_3
REMARK    3  A    between atoms: C_10  and  C_11
REMARK    4  A    between atoms: N_13  and  C_14
REMARK    5  A    between atoms: C_14  and  C_15
REMARK    6  A    between atoms: C_18  and  C_19
REMARK    7  A    between atoms: C_20  and  C_21
REMARK                            x       y       z     vdW  Elec       q    Type
REMARK                         _______ _______ _______ _____ _____    ______ ____
ROOT
ATOM      1  C   UNL     1      46.144   6.913  11.345  0.00  0.00    +0.000 C 
ATOM      2  O   UNL     1      45.432   7.798  11.815  0.00  0.00    +0.000 OA
ATOM      3  N   UNL     1      47.511   7.012  11.373  0.00  0.00    +0.000 N 
ATOM      4  H   UNL     1      48.076   6.245  11.038  0.00  0.00    +0.000 HD
ENDROOT
BRANCH   1  12
ATOM      5  C   UNL     1      44.422   4.221  12.616  0.00  0.00    +0.000 A 
ATOM      6  N   UNL     1      43.729   3.089  12.847  0.00  0.00    +0.000 NA
ATOM      7  C   UNL     1      43.456   2.302  11.806  0.00  0.00    +0.000 A 
ATOM      8  N   UNL     1      43.796   2.504  10.535  0.00  0.00    +0.000 NA
ATOM      9  C   UNL     1      44.476   3.649  10.349  0.00  0.00    +0.000 A 
ATOM     10  S   UNL     1      44.995   4.073   8.790  0.00  0.00    +0.000 S 
ATOM     11  C   UNL     1      45.705   5.509   9.363  0.00  0.00    +0.000 A 
ATOM     12  C   UNL     1      45.563   5.702  10.733  0.00  0.00    +0.000 A 
ATOM     13  C   UNL     1      44.832   4.580  11.320  0.00  0.00    +0.000 A 
BRANCH   5  15
ATOM     14  C   UNL     1      45.922   4.768  14.319  0.00  0.00    +0.000 C 
ATOM     15  O   UNL     1      44.676   5.051  13.687  0.00  0.00    +0.000 OA
ENDBRANCH   5  15
ENDBRANCH   1  12
BRANCH   3  16
ATOM     16  C   UNL     1      48.203   8.141  11.945  0.00  0.00    +0.000 C 
BRANCH  16  17
ATOM     17  C   UNL     1      48.930   7.764  13.216  0.00  0.00    +0.000 A 
ATOM     18  C   UNL     1      50.275   8.110  13.400  0.00  0.00    +0.000 A 
ATOM     19  C   UNL     1      50.955   7.754  14.574  0.00  0.00    +0.000 A 
ATOM     20  C   UNL     1      50.306   7.055  15.598  0.00  0.00    +0.000 A 
ATOM     21  C   UNL     1      48.966   6.693  15.405  0.00  0.00    +0.000 A 
ATOM     22  C   UNL     1      48.288   7.036  14.225  0.00  0.00    +0.000 A 
BRANCH  20  23
ATOM     23  C   UNL     1      50.998   6.621  16.827  0.00  0.00    +0.000 C 
ATOM     24  C   UNL     1      50.968   5.374  17.328  0.00  0.00    +0.000 C 
BRANCH  24  25
ATOM     25  C   UNL     1      51.648   4.949  18.562  0.00  0.00    +0.000 A 
ATOM     26  C   UNL     1      51.188   5.262  19.844  0.00  0.00    +0.000 A 
ATOM     27  C   UNL     1      51.864   4.787  20.969  0.00  0.00    +0.000 A 
ATOM     28  C   UNL     1      52.983   3.995  20.778  0.00  0.00    +0.000 A 
ATOM     29  N   UNL     1      53.458   3.654  19.560  0.00  0.00    +0.000 NA
ATOM     30  C   UNL     1      52.779   4.134  18.489  0.00  0.00    +0.000 A 
ENDBRANCH  24  25
ENDBRANCH  20  23
ENDBRANCH  16  17
ENDBRANCH   3  16
TORSDOF 6
ENDMDL
MODEL 3
REMARK VINA RESULT:    -5.257      6.641      9.380
REMARK INTER + INTRA:          -8.351
REMARK INTER:                  -7.108
REMARK INTRA:                  -1.243
REMARK UNBOUND:                -1.250
REMARK  Name = 
REMARK  7 active torsions:
REMARK  status: ('A' for Active; 'I' for Inactive)
REMARK    1  A    between atoms: C_1  and  O_2
REMARK    2  A    between atoms: O_2  and  C_3
REMARK    3  A    between atoms: C_10  and  C_11
REMARK    4  A    between atoms: N_13  and  C_14
REMARK    5  A    between atoms: C_14  and  C_15
REMARK    6  A    between atoms: C_18  and  C_19
REMARK    7  A    between atoms: C_20  and  C_21
REMARK                            x       y       z     vdW  Elec       q    Type
REMARK                         _______ _______ _______ _____ _____    ______ ____
ROOT
ATOM      1  C   UNL     1      52.432  10.452   8.929  0.00  0.00    +0.000 C 
ATOM      2  O   UNL     1      51.573  11.327   8.849  0.00  0.00    +0.000 OA
ATOM      3  N   UNL     1      52.752   9.880  10.133  0.00  0.00    +0.000 N 
ATOM      4  H   UNL     1      53.416   9.119  10.166  0.00  0.00    +0.000 HD
ENDROOT
BRANCH   1  12
ATOM      5  C   UNL     1      53.213   7.319   7.744  0.00  0.00    +0.000 A 
ATOM      6  N   UNL     1      53.627   6.233   7.065  0.00  0.00    +0.000 NA
ATOM      7  C   UNL     1      54.300   6.425   5.929  0.00  0.00    +0.000 A 
ATOM      8  N   UNL     1      54.621   7.592   5.375  0.00  0.00    +0.000 NA
ATOM      9  C   UNL     1      54.181   8.647   6.080  0.00  0.00    +0.000 A 
ATOM     10  S   UNL     1      54.501  10.220   5.526  0.00  0.00    +0.000 S 
ATOM     11  C   UNL     1      53.688  10.906   6.854  0.00  0.00    +0.000 A 
ATOM     12  C   UNL     1      53.157   9.972   7.736  0.00  0.00    +0.000 A 
ATOM     13  C   UNL     1      53.462   8.619   7.271  0.00  0.00    +0.000 A 
BRANCH   5  15
ATOM     14  C   UNL     1      53.169   6.284   9.836  0.00  0.00    +0.000 C 
ATOM     15  O   UNL     1      52.490   7.119   8.901  0.00  0.00    +0.000 OA
ENDBRANCH   5  15
ENDBRANCH   1  12
BRANCH   3  16
ATOM     16  C   UNL     1      52.117  10.255  11.373  0.00  0.00    +0.000 C 
BRANCH  16  17
ATOM     17  C   UNL     1      50.829   9.495  11.591  0.00  0.00    +0.000 A 
ATOM     18  C   UNL     1      50.844   8.112  11.819  0.00  0.00    +0.000 A 
ATOM     19  C   UNL     1      49.650   7.403  12.012  0.00  0.00    +0.000 A 
ATOM     20  C   UNL     1      48.412   8.057  11.997  0.00  0.00    +0.000 A 
ATOM     21  C   UNL     1      48.397   9.436  11.752  0.00  0.00    +0.000 A 
ATOM     22  C   UNL     1      49.590  10.146  11.543  0.00  0.00    +0.000 A 
BRANCH  20  23
ATOM     23  C   UNL     1      47.132   7.340  12.151  0.00  0.00    +0.000 C 
ATOM     24  C   UNL     1      47.008   6.060  12.542  0.00  0.00    +0.000 C 
BRANCH  24  25
ATOM     25  C   UNL     1      45.729   5.345  12.680  0.00  0.00    +0.000 A 
ATOM     26  C   UNL     1      44.488   5.986  12.731  0.00  0.00    +0.000 A 
ATOM     27  C   UNL     1      43.314   5.238  12.820  0.00  0.00    +0.000 A 
ATOM     28  C   UNL     1      43.414   3.857  12.842  0.00  0.00    +0.000 A 
ATOM     29  N   UNL     1      44.587   3.192  12.780  0.00  0.00    +0.000 NA
ATOM     30  C   UNL     1      45.709   3.949  12.697  0.00  0.00    +0.000 A 
ENDBRANCH  24  25
ENDBRANCH  20  23
ENDBRANCH  16  17
ENDBRANCH   3  16
TORSDOF 6
ENDMDL
MODEL 4
REMARK VINA RESULT:    -5.222      5.193      7.624
REMARK INTER + INTRA:          -8.303
REMARK INTER:                  -7.120
REMARK INTRA:                  -1.183
REMARK UNBOUND:                -1.250
REMARK  Name = 
REMARK  7 active torsions:
REMARK  status: ('A' for Active; 'I' for Inactive)
REMARK    1  A    between atoms: C_1  and  O_2
REMARK    2  A    between atoms: O_2  and  C_3
REMARK    3  A    between atoms: C_10  and  C_11
REMARK    4  A    between atoms: N_13  and  C_14
REMARK    5  A    between atoms: C_14  and  C_15
REMARK    6  A    between atoms: C_18  and  C_19
REMARK    7  A    between atoms: C_20  and  C_21
REMARK                            x       y       z     vdW  Elec       q    Type
REMARK                         _______ _______ _______ _____ _____    ______ ____
ROOT
ATOM      1  C   UNL     1      49.023   7.923  16.624  0.00  0.00    +0.000 C 
ATOM      2  O   UNL     1      49.894   8.754  16.871  0.00  0.00    +0.000 OA
ATOM      3  N   UNL     1      48.192   8.065  15.543  0.00  0.00    +0.000 N 
ATOM      4  H   UNL     1      47.525   7.339  15.324  0.00  0.00    +0.000 HD
ENDROOT
BRANCH   1  12
ATOM      5  C   UNL     1      48.047   4.690  15.973  0.00  0.00    +0.000 A 
ATOM      6  N   UNL     1      47.713   3.386  15.991  0.00  0.00    +0.000 NA
ATOM      7  C   UNL     1      47.724   2.754  17.165  0.00  0.00    +0.000 A 
ATOM      8  N   UNL     1      48.031   3.272  18.352  0.00  0.00    +0.000 NA
ATOM      9  C   UNL     1      48.368   4.571  18.287  0.00  0.00    +0.000 A 
ATOM     10  S   UNL     1      48.788   5.402  19.706  0.00  0.00    +0.000 S 
ATOM     11  C   UNL     1      49.049   6.845  18.844  0.00  0.00    +0.000 A 
ATOM     12  C   UNL     1      48.831   6.733  17.476  0.00  0.00    +0.000 A 
ATOM     13  C   UNL     1      48.416   5.369  17.148  0.00  0.00    +0.000 A 
BRANCH   5  15
ATOM     14  C   UNL     1      46.935   5.019  13.948  0.00  0.00    +0.000 C 
ATOM     15  O   UNL     1      48.067   5.334  14.755  0.00  0.00    +0.000 OA
ENDBRANCH   5  15
ENDBRANCH   1  12
BRANCH   3  16
ATOM     16  C   UNL     1      48.276   9.180  14.631  0.00  0.00    +0.000 C 
BRANCH  16  17
ATOM     17  C   UNL     1      49.237   8.902  13.498  0.00  0.00    +0.000 A 
ATOM     18  C   UNL     1      50.484   9.541  13.444  0.00  0.00    +0.000 A 
ATOM     19  C   UNL     1      51.374   9.292  12.390  0.00  0.00    +0.000 A 
ATOM     20  C   UNL     1      51.050   8.389  11.371  0.00  0.00    +0.000 A 
ATOM     21  C   UNL     1      49.797   7.764  11.416  0.00  0.00    +0.000 A 
ATOM     22  C   UNL     1      48.898   8.022  12.462  0.00  0.00    +0.000 A 
BRANCH  20  23
ATOM     23  C   UNL     1      51.939   8.135  10.222  0.00  0.00    +0.000 C 
ATOM     24  C   UNL     1      52.139   6.933   9.654  0.00  0.00    +0.000 C 
BRANCH  24  25
ATOM     25  C   UNL     1      53.038   6.681   8.516  0.00  0.00    +0.000 A 
ATOM     26  C   UNL     1      54.254   6.003   8.628  0.00  0.00    +0.000 A 
ATOM     27  C   UNL     1      55.033   5.765   7.494  0.00  0.00    +0.000 A 
ATOM     28  C   UNL     1      54.563   6.205   6.269  0.00  0.00    +0.000 A 
ATOM     29  N   UNL     1      53.388   6.851   6.108  0.00  0.00    +0.000 NA
ATOM     30  C   UNL     1      52.657   7.068   7.229  0.00  0.00    +0.000 A 
ENDBRANCH  24  25
ENDBRANCH  20  23
ENDBRANCH  16  17
ENDBRANCH   3  16
TORSDOF 6
ENDMDL
MODEL 5
REMARK VINA RESULT:    -4.886     10.465     11.850
REMARK INTER + INTRA:          -7.849
REMARK INTER:                  -6.784
REMARK INTRA:                  -1.065
REMARK UNBOUND:                -1.250
REMARK  Name = 
REMARK  7 active torsions:
REMARK  status: ('A' for Active; 'I' for Inactive)
REMARK    1  A    between atoms: C_1  and  O_2
REMARK    2  A    between atoms: O_2  and  C_3
REMARK    3  A    between atoms: C_10  and  C_11
REMARK    4  A    between atoms: N_13  and  C_14
REMARK    5  A    between atoms: C_14  and  C_15
REMARK    6  A    between atoms: C_18  and  C_19
REMARK    7  A    between atoms: C_20  and  C_21
REMARK                            x       y       z     vdW  Elec       q    Type
REMARK                         _______ _______ _______ _____ _____    ______ ____
ROOT
ATOM      1  C   UNL     1      37.940  -1.159  18.326  0.00  0.00    +0.000 C 
ATOM      2  O   UNL     1      37.007  -1.936  18.513  0.00  0.00    +0.000 OA
ATOM      3  N   UNL     1      39.172  -1.382  18.883  0.00  0.00    +0.000 N 
ATOM      4  H   UNL     1      39.941  -0.764  18.666  0.00  0.00    +0.000 HD
ENDROOT
BRANCH   1  12
ATOM      5  C   UNL     1      38.663   2.166  18.826  0.00  0.00    +0.000 A 
ATOM      6  N   UNL     1      38.858   3.497  18.759  0.00  0.00    +0.000 NA
ATOM      7  C   UNL     1      38.494   4.126  17.641  0.00  0.00    +0.000 A 
ATOM      8  N   UNL     1      37.944   3.582  16.557  0.00  0.00    +0.000 NA
ATOM      9  C   UNL     1      37.776   2.253  16.664  0.00  0.00    +0.000 A 
ATOM     10  S   UNL     1      37.086   1.388  15.377  0.00  0.00    +0.000 S 
ATOM     11  C   UNL     1      37.214  -0.079  16.229  0.00  0.00    +0.000 A 
ATOM     12  C   UNL     1      37.781   0.049  17.492  0.00  0.00    +0.000 A 
ATOM     13  C   UNL     1      38.110   1.450  17.751  0.00  0.00    +0.000 A 
BRANCH   5  15
ATOM     14  C   UNL     1      39.743   2.372  20.886  0.00  0.00    +0.000 C 
ATOM     15  O   UNL     1      39.069   1.512  19.970  0.00  0.00    +0.000 OA
ENDBRANCH   5  15
ENDBRANCH   1  12
BRANCH   3  16
ATOM     16  C   UNL     1      39.461  -2.525  19.716  0.00  0.00    +0.000 C 
BRANCH  16  17
ATOM     17  C   UNL     1      40.702  -3.253  19.251  0.00  0.00    +0.000 A 
ATOM     18  C   UNL     1      41.003  -3.354  17.886  0.00  0.00    +0.000 A 
ATOM     19  C   UNL     1      42.148  -4.036  17.452  0.00  0.00    +0.000 A 
ATOM     20  C   UNL     1      43.028  -4.624  18.368  0.00  0.00    +0.000 A 
ATOM     21  C   UNL     1      42.716  -4.539  19.731  0.00  0.00    +0.000 A 
ATOM     22  C   UNL     1      41.563  -3.869  20.168  0.00  0.00    +0.000 A 
BRANCH  20  23
ATOM     23  C   UNL     1      44.218  -5.390  17.950  0.00  0.00    +0.000 C 
ATOM     24  C   UNL     1      45.341  -5.524  18.676  0.00  0.00    +0.000 C 
BRANCH  24  25
ATOM     25  C   UNL     1      46.531  -6.278  18.248  0.00  0.00    +0.000 A 
ATOM     26  C   UNL     1      47.520  -5.750  17.414  0.00  0.00    +0.000 A 
ATOM     27  C   UNL     1      48.642  -6.513  17.086  0.00  0.00    +0.000 A 
ATOM     28  C   UNL     1      48.750  -7.787  17.617  0.00  0.00    +0.000 A 
ATOM     29  N   UNL     1      47.829  -8.334  18.438  0.00  0.00    +0.000 NA
ATOM     30  C   UNL     1      46.750  -7.568  18.735  0.00  0.00    +0.000 A 
ENDBRANCH  24  25
ENDBRANCH  20  23
ENDBRANCH  16  17
ENDBRANCH   3  16
TORSDOF 6
ENDMDL
MODEL 6
REMARK VINA RESULT:    -4.746     11.604     12.784
REMARK INTER + INTRA:          -7.661
REMARK INTER:                  -6.325
REMARK INTRA:                  -1.336
REMARK UNBOUND:                -1.250
REMARK  Name = 
REMARK  7 active torsions:
REMARK  status: ('A' for Active; 'I' for Inactive)
REMARK    1  A    between atoms: C_1  and  O_2
REMARK    2  A    between atoms: O_2  and  C_3
REMARK    3  A    between atoms: C_10  and  C_11
REMARK    4  A    between atoms: N_13  and  C_14
REMARK    5  A    between atoms: C_14  and  C_15
REMARK    6  A    between atoms: C_18  and  C_19
REMARK    7  A    between atoms: C_20  and  C_21
REMARK                            x       y       z     vdW  Elec       q    Type
REMARK                         _______ _______ _______ _____ _____    ______ ____
ROOT
ATOM      1  C   UNL     1      37.584  -0.982  11.972  0.00  0.00    +0.000 C 
ATOM      2  O   UNL     1      37.762   0.214  12.189  0.00  0.00    +0.000 OA
ATOM      3  N   UNL     1      37.454  -1.879  13.001  0.00  0.00    +0.000 N 
ATOM      4  H   UNL     1      37.246  -2.846  12.800  0.00  0.00    +0.000 HD
ENDROOT
BRANCH   1  12
ATOM      5  C   UNL     1      39.219  -3.510  10.310  0.00  0.00    +0.000 A 
ATOM      6  N   UNL     1      39.688  -4.433   9.449  0.00  0.00    +0.000 NA
ATOM      7  C   UNL     1      39.185  -4.448   8.214  0.00  0.00    +0.000 A 
ATOM      8  N   UNL     1      38.253  -3.637   7.717  0.00  0.00    +0.000 NA
ATOM      9  C   UNL     1      37.807  -2.740   8.612  0.00  0.00    +0.000 A 
ATOM     10  S   UNL     1      36.616  -1.620   8.155  0.00  0.00    +0.000 S 
ATOM     11  C   UNL     1      36.611  -0.917   9.705  0.00  0.00    +0.000 A 
ATOM     12  C   UNL     1      37.497  -1.511  10.597  0.00  0.00    +0.000 A 
ATOM     13  C   UNL     1      38.217  -2.598   9.934  0.00  0.00    +0.000 A 
BRANCH   5  15
ATOM     14  C   UNL     1      40.821  -2.632  11.763  0.00  0.00    +0.000 C 
ATOM     15  O   UNL     1      39.716  -3.517  11.595  0.00  0.00    +0.000 OA
ENDBRANCH   5  15
ENDBRANCH   1  12
BRANCH   3  16
ATOM     16  C   UNL     1      37.516  -1.493  14.390  0.00  0.00    +0.000 C 
BRANCH  16  17
ATOM     17  C   UNL     1      38.717  -2.095  15.083  0.00  0.00    +0.000 A 
ATOM     18  C   UNL     1      39.571  -1.297  15.856  0.00  0.00    +0.000 A 
ATOM     19  C   UNL     1      40.691  -1.851  16.493  0.00  0.00    +0.000 A 
ATOM     20  C   UNL     1      40.980  -3.217  16.385  0.00  0.00    +0.000 A 
ATOM     21  C   UNL     1      40.135  -4.010  15.596  0.00  0.00    +0.000 A 
ATOM     22  C   UNL     1      39.021  -3.455  14.946  0.00  0.00    +0.000 A 
BRANCH  20  23
ATOM     23  C   UNL     1      42.172  -3.829  17.000  0.00  0.00    +0.000 C 
ATOM     24  C   UNL     1      42.617  -5.072  16.747  0.00  0.00    +0.000 C 
BRANCH  24  25
ATOM     25  C   UNL     1      43.800  -5.683  17.374  0.00  0.00    +0.000 A 
ATOM     26  C   UNL     1      44.560  -5.055  18.363  0.00  0.00    +0.000 A 
ATOM     27  C   UNL     1      45.645  -5.716  18.942  0.00  0.00    +0.000 A 
ATOM     28  C   UNL     1      45.932  -7.003  18.520  0.00  0.00    +0.000 A 
ATOM     29  N   UNL     1      45.218  -7.657  17.579  0.00  0.00    +0.000 NA
ATOM     30  C   UNL     1      44.173  -6.986  17.035  0.00  0.00    +0.000 A 
ENDBRANCH  24  25
ENDBRANCH  20  23
ENDBRANCH  16  17
ENDBRANCH   3  16
TORSDOF 6
ENDMDL
MODEL 7
REMARK VINA RESULT:    -4.596     12.341     13.893
REMARK INTER + INTRA:          -7.458
REMARK INTER:                  -6.492
REMARK INTRA:                  -0.966
REMARK UNBOUND:                -1.250
REMARK  Name = 
REMARK  7 active torsions:
REMARK  status: ('A' for Active; 'I' for Inactive)
REMARK    1  A    between atoms: C_1  and  O_2
REMARK    2  A    between atoms: O_2  and  C_3
REMARK    3  A    between atoms: C_10  and  C_11
REMARK    4  A    between atoms: N_13  and  C_14
REMARK    5  A    between atoms: C_14  and  C_15
REMARK    6  A    between atoms: C_18  and  C_19
REMARK    7  A    between atoms: C_20  and  C_21
REMARK                            x       y       z     vdW  Elec       q    Type
REMARK                         _______ _______ _______ _____ _____    ______ ____
ROOT
ATOM      1  C   UNL     1      40.069  -2.775  11.557  0.00  0.00    +0.000 C 
ATOM      2  O   UNL     1      41.008  -1.984  11.606  0.00  0.00    +0.000 OA
ATOM      3  N   UNL     1      39.804  -3.627  12.597  0.00  0.00    +0.000 N 
ATOM      4  H   UNL     1      38.991  -4.225  12.562  0.00  0.00    +0.000 HD
ENDROOT
BRANCH   1  12
ATOM      5  C   UNL     1      37.599  -0.711  10.346  0.00  0.00    +0.000 A 
ATOM      6  N   UNL     1      36.621  -0.086   9.663  0.00  0.00    +0.000 NA
ATOM      7  C   UNL     1      36.164  -0.670   8.554  0.00  0.00    +0.000 A 
ATOM      8  N   UNL     1      36.566  -1.826   8.031  0.00  0.00    +0.000 NA
ATOM      9  C   UNL     1      37.548  -2.409   8.739  0.00  0.00    +0.000 A 
ATOM     10  S   UNL     1      38.187  -3.894   8.223  0.00  0.00    +0.000 S 
ATOM     11  C   UNL     1      39.270  -3.941   9.534  0.00  0.00    +0.000 A 
ATOM     12  C   UNL     1      39.179  -2.842  10.381  0.00  0.00    +0.000 A 
ATOM     13  C   UNL     1      38.140  -1.930   9.904  0.00  0.00    +0.000 A 
BRANCH   5  15
ATOM     14  C   UNL     1      37.063   0.403  12.327  0.00  0.00    +0.000 C 
ATOM     15  O   UNL     1      38.093  -0.091  11.474  0.00  0.00    +0.000 OA
ENDBRANCH   5  15
ENDBRANCH   1  12
BRANCH   3  16
ATOM     16  C   UNL     1      40.594  -3.660  13.805  0.00  0.00    +0.000 C 
BRANCH  16  17
ATOM     17  C   UNL     1      40.064  -2.698  14.843  0.00  0.00    +0.000 A 
ATOM     18  C   UNL     1      38.863  -2.008  14.632  0.00  0.00    +0.000 A 
ATOM     19  C   UNL     1      38.373  -1.108  15.589  0.00  0.00    +0.000 A 
ATOM     20  C   UNL     1      39.062  -0.884  16.787  0.00  0.00    +0.000 A 
ATOM     21  C   UNL     1      40.272  -1.561  16.989  0.00  0.00    +0.000 A 
ATOM     22  C   UNL     1      40.772  -2.452  16.027  0.00  0.00    +0.000 A 
BRANCH  20  23
ATOM     23  C   UNL     1      38.605   0.088  17.798  0.00  0.00    +0.000 C 
ATOM     24  C   UNL     1      38.504   1.414  17.601  0.00  0.00    +0.000 C 
BRANCH  24  25
ATOM     25  C   UNL     1      38.061   2.382  18.618  0.00  0.00    +0.000 A 
ATOM     26  C   UNL     1      37.250   3.483  18.333  0.00  0.00    +0.000 A 
ATOM     27  C   UNL     1      36.835   4.334  19.358  0.00  0.00    +0.000 A 
ATOM     28  C   UNL     1      37.234   4.048  20.652  0.00  0.00    +0.000 A 
ATOM     29  N   UNL     1      38.003   2.987  20.980  0.00  0.00    +0.000 NA
ATOM     30  C   UNL     1      38.392   2.183  19.960  0.00  0.00    +0.000 A 
ENDBRANCH  24  25
ENDBRANCH  20  23
ENDBRANCH  16  17
ENDBRANCH   3  16
TORSDOF 6
ENDMDL
MODEL 8
REMARK VINA RESULT:    -4.566     12.360     14.753
REMARK INTER + INTRA:          -7.418
REMARK INTER:                  -6.273
REMARK INTRA:                  -1.145
REMARK UNBOUND:                -1.250
REMARK  Name = 
REMARK  7 active torsions:
REMARK  status: ('A' for Active; 'I' for Inactive)
REMARK    1  A    between atoms: C_1  and  O_2
REMARK    2  A    between atoms: O_2  and  C_3
REMARK    3  A    between atoms: C_10  and  C_11
REMARK    4  A    between atoms: N_13  and  C_14
REMARK    5  A    between atoms: C_14  and  C_15
REMARK    6  A    between atoms: C_18  and  C_19
REMARK    7  A    between atoms: C_20  and  C_21
REMARK                            x       y       z     vdW  Elec       q    Type
REMARK                         _______ _______ _______ _____ _____    ______ ____
ROOT
ATOM      1  C   UNL     1      38.925  -1.364  17.770  0.00  0.00    +0.000 C 
ATOM      2  O   UNL     1      38.353  -2.355  18.218  0.00  0.00    +0.000 OA
ATOM      3  N   UNL     1      39.873  -1.477  16.785  0.00  0.00    +0.000 N 
ATOM      4  H   UNL     1      40.285  -0.644  16.389  0.00  0.00    +0.000 HD
ENDROOT
BRANCH   1  12
ATOM      5  C   UNL     1      37.749   1.490  16.255  0.00  0.00    +0.000 A 
ATOM      6  N   UNL     1      37.294   2.713  15.921  0.00  0.00    +0.000 NA
ATOM      7  C   UNL     1      37.214   3.634  16.882  0.00  0.00    +0.000 A 
ATOM      8  N   UNL     1      37.540   3.486  18.164  0.00  0.00    +0.000 NA
ATOM      9  C   UNL     1      37.980   2.250  18.455  0.00  0.00    +0.000 A 
ATOM     10  S   UNL     1      38.445   1.877  20.044  0.00  0.00    +0.000 S 
ATOM     11  C   UNL     1      38.835   0.280  19.608  0.00  0.00    +0.000 A 
ATOM     12  C   UNL     1      38.619  -0.008  18.265  0.00  0.00    +0.000 A 
ATOM     13  C   UNL     1      38.114   1.179  17.577  0.00  0.00    +0.000 A 
BRANCH   5  15
ATOM     14  C   UNL     1      36.998   0.859  14.137  0.00  0.00    +0.000 C 
ATOM     15  O   UNL     1      37.801   0.530  15.268  0.00  0.00    +0.000 OA
ENDBRANCH   5  15
ENDBRANCH   1  12
BRANCH   3  16
ATOM     16  C   UNL     1      40.263  -2.742  16.213  0.00  0.00    +0.000 C 
BRANCH  16  17
ATOM     17  C   UNL     1      40.068  -2.759  14.714  0.00  0.00    +0.000 A 
ATOM     18  C   UNL     1      38.809  -2.505  14.153  0.00  0.00    +0.000 A 
ATOM     19  C   UNL     1      38.623  -2.528  12.763  0.00  0.00    +0.000 A 
ATOM     20  C   UNL     1      39.691  -2.792  11.898  0.00  0.00    +0.000 A 
ATOM     21  C   UNL     1      40.945  -3.064  12.460  0.00  0.00    +0.000 A 
ATOM     22  C   UNL     1      41.131  -3.055  13.851  0.00  0.00    +0.000 A 
BRANCH  20  23
ATOM     23  C   UNL     1      39.528  -2.872  10.434  0.00  0.00    +0.000 C 
ATOM     24  C   UNL     1      39.342  -4.008   9.740  0.00  0.00    +0.000 C 
BRANCH  24  25
ATOM     25  C   UNL     1      39.193  -4.084   8.278  0.00  0.00    +0.000 A 
ATOM     26  C   UNL     1      40.002  -4.877   7.460  0.00  0.00    +0.000 A 
ATOM     27  C   UNL     1      39.772  -4.929   6.084  0.00  0.00    +0.000 A 
ATOM     28  C   UNL     1      38.723  -4.191   5.564  0.00  0.00    +0.000 A 
ATOM     29  N   UNL     1      37.906  -3.423   6.315  0.00  0.00    +0.000 NA
ATOM     30  C   UNL     1      38.158  -3.392   7.646  0.00  0.00    +0.000 A 
ENDBRANCH  24  25
ENDBRANCH  20  23
ENDBRANCH  16  17
ENDBRANCH   3  16
TORSDOF 6
ENDMDL
MODEL 9
REMARK VINA RESULT:    -4.562     10.955     11.922
REMARK INTER + INTRA:          -7.413
REMARK INTER:                  -6.368
REMARK INTRA:                  -1.045
REMARK UNBOUND:                -1.250
REMARK  Name = 
REMARK  7 active torsions:
REMARK  status: ('A' for Active; 'I' for Inactive)
REMARK    1  A    between atoms: C_1  and  O_2
REMARK    2  A    between atoms: O_2  and  C_3
REMARK    3  A    between atoms: C_10  and  C_11
REMARK    4  A    between atoms: N_13  and  C_14
REMARK    5  A    between atoms: C_14  and  C_15
REMARK    6  A    between atoms: C_18  and  C_19
REMARK    7  A    between atoms: C_20  and  C_21
REMARK                            x       y       z     vdW  Elec       q    Type
REMARK                         _______ _______ _______ _____ _____    ______ ____
ROOT
ATOM      1  C   UNL     1      38.862   0.110  19.835  0.00  0.00    +0.000 C 
ATOM      2  O   UNL     1      38.740   0.256  21.049  0.00  0.00    +0.000 OA
ATOM      3  N   UNL     1      39.292  -1.078  19.302  0.00  0.00    +0.000 N 
ATOM      4  H   UNL     1      39.325  -1.195  18.299  0.00  0.00    +0.000 HD
ENDROOT
BRANCH   1  12
ATOM      5  C   UNL     1      37.513   0.184  16.672  0.00  0.00    +0.000 A 
ATOM      6  N   UNL     1      37.003   0.490  15.464  0.00  0.00    +0.000 NA
ATOM      7  C   UNL     1      36.958   1.776  15.112  0.00  0.00    +0.000 A 
ATOM      8  N   UNL     1      37.369   2.819  15.830  0.00  0.00    +0.000 NA
ATOM      9  C   UNL     1      37.860   2.469  17.031  0.00  0.00    +0.000 A 
ATOM     10  S   UNL     1      38.435   3.669  18.085  0.00  0.00    +0.000 S 
ATOM     11  C   UNL     1      38.841   2.511  19.263  0.00  0.00    +0.000 A 
ATOM     12  C   UNL     1      38.549   1.203  18.893  0.00  0.00    +0.000 A 
ATOM     13  C   UNL     1      37.968   1.183  17.551  0.00  0.00    +0.000 A 
BRANCH   5  15
ATOM     14  C   UNL     1      37.952  -2.006  15.996  0.00  0.00    +0.000 C 
ATOM     15  O   UNL     1      37.529  -1.142  17.048  0.00  0.00    +0.000 OA
ENDBRANCH   5  15
ENDBRANCH   1  12
BRANCH   3  16
ATOM     16  C   UNL     1      39.627  -2.224  20.111  0.00  0.00    +0.000 C 
BRANCH  16  17
ATOM     17  C   UNL     1      40.739  -3.038  19.490  0.00  0.00    +0.000 A 
ATOM     18  C   UNL     1      40.863  -3.135  18.097  0.00  0.00    +0.000 A 
ATOM     19  C   UNL     1      41.888  -3.896  17.518  0.00  0.00    +0.000 A 
ATOM     20  C   UNL     1      42.824  -4.569  18.313  0.00  0.00    +0.000 A 
ATOM     21  C   UNL     1      42.688  -4.487  19.706  0.00  0.00    +0.000 A 
ATOM     22  C   UNL     1      41.654  -3.737  20.288  0.00  0.00    +0.000 A 
BRANCH  20  23
ATOM     23  C   UNL     1      43.888  -5.417  17.744  0.00  0.00    +0.000 C 
ATOM     24  C   UNL     1      45.162  -5.443  18.171  0.00  0.00    +0.000 C 
BRANCH  24  25
ATOM     25  C   UNL     1      46.224  -6.281  17.590  0.00  0.00    +0.000 A 
ATOM     26  C   UNL     1      47.572  -5.914  17.568  0.00  0.00    +0.000 A 
ATOM     27  C   UNL     1      48.528  -6.782  17.038  0.00  0.00    +0.000 A 
ATOM     28  C   UNL     1      48.107  -8.008  16.554  0.00  0.00    +0.000 A 
ATOM     29  N   UNL     1      46.819  -8.414  16.568  0.00  0.00    +0.000 NA
ATOM     30  C   UNL     1      45.916  -7.547  17.086  0.00  0.00    +0.000 A 
ENDBRANCH  24  25
ENDBRANCH  20  23
ENDBRANCH  16  17
ENDBRANCH   3  16
TORSDOF 6
ENDMDL
