MODEL 1
REMARK VINA RESULT:    -6.771      0.000      0.000
REMARK INTER + INTRA:          -8.966
REMARK INTER:                  -8.552
REMARK INTRA:                  -0.414
REMARK UNBOUND:                -0.414
REMARK  Name = 
REMARK  5 active torsions:
REMARK  status: ('A' for Active; 'I' for Inactive)
REMARK    1  A    between atoms: N_1  and  C_2
REMARK    2  A    between atoms: C_2  and  C_3
REMARK    3  A    between atoms: N_6  and  C_7
REMARK    4  A    between atoms: C_7  and  C_8
REMARK    5  A    between atoms: C_8  and  C_9
REMARK                            x       y       z     vdW  Elec       q    Type
REMARK                         _______ _______ _______ _____ _____    ______ ____
ROOT
ATOM      1  C   UNL     1      45.544   5.140  13.323  0.00  0.00    +0.000 C 
ATOM      2  C   UNL     1      44.538   3.996  13.151  0.00  0.00    +0.000 C 
ATOM      3  C   UNL     1      44.513   3.454  11.720  0.00  0.00    +0.000 C 
ATOM      4  N   UNL     1      44.211   4.510  10.741  0.00  0.00    +0.000 NA
ATOM      5  C   UNL     1      45.180   5.619  10.841  0.00  0.00    +0.000 C 
ATOM      6  C   UNL     1      45.249   6.204  12.254  0.00  0.00    +0.000 C 
ENDROOT
BRANCH   1   7
ATOM      7  C   UNL     1      46.987   4.596  13.288  0.00  0.00    +0.000 C 
BRANCH   7   8
ATOM      8  N   UNL     1      47.141   3.377  14.071  0.00  0.00    +0.000 NA
ATOM      9  H   UNL     1      48.002   2.908  13.792  0.00  0.00    +0.000 HD
ATOM     10  H   UNL     1      46.382   2.732  13.848  0.00  0.00    +0.000 HD
ENDBRANCH   7   8
ENDBRANCH   1   7
BRANCH   4  11
ATOM     11  C   UNL     1      44.187   3.991   9.355  0.00  0.00    +0.000 C 
BRANCH  11  12
ATOM     12  C   UNL     1      44.669   2.535   9.233  0.00  0.00    +0.000 C 
BRANCH  12  13
ATOM     13  C   UNL     1      45.719   2.361   8.171  0.00  0.00    +0.000 A 
ATOM     14  C   UNL     1      46.023   3.393   7.278  0.00  0.00    +0.000 A 
ATOM     15  C   UNL     1      47.017   3.208   6.322  0.00  0.00    +0.000 A 
ATOM     16  C   UNL     1      47.670   1.988   6.287  0.00  0.00    +0.000 A 
ATOM     17  N   UNL     1      47.395   0.963   7.121  0.00  0.00    +0.000 NA
ATOM     18  C   UNL     1      46.429   1.172   8.043  0.00  0.00    +0.000 A 
ENDBRANCH  12  13
ENDBRANCH  11  12
ENDBRANCH   4  11
TORSDOF 5
ENDMDL
MODEL 2
REMARK VINA RESULT:    -6.641      1.732      2.542
REMARK INTER + INTRA:          -8.802
REMARK INTER:                  -8.482
REMARK INTRA:                  -0.320
REMARK UNBOUND:                -0.414
REMARK  Name = 
REMARK  5 active torsions:
REMARK  status: ('A' for Active; 'I' for Inactive)
REMARK    1  A    between atoms: N_1  and  C_2
REMARK    2  A    between atoms: C_2  and  C_3
REMARK    3  A    between atoms: N_6  and  C_7
REMARK    4  A    between atoms: C_7  and  C_8
REMARK    5  A    between atoms: C_8  and  C_9
REMARK                            x       y       z     vdW  Elec       q    Type
REMARK                         _______ _______ _______ _____ _____    ______ ____
ROOT
ATOM      1  C   UNL     1      45.434   7.042  12.561  0.00  0.00    +0.000 C 
ATOM      2  C   UNL     1      46.454   6.336  11.660  0.00  0.00    +0.000 C 
ATOM      3  C   UNL     1      45.788   5.603  10.493  0.00  0.00    +0.000 C 
ATOM      4  N   UNL     1      44.798   4.620  10.959  0.00  0.00    +0.000 NA
ATOM      5  C   UNL     1      43.769   5.262  11.801  0.00  0.00    +0.000 C 
ATOM      6  C   UNL     1      44.377   6.013  12.989  0.00  0.00    +0.000 C 
ENDROOT
BRANCH   1   7
ATOM      7  C   UNL     1      44.854   8.281  11.848  0.00  0.00    +0.000 C 
BRANCH   7   8
ATOM      8  N   UNL     1      44.846   9.460  12.703  0.00  0.00    +0.000 NA
ATOM      9  H   UNL     1      43.881   9.755  12.855  0.00  0.00    +0.000 HD
ATOM     10  H   UNL     1      45.305  10.234  12.220  0.00  0.00    +0.000 HD
ENDBRANCH   7   8
ENDBRANCH   1   7
BRANCH   4  11
ATOM     11  C   UNL     1      44.150   3.908   9.834  0.00  0.00    +0.000 C 
BRANCH  11  12
ATOM     12  C   UNL     1      44.775   4.223   8.464  0.00  0.00    +0.000 C 
BRANCH  12  13
ATOM     13  C   UNL     1      45.636   3.103   7.950  0.00  0.00    +0.000 A 
ATOM     14  C   UNL     1      46.466   3.279   6.840  0.00  0.00    +0.000 A 
ATOM     15  C   UNL     1      47.268   2.229   6.404  0.00  0.00    +0.000 A 
ATOM     16  C   UNL     1      47.206   1.030   7.094  0.00  0.00    +0.000 A 
ATOM     17  N   UNL     1      46.407   0.817   8.161  0.00  0.00    +0.000 NA
ATOM     18  C   UNL     1      45.642   1.855   8.565  0.00  0.00    +0.000 A 
ENDBRANCH  12  13
ENDBRANCH  11  12
ENDBRANCH   4  11
TORSDOF 5
ENDMDL
MODEL 3
REMARK VINA RESULT:    -6.209      1.673      2.047
REMARK INTER + INTRA:          -8.256
REMARK INTER:                  -7.885
REMARK INTRA:                  -0.370
REMARK UNBOUND:                -0.414
REMARK  Name = 
REMARK  5 active torsions:
REMARK  status: ('A' for Active; 'I' for Inactive)
REMARK    1  A    between atoms: N_1  and  C_2
REMARK    2  A    between atoms: C_2  and  C_3
REMARK    3  A    between atoms: N_6  and  C_7
REMARK    4  A    between atoms: C_7  and  C_8
REMARK    5  A    between atoms: C_8  and  C_9
REMARK                            x       y       z     vdW  Elec       q    Type
REMARK                         _______ _______ _______ _____ _____    ______ ____
ROOT
ATOM      1  C   UNL     1      46.510   6.446  13.292  0.00  0.00    +0.000 C 
ATOM      2  C   UNL     1      45.961   5.036  13.534  0.00  0.00    +0.000 C 
ATOM      3  C   UNL     1      45.370   4.416  12.265  0.00  0.00    +0.000 C 
ATOM      4  N   UNL     1      44.305   5.254  11.693  0.00  0.00    +0.000 NA
ATOM      5  C   UNL     1      44.799   6.615  11.404  0.00  0.00    +0.000 C 
ATOM      6  C   UNL     1      45.403   7.288  12.640  0.00  0.00    +0.000 C 
ENDROOT
BRANCH   1   7
ATOM      7  C   UNL     1      47.815   6.381  12.472  0.00  0.00    +0.000 C 
BRANCH   7   8
ATOM      8  N   UNL     1      49.003   6.436  13.313  0.00  0.00    +0.000 NA
ATOM      9  H   UNL     1      48.760   6.863  14.207  0.00  0.00    +0.000 HD
ATOM     10  H   UNL     1      49.695   7.052  12.885  0.00  0.00    +0.000 HD
ENDBRANCH   7   8
ENDBRANCH   1   7
BRANCH   4  11
ATOM     11  C   UNL     1      43.731   4.660  10.465  0.00  0.00    +0.000 C 
BRANCH  11  12
ATOM     12  C   UNL     1      44.164   3.203  10.224  0.00  0.00    +0.000 C 
BRANCH  12  13
ATOM     13  C   UNL     1      45.136   3.071   9.084  0.00  0.00    +0.000 A 
ATOM     14  C   UNL     1      45.683   1.832   8.740  0.00  0.00    +0.000 A 
ATOM     15  C   UNL     1      46.561   1.740   7.664  0.00  0.00    +0.000 A 
ATOM     16  C   UNL     1      46.868   2.898   6.971  0.00  0.00    +0.000 A 
ATOM     17  N   UNL     1      46.372   4.115   7.282  0.00  0.00    +0.000 NA
ATOM     18  C   UNL     1      45.518   4.174   8.328  0.00  0.00    +0.000 A 
ENDBRANCH  12  13
ENDBRANCH  11  12
ENDBRANCH   4  11
TORSDOF 5
ENDMDL
MODEL 4
REMARK VINA RESULT:    -5.509      3.359      6.127
REMARK INTER + INTRA:          -7.371
REMARK INTER:                  -6.909
REMARK INTRA:                  -0.462
REMARK UNBOUND:                -0.414
REMARK  Name = 
REMARK  5 active torsions:
REMARK  status: ('A' for Active; 'I' for Inactive)
REMARK    1  A    between atoms: N_1  and  C_2
REMARK    2  A    between atoms: C_2  and  C_3
REMARK    3  A    between atoms: N_6  and  C_7
REMARK    4  A    between atoms: C_7  and  C_8
REMARK    5  A    between atoms: C_8  and  C_9
REMARK                            x       y       z     vdW  Elec       q    Type
REMARK                         _______ _______ _______ _____ _____    ______ ____
ROOT
ATOM      1  C   UNL     1      43.035   4.206  11.347  0.00  0.00    +0.000 C 
ATOM      2  C   UNL     1      44.039   4.695  10.297  0.00  0.00    +0.000 C 
ATOM      3  C   UNL     1      45.254   5.378  10.929  0.00  0.00    +0.000 C 
ATOM      4  N   UNL     1      44.862   6.511  11.782  0.00  0.00    +0.000 NA
ATOM      5  C   UNL     1      43.924   6.080  12.837  0.00  0.00    +0.000 C 
ATOM      6  C   UNL     1      42.684   5.388  12.264  0.00  0.00    +0.000 C 
ENDROOT
BRANCH   1   7
ATOM      7  C   UNL     1      43.593   2.977  12.093  0.00  0.00    +0.000 C 
BRANCH   7   8
ATOM      8  N   UNL     1      42.973   1.733  11.656  0.00  0.00    +0.000 NA
ATOM      9  H   UNL     1      42.182   1.523  12.265  0.00  0.00    +0.000 HD
ATOM     10  H   UNL     1      43.633   0.964  11.774  0.00  0.00    +0.000 HD
ENDBRANCH   7   8
ENDBRANCH   1   7
BRANCH   4  11
ATOM     11  C   UNL     1      46.034   7.175  12.397  0.00  0.00    +0.000 C 
BRANCH  11  12
ATOM     12  C   UNL     1      47.276   6.272  12.489  0.00  0.00    +0.000 C 
BRANCH  12  13
ATOM     13  C   UNL     1      47.490   5.723  13.873  0.00  0.00    +0.000 A 
ATOM     14  C   UNL     1      48.302   6.385  14.797  0.00  0.00    +0.000 A 
ATOM     15  C   UNL     1      48.460   5.863  16.076  0.00  0.00    +0.000 A 
ATOM     16  C   UNL     1      47.801   4.686  16.386  0.00  0.00    +0.000 A 
ATOM     17  N   UNL     1      47.021   4.009  15.518  0.00  0.00    +0.000 NA
ATOM     18  C   UNL     1      46.881   4.541  14.283  0.00  0.00    +0.000 A 
ENDBRANCH  12  13
ENDBRANCH  11  12
ENDBRANCH   4  11
TORSDOF 5
ENDMDL
MODEL 5
REMARK VINA RESULT:    -5.333      1.302      5.871
REMARK INTER + INTRA:          -7.149
REMARK INTER:                  -6.707
REMARK INTRA:                  -0.443
REMARK UNBOUND:                -0.414
REMARK  Name = 
REMARK  5 active torsions:
REMARK  status: ('A' for Active; 'I' for Inactive)
REMARK    1  A    between atoms: N_1  and  C_2
REMARK    2  A    between atoms: C_2  and  C_3
REMARK    3  A    between atoms: N_6  and  C_7
REMARK    4  A    between atoms: C_7  and  C_8
REMARK    5  A    between atoms: C_8  and  C_9
REMARK                            x       y       z     vdW  Elec       q    Type
REMARK                         _______ _______ _______ _____ _____    ______ ____
ROOT
ATOM      1  C   UNL     1      46.328   2.168   7.084  0.00  0.00    +0.000 C 
ATOM      2  C   UNL     1      45.219   3.183   6.786  0.00  0.00    +0.000 C 
ATOM      3  C   UNL     1      44.854   4.021   8.013  0.00  0.00    +0.000 C 
ATOM      4  N   UNL     1      44.441   3.179   9.147  0.00  0.00    +0.000 NA
ATOM      5  C   UNL     1      45.496   2.208   9.498  0.00  0.00    +0.000 C 
ATOM      6  C   UNL     1      45.904   1.338   8.306  0.00  0.00    +0.000 C 
ENDROOT
BRANCH   1   7
ATOM      7  C   UNL     1      47.683   2.884   7.250  0.00  0.00    +0.000 C 
BRANCH   7   8
ATOM      8  N   UNL     1      48.649   2.489   6.233  0.00  0.00    +0.000 NA
ATOM      9  H   UNL     1      49.485   3.065   6.326  0.00  0.00    +0.000 HD
ATOM     10  H   UNL     1      48.269   2.689   5.308  0.00  0.00    +0.000 HD
ENDBRANCH   7   8
ENDBRANCH   1   7
BRANCH   4  11
ATOM     11  C   UNL     1      44.087   3.985  10.337  0.00  0.00    +0.000 C 
BRANCH  11  12
ATOM     12  C   UNL     1      45.010   5.196  10.558  0.00  0.00    +0.000 C 
BRANCH  12  13
ATOM     13  C   UNL     1      45.743   5.133  11.869  0.00  0.00    +0.000 A 
ATOM     14  C   UNL     1      46.650   6.129  12.240  0.00  0.00    +0.000 A 
ATOM     15  C   UNL     1      47.295   6.052  13.471  0.00  0.00    +0.000 A 
ATOM     16  C   UNL     1      47.013   4.971  14.289  0.00  0.00    +0.000 A 
ATOM     17  N   UNL     1      46.156   3.982  13.959  0.00  0.00    +0.000 NA
ATOM     18  C   UNL     1      45.540   4.084  12.761  0.00  0.00    +0.000 A 
ENDBRANCH  12  13
ENDBRANCH  11  12
ENDBRANCH   4  11
TORSDOF 5
ENDMDL
MODEL 6
REMARK VINA RESULT:    -5.164      2.364      6.076
REMARK INTER + INTRA:          -6.936
REMARK INTER:                  -6.608
REMARK INTRA:                  -0.328
REMARK UNBOUND:                -0.414
REMARK  Name = 
REMARK  5 active torsions:
REMARK  status: ('A' for Active; 'I' for Inactive)
REMARK    1  A    between atoms: N_1  and  C_2
REMARK    2  A    between atoms: C_2  and  C_3
REMARK    3  A    between atoms: N_6  and  C_7
REMARK    4  A    between atoms: C_7  and  C_8
REMARK    5  A    between atoms: C_8  and  C_9
REMARK                            x       y       z     vdW  Elec       q    Type
REMARK                         _______ _______ _______ _____ _____    ______ ____
ROOT
ATOM      1  C   UNL     1      44.642   2.666   8.711  0.00  0.00    +0.000 C 
ATOM      2  C   UNL     1      44.692   4.175   8.446  0.00  0.00    +0.000 C 
ATOM      3  C   UNL     1      45.482   4.927   9.519  0.00  0.00    +0.000 C 
ATOM      4  N   UNL     1      44.935   4.694  10.865  0.00  0.00    +0.000 NA
ATOM      5  C   UNL     1      44.905   3.253  11.183  0.00  0.00    +0.000 C 
ATOM      6  C   UNL     1      44.125   2.445  10.141  0.00  0.00    +0.000 C 
ENDROOT
BRANCH   1   7
ATOM      7  C   UNL     1      46.018   2.026   8.435  0.00  0.00    +0.000 C 
BRANCH   7   8
ATOM      8  N   UNL     1      46.592   2.467   7.171  0.00  0.00    +0.000 NA
ATOM      9  H   UNL     1      45.853   2.525   6.471  0.00  0.00    +0.000 HD
ATOM     10  H   UNL     1      47.248   1.762   6.831  0.00  0.00    +0.000 HD
ENDBRANCH   7   8
ENDBRANCH   1   7
BRANCH   4  11
ATOM     11  C   UNL     1      45.696   5.419  11.907  0.00  0.00    +0.000 C 
BRANCH  11  12
ATOM     12  C   UNL     1      46.475   6.633  11.369  0.00  0.00    +0.000 C 
BRANCH  12  13
ATOM     13  C   UNL     1      47.702   6.939  12.183  0.00  0.00    +0.000 A 
ATOM     14  C   UNL     1      48.693   7.798  11.703  0.00  0.00    +0.000 A 
ATOM     15  C   UNL     1      49.805   8.079  12.491  0.00  0.00    +0.000 A 
ATOM     16  C   UNL     1      49.890   7.481  13.736  0.00  0.00    +0.000 A 
ATOM     17  N   UNL     1      48.962   6.634  14.229  0.00  0.00    +0.000 NA
ATOM     18  C   UNL     1      47.890   6.382  13.444  0.00  0.00    +0.000 A 
ENDBRANCH  12  13
ENDBRANCH  11  12
ENDBRANCH   4  11
TORSDOF 5
ENDMDL
MODEL 7
REMARK VINA RESULT:    -5.084      3.707      6.277
REMARK INTER + INTRA:          -6.834
REMARK INTER:                  -6.587
REMARK INTRA:                  -0.248
REMARK UNBOUND:                -0.414
REMARK  Name = 
REMARK  5 active torsions:
REMARK  status: ('A' for Active; 'I' for Inactive)
REMARK    1  A    between atoms: N_1  and  C_2
REMARK    2  A    between atoms: C_2  and  C_3
REMARK    3  A    between atoms: N_6  and  C_7
REMARK    4  A    between atoms: C_7  and  C_8
REMARK    5  A    between atoms: C_8  and  C_9
REMARK                            x       y       z     vdW  Elec       q    Type
REMARK                         _______ _______ _______ _____ _____    ______ ____
ROOT
ATOM      1  C   UNL     1      49.450   4.066  18.171  0.00  0.00    +0.000 C 
ATOM      2  C   UNL     1      49.731   5.221  17.203  0.00  0.00    +0.000 C 
ATOM      3  C   UNL     1      48.503   5.592  16.369  0.00  0.00    +0.000 C 
ATOM      4  N   UNL     1      47.991   4.441  15.609  0.00  0.00    +0.000 NA
ATOM      5  C   UNL     1      47.667   3.314  16.505  0.00  0.00    +0.000 C 
ATOM      6  C   UNL     1      48.862   2.897  17.367  0.00  0.00    +0.000 C 
ENDROOT
BRANCH   1   7
ATOM      7  C   UNL     1      48.554   4.544  19.332  0.00  0.00    +0.000 C 
BRANCH   7   8
ATOM      8  N   UNL     1      48.462   3.561  20.404  0.00  0.00    +0.000 NA
ATOM      9  H   UNL     1      48.306   2.639  19.998  0.00  0.00    +0.000 HD
ATOM     10  H   UNL     1      47.642   3.761  20.978  0.00  0.00    +0.000 HD
ENDBRANCH   7   8
ENDBRANCH   1   7
BRANCH   4  11
ATOM     11  C   UNL     1      46.802   4.794  14.800  0.00  0.00    +0.000 C 
BRANCH  11  12
ATOM     12  C   UNL     1      46.689   3.997  13.489  0.00  0.00    +0.000 C 
BRANCH  12  13
ATOM     13  C   UNL     1      45.382   4.228  12.783  0.00  0.00    +0.000 A 
ATOM     14  C   UNL     1      44.805   5.500  12.725  0.00  0.00    +0.000 A 
ATOM     15  C   UNL     1      43.607   5.684  12.043  0.00  0.00    +0.000 A 
ATOM     16  C   UNL     1      43.020   4.582  11.446  0.00  0.00    +0.000 A 
ATOM     17  N   UNL     1      43.537   3.336  11.493  0.00  0.00    +0.000 NA
ATOM     18  C   UNL     1      44.704   3.187  12.157  0.00  0.00    +0.000 A 
ENDBRANCH  12  13
ENDBRANCH  11  12
ENDBRANCH   4  11
TORSDOF 5
ENDMDL
MODEL 8
REMARK VINA RESULT:    -5.063      2.843      5.938
REMARK INTER + INTRA:          -6.809
REMARK INTER:                  -6.393
REMARK INTRA:                  -0.415
REMARK UNBOUND:                -0.414
REMARK  Name = 
REMARK  5 active torsions:
REMARK  status: ('A' for Active; 'I' for Inactive)
REMARK    1  A    between atoms: N_1  and  C_2
REMARK    2  A    between atoms: C_2  and  C_3
REMARK    3  A    between atoms: N_6  and  C_7
REMARK    4  A    between atoms: C_7  and  C_8
REMARK    5  A    between atoms: C_8  and  C_9
REMARK                            x       y       z     vdW  Elec       q    Type
REMARK                         _______ _______ _______ _____ _____    ______ ____
ROOT
ATOM      1  C   UNL     1      43.614   3.330  11.293  0.00  0.00    +0.000 C 
ATOM      2  C   UNL     1      42.811   4.620  11.490  0.00  0.00    +0.000 C 
ATOM      3  C   UNL     1      43.711   5.854  11.592  0.00  0.00    +0.000 C 
ATOM      4  N   UNL     1      44.691   5.727  12.682  0.00  0.00    +0.000 NA
ATOM      5  C   UNL     1      45.518   4.516  12.514  0.00  0.00    +0.000 C 
ATOM      6  C   UNL     1      44.671   3.245  12.405  0.00  0.00    +0.000 C 
ENDROOT
BRANCH   1   7
ATOM      7  C   UNL     1      44.198   3.272   9.866  0.00  0.00    +0.000 C 
BRANCH   7   8
ATOM      8  N   UNL     1      44.822   1.990   9.572  0.00  0.00    +0.000 NA
ATOM      9  H   UNL     1      45.833   2.080   9.669  0.00  0.00    +0.000 HD
ATOM     10  H   UNL     1      44.653   1.745   8.596  0.00  0.00    +0.000 HD
ENDBRANCH   7   8
ENDBRANCH   1   7
BRANCH   4  11
ATOM     11  C   UNL     1      45.564   6.918  12.785  0.00  0.00    +0.000 C 
BRANCH  11  12
ATOM     12  C   UNL     1      46.687   6.952  11.733  0.00  0.00    +0.000 C 
BRANCH  12  13
ATOM     13  C   UNL     1      48.027   7.286  12.328  0.00  0.00    +0.000 A 
ATOM     14  C   UNL     1      48.938   8.099  11.649  0.00  0.00    +0.000 A 
ATOM     15  C   UNL     1      50.160   8.408  12.238  0.00  0.00    +0.000 A 
ATOM     16  C   UNL     1      50.432   7.883  13.490  0.00  0.00    +0.000 A 
ATOM     17  N   UNL     1      49.585   7.083  14.171  0.00  0.00    +0.000 NA
ATOM     18  C   UNL     1      48.403   6.803  13.577  0.00  0.00    +0.000 A 
ENDBRANCH  12  13
ENDBRANCH  11  12
ENDBRANCH   4  11
TORSDOF 5
ENDMDL
MODEL 9
REMARK VINA RESULT:    -4.878      3.959      6.187
REMARK INTER + INTRA:          -6.575
REMARK INTER:                  -6.230
REMARK INTRA:                  -0.345
REMARK UNBOUND:                -0.414
REMARK  Name = 
REMARK  5 active torsions:
REMARK  status: ('A' for Active; 'I' for Inactive)
REMARK    1  A    between atoms: N_1  and  C_2
REMARK    2  A    between atoms: C_2  and  C_3
REMARK    3  A    between atoms: N_6  and  C_7
REMARK    4  A    between atoms: C_7  and  C_8
REMARK    5  A    between atoms: C_8  and  C_9
REMARK                            x       y       z     vdW  Elec       q    Type
REMARK                         _______ _______ _______ _____ _____    ______ ____
ROOT
ATOM      1  C   UNL     1      49.171   3.626  18.039  0.00  0.00    +0.000 C 
ATOM      2  C   UNL     1      47.982   2.871  17.433  0.00  0.00    +0.000 C 
ATOM      3  C   UNL     1      47.700   3.296  15.990  0.00  0.00    +0.000 C 
ATOM      4  N   UNL     1      47.455   4.743  15.884  0.00  0.00    +0.000 NA
ATOM      5  C   UNL     1      48.593   5.514  16.421  0.00  0.00    +0.000 C 
ATOM      6  C   UNL     1      48.924   5.132  17.866  0.00  0.00    +0.000 C 
ENDROOT
BRANCH   1   7
ATOM      7  C   UNL     1      50.494   3.131  17.420  0.00  0.00    +0.000 C 
BRANCH   7   8
ATOM      8  N   UNL     1      50.795   1.752  17.780  0.00  0.00    +0.000 NA
ATOM      9  H   UNL     1      50.199   1.473  18.560  0.00  0.00    +0.000 HD
ATOM     10  H   UNL     1      51.754   1.691  18.122  0.00  0.00    +0.000 HD
ENDBRANCH   7   8
ENDBRANCH   1   7
BRANCH   4  11
ATOM     11  C   UNL     1      47.181   5.159  14.490  0.00  0.00    +0.000 C 
BRANCH  11  12
ATOM     12  C   UNL     1      46.742   4.002  13.576  0.00  0.00    +0.000 C 
BRANCH  12  13
ATOM     13  C   UNL     1      45.409   4.252  12.928  0.00  0.00    +0.000 A 
ATOM     14  C   UNL     1      44.772   3.261  12.176  0.00  0.00    +0.000 A 
ATOM     15  C   UNL     1      43.527   3.517  11.609  0.00  0.00    +0.000 A 
ATOM     16  C   UNL     1      42.964   4.766  11.808  0.00  0.00    +0.000 A 
ATOM     17  N   UNL     1      43.555   5.754  12.513  0.00  0.00    +0.000 NA
ATOM     18  C   UNL     1      44.760   5.476  13.057  0.00  0.00    +0.000 A 
ENDBRANCH  12  13
ENDBRANCH  11  12
ENDBRANCH   4  11
TORSDOF 5
ENDMDL
