MODEL 1
REMARK VINA RESULT:    -8.796      0.000      0.000
REMARK INTER + INTRA:         -12.934
REMARK INTER:                 -11.882
REMARK INTRA:                  -1.053
REMARK UNBOUND:                -1.053
REMARK  Name = 
REMARK  6 active torsions:
REMARK  status: ('A' for Active; 'I' for Inactive)
REMARK    1  A    between atoms: C_2  and  C_4
REMARK    2  A    between atoms: N_8  and  C_9
REMARK    3  A    between atoms: C_9  and  C_10
REMARK    4  A    between atoms: C_10  and  C_13
REMARK    5  A    between atoms: C_17  and  C_18
REMARK    6  A    between atoms: C_18  and  C_19
REMARK                            x       y       z     vdW  Elec       q    Type
REMARK                         _______ _______ _______ _____ _____    ______ ____
ROOT
ATOM      1  C   UNL     1      43.410   4.519  10.973  0.00  0.00    +0.000 C 
ENDROOT
BRANCH   1   6
ATOM      2  C   UNL     1      46.539   2.632   7.475  0.00  0.00    +0.000 A 
ATOM      3  C   UNL     1      45.964   3.893   7.579  0.00  0.00    +0.000 A 
ATOM      4  C   UNL     1      44.967   4.104   8.524  0.00  0.00    +0.000 A 
ATOM      5  C   UNL     1      44.557   3.067   9.361  0.00  0.00    +0.000 A 
ATOM      6  N   UNL     1      43.531   3.222  10.288  0.00  0.00    +0.000 N 
ATOM      7  N   UNL     1      45.102   1.839   9.266  0.00  0.00    +0.000 NA
ATOM      8  C   UNL     1      46.065   1.640   8.318  0.00  0.00    +0.000 A 
ATOM      9  H   UNL     1      43.488   2.394  10.878  0.00  0.00    +0.000 HD
BRANCH   2  11
ATOM     10  N   UNL     1      47.663   3.144   5.388  0.00  0.00    +0.000 N 
ATOM     11  C   UNL     1      47.587   2.330   6.484  0.00  0.00    +0.000 C 
ATOM     12  O   UNL     1      48.376   1.405   6.644  0.00  0.00    +0.000 OA
ATOM     13  H   UNL     1      48.433   2.982   4.751  0.00  0.00    +0.000 HD
ATOM     14  H   UNL     1      47.196   4.038   5.337  0.00  0.00    +0.000 HD
ENDBRANCH   2  11
ENDBRANCH   1   6
BRANCH   1  15
ATOM     15  C   UNL     1      43.809   4.511  12.470  0.00  0.00    +0.000 C 
ATOM     16  F   UNL     1      42.860   5.180  13.189  0.00  0.00    +0.000 F 
ATOM     17  F   UNL     1      43.768   3.221  12.922  0.00  0.00    +0.000 F 
BRANCH  15  18
ATOM     18  C   UNL     1      45.189   5.135  12.635  0.00  0.00    +0.000 A 
ATOM     19  C   UNL     1      45.713   5.985  11.648  0.00  0.00    +0.000 A 
ATOM     20  C   UNL     1      46.984   6.541  11.798  0.00  0.00    +0.000 A 
ATOM     21  C   UNL     1      47.741   6.272  12.941  0.00  0.00    +0.000 A 
ATOM     22  C   UNL     1      47.230   5.449  13.953  0.00  0.00    +0.000 A 
ATOM     23  C   UNL     1      45.965   4.865  13.776  0.00  0.00    +0.000 A 
BRANCH  22  24
ATOM     24  C   UNL     1      47.969   5.270  15.262  0.00  0.00    +0.000 C 
BRANCH  24  25
ATOM     25  C   UNL     1      47.440   4.113  16.098  0.00  0.00    +0.000 C 
ATOM     26  C   UNL     1      47.264   4.237  17.625  0.00  0.00    +0.000 C 
ATOM     27  C   UNL     1      48.085   2.950  17.680  0.00  0.00    +0.000 C 
ATOM     28  O   UNL     1      48.501   3.126  16.303  0.00  0.00    +0.000 OA
ENDBRANCH  24  25
ENDBRANCH  22  24
ENDBRANCH  15  18
ENDBRANCH   1  15
TORSDOF 6
ENDMDL
MODEL 2
REMARK VINA RESULT:    -8.226      2.665      4.137
REMARK INTER + INTRA:         -12.164
REMARK INTER:                 -11.257
REMARK INTRA:                  -0.907
REMARK UNBOUND:                -1.053
REMARK  Name = 
REMARK  6 active torsions:
REMARK  status: ('A' for Active; 'I' for Inactive)
REMARK    1  A    between atoms: C_2  and  C_4
REMARK    2  A    between atoms: N_8  and  C_9
REMARK    3  A    between atoms: C_9  and  C_10
REMARK    4  A    between atoms: C_10  and  C_13
REMARK    5  A    between atoms: C_17  and  C_18
REMARK    6  A    between atoms: C_18  and  C_19
REMARK                            x       y       z     vdW  Elec       q    Type
REMARK                         _______ _______ _______ _____ _____    ______ ____
ROOT
ATOM      1  C   UNL     1      43.502   4.511  11.155  0.00  0.00    +0.000 C 
ENDROOT
BRANCH   1   6
ATOM      2  C   UNL     1      46.480   2.674   7.503  0.00  0.00    +0.000 A 
ATOM      3  C   UNL     1      45.960   3.950   7.679  0.00  0.00    +0.000 A 
ATOM      4  C   UNL     1      44.991   4.154   8.655  0.00  0.00    +0.000 A 
ATOM      5  C   UNL     1      44.556   3.095   9.451  0.00  0.00    +0.000 A 
ATOM      6  N   UNL     1      43.556   3.246  10.406  0.00  0.00    +0.000 N 
ATOM      7  N   UNL     1      45.048   1.852   9.285  0.00  0.00    +0.000 NA
ATOM      8  C   UNL     1      45.983   1.661   8.308  0.00  0.00    +0.000 A 
ATOM      9  H   UNL     1      43.491   2.392  10.957  0.00  0.00    +0.000 HD
BRANCH   2  11
ATOM     10  N   UNL     1      47.496   3.163   5.355  0.00  0.00    +0.000 N 
ATOM     11  C   UNL     1      47.496   2.379   6.475  0.00  0.00    +0.000 C 
ATOM     12  O   UNL     1      48.323   1.486   6.626  0.00  0.00    +0.000 OA
ATOM     13  H   UNL     1      48.243   3.008   4.690  0.00  0.00    +0.000 HD
ATOM     14  H   UNL     1      46.996   4.038   5.300  0.00  0.00    +0.000 HD
ENDBRANCH   2  11
ENDBRANCH   1   6
BRANCH   1  15
ATOM     15  C   UNL     1      44.003   4.430  12.619  0.00  0.00    +0.000 C 
ATOM     16  F   UNL     1      42.958   4.677  13.463  0.00  0.00    +0.000 F 
ATOM     17  F   UNL     1      44.384   3.143  12.876  0.00  0.00    +0.000 F 
BRANCH  15  18
ATOM     18  C   UNL     1      45.143   5.420  12.825  0.00  0.00    +0.000 A 
ATOM     19  C   UNL     1      46.339   5.019  13.440  0.00  0.00    +0.000 A 
ATOM     20  C   UNL     1      47.373   5.934  13.638  0.00  0.00    +0.000 A 
ATOM     21  C   UNL     1      47.234   7.257  13.211  0.00  0.00    +0.000 A 
ATOM     22  C   UNL     1      46.061   7.677  12.570  0.00  0.00    +0.000 A 
ATOM     23  C   UNL     1      45.013   6.757  12.408  0.00  0.00    +0.000 A 
BRANCH  22  24
ATOM     24  C   UNL     1      45.954   9.060  11.966  0.00  0.00    +0.000 C 
BRANCH  24  25
ATOM     25  C   UNL     1      44.548   9.640  12.036  0.00  0.00    +0.000 C 
ATOM     26  C   UNL     1      43.665   9.766  10.778  0.00  0.00    +0.000 C 
ATOM     27  C   UNL     1      43.504  11.222  11.212  0.00  0.00    +0.000 C 
ATOM     28  O   UNL     1      44.619  11.099  12.129  0.00  0.00    +0.000 OA
ENDBRANCH  24  25
ENDBRANCH  22  24
ENDBRANCH  15  18
ENDBRANCH   1  15
TORSDOF 6
ENDMDL
MODEL 3
REMARK VINA RESULT:    -7.720      3.168      7.865
REMARK INTER + INTRA:         -11.481
REMARK INTER:                 -10.572
REMARK INTRA:                  -0.909
REMARK UNBOUND:                -1.053
REMARK  Name = 
REMARK  6 active torsions:
REMARK  status: ('A' for Active; 'I' for Inactive)
REMARK    1  A    between atoms: C_2  and  C_4
REMARK    2  A    between atoms: N_8  and  C_9
REMARK    3  A    between atoms: C_9  and  C_10
REMARK    4  A    between atoms: C_10  and  C_13
REMARK    5  A    between atoms: C_17  and  C_18
REMARK    6  A    between atoms: C_18  and  C_19
REMARK                            x       y       z     vdW  Elec       q    Type
REMARK                         _______ _______ _______ _____ _____    ______ ____
ROOT
ATOM      1  C   UNL     1      46.935   6.218  12.457  0.00  0.00    +0.000 C 
ENDROOT
BRANCH   1   6
ATOM      2  C   UNL     1      48.454   4.092  16.788  0.00  0.00    +0.000 A 
ATOM      3  C   UNL     1      47.484   3.684  15.880  0.00  0.00    +0.000 A 
ATOM      4  C   UNL     1      47.103   4.555  14.865  0.00  0.00    +0.000 A 
ATOM      5  C   UNL     1      47.692   5.813  14.756  0.00  0.00    +0.000 A 
ATOM      6  N   UNL     1      47.306   6.732  13.785  0.00  0.00    +0.000 N 
ATOM      7  N   UNL     1      48.628   6.222  15.634  0.00  0.00    +0.000 NA
ATOM      8  C   UNL     1      48.978   5.366  16.638  0.00  0.00    +0.000 A 
ATOM      9  H   UNL     1      47.949   7.521  13.800  0.00  0.00    +0.000 HD
BRANCH   2  11
ATOM     10  N   UNL     1      48.241   3.368  19.093  0.00  0.00    +0.000 N 
ATOM     11  C   UNL     1      48.895   3.230  17.900  0.00  0.00    +0.000 C 
ATOM     12  O   UNL     1      49.792   2.405  17.759  0.00  0.00    +0.000 OA
ATOM     13  H   UNL     1      48.493   2.721  19.829  0.00  0.00    +0.000 HD
ATOM     14  H   UNL     1      47.361   3.856  19.182  0.00  0.00    +0.000 HD
ENDBRANCH   2  11
ENDBRANCH   1   6
BRANCH   1  15
ATOM     15  C   UNL     1      45.433   6.348  12.098  0.00  0.00    +0.000 C 
ATOM     16  F   UNL     1      44.719   6.569  13.240  0.00  0.00    +0.000 F 
ATOM     17  F   UNL     1      45.266   7.472  11.338  0.00  0.00    +0.000 F 
BRANCH  15  18
ATOM     18  C   UNL     1      44.970   5.090  11.375  0.00  0.00    +0.000 A 
ATOM     19  C   UNL     1      44.248   4.097  12.055  0.00  0.00    +0.000 A 
ATOM     20  C   UNL     1      43.840   2.940  11.390  0.00  0.00    +0.000 A 
ATOM     21  C   UNL     1      44.132   2.766  10.035  0.00  0.00    +0.000 A 
ATOM     22  C   UNL     1      44.829   3.753   9.326  0.00  0.00    +0.000 A 
ATOM     23  C   UNL     1      45.265   4.897  10.014  0.00  0.00    +0.000 A 
BRANCH  22  24
ATOM     24  C   UNL     1      45.020   3.652   7.829  0.00  0.00    +0.000 C 
BRANCH  24  25
ATOM     25  C   UNL     1      46.443   3.295   7.426  0.00  0.00    +0.000 C 
ATOM     26  C   UNL     1      46.793   2.883   5.982  0.00  0.00    +0.000 C 
ATOM     27  C   UNL     1      47.448   1.670   6.639  0.00  0.00    +0.000 C 
ATOM     28  O   UNL     1      46.764   1.943   7.887  0.00  0.00    +0.000 OA
ENDBRANCH  24  25
ENDBRANCH  22  24
ENDBRANCH  15  18
ENDBRANCH   1  15
TORSDOF 6
ENDMDL
MODEL 4
REMARK VINA RESULT:    -7.596      1.854      2.263
REMARK INTER + INTRA:         -11.313
REMARK INTER:                 -10.419
REMARK INTRA:                  -0.895
REMARK UNBOUND:                -1.053
REMARK  Name = 
REMARK  6 active torsions:
REMARK  status: ('A' for Active; 'I' for Inactive)
REMARK    1  A    between atoms: C_2  and  C_4
REMARK    2  A    between atoms: N_8  and  C_9
REMARK    3  A    between atoms: C_9  and  C_10
REMARK    4  A    between atoms: C_10  and  C_13
REMARK    5  A    between atoms: C_17  and  C_18
REMARK    6  A    between atoms: C_18  and  C_19
REMARK                            x       y       z     vdW  Elec       q    Type
REMARK                         _______ _______ _______ _____ _____    ______ ____
ROOT
ATOM      1  C   UNL     1      44.523   3.448  11.894  0.00  0.00    +0.000 C 
ENDROOT
BRANCH   1   6
ATOM      2  C   UNL     1      46.595   2.675   7.344  0.00  0.00    +0.000 A 
ATOM      3  C   UNL     1      46.299   3.860   8.006  0.00  0.00    +0.000 A 
ATOM      4  C   UNL     1      45.536   3.812   9.167  0.00  0.00    +0.000 A 
ATOM      5  C   UNL     1      45.080   2.591   9.662  0.00  0.00    +0.000 A 
ATOM      6  N   UNL     1      44.274   2.503  10.793  0.00  0.00    +0.000 N 
ATOM      7  N   UNL     1      45.354   1.436   9.026  0.00  0.00    +0.000 NA
ATOM      8  C   UNL     1      46.087   1.500   7.876  0.00  0.00    +0.000 A 
ATOM      9  H   UNL     1      44.172   1.524  11.053  0.00  0.00    +0.000 HD
BRANCH   2  11
ATOM     10  N   UNL     1      48.724   2.407   6.214  0.00  0.00    +0.000 N 
ATOM     11  C   UNL     1      47.383   2.650   6.099  0.00  0.00    +0.000 C 
ATOM     12  O   UNL     1      46.859   2.816   5.002  0.00  0.00    +0.000 OA
ATOM     13  H   UNL     1      49.246   2.313   5.352  0.00  0.00    +0.000 HD
ATOM     14  H   UNL     1      49.143   2.040   7.056  0.00  0.00    +0.000 HD
ENDBRANCH   2  11
ENDBRANCH   1   6
BRANCH   1  15
ATOM     15  C   UNL     1      43.688   4.751  11.842  0.00  0.00    +0.000 C 
ATOM     16  F   UNL     1      42.910   4.739  10.721  0.00  0.00    +0.000 F 
ATOM     17  F   UNL     1      42.815   4.748  12.894  0.00  0.00    +0.000 F 
BRANCH  15  18
ATOM     18  C   UNL     1      44.620   5.956  11.871  0.00  0.00    +0.000 A 
ATOM     19  C   UNL     1      44.154   7.232  11.516  0.00  0.00    +0.000 A 
ATOM     20  C   UNL     1      45.017   8.328  11.530  0.00  0.00    +0.000 A 
ATOM     21  C   UNL     1      46.350   8.171  11.916  0.00  0.00    +0.000 A 
ATOM     22  C   UNL     1      46.834   6.913  12.301  0.00  0.00    +0.000 A 
ATOM     23  C   UNL     1      45.967   5.811  12.248  0.00  0.00    +0.000 A 
BRANCH  22  24
ATOM     24  C   UNL     1      48.228   6.753  12.866  0.00  0.00    +0.000 C 
BRANCH  24  25
ATOM     25  C   UNL     1      48.314   7.059  14.354  0.00  0.00    +0.000 C 
ATOM     26  C   UNL     1      49.496   7.852  14.947  0.00  0.00    +0.000 C 
ATOM     27  C   UNL     1      49.607   6.681  15.921  0.00  0.00    +0.000 C 
ATOM     28  O   UNL     1      48.754   5.866  15.081  0.00  0.00    +0.000 OA
ENDBRANCH  24  25
ENDBRANCH  22  24
ENDBRANCH  15  18
ENDBRANCH   1  15
TORSDOF 6
ENDMDL
MODEL 5
REMARK VINA RESULT:    -7.220      2.802      3.776
REMARK INTER + INTRA:         -10.806
REMARK INTER:                  -9.972
REMARK INTRA:                  -0.834
REMARK UNBOUND:                -1.053
REMARK  Name = 
REMARK  6 active torsions:
REMARK  status: ('A' for Active; 'I' for Inactive)
REMARK    1  A    between atoms: C_2  and  C_4
REMARK    2  A    between atoms: N_8  and  C_9
REMARK    3  A    between atoms: C_9  and  C_10
REMARK    4  A    between atoms: C_10  and  C_13
REMARK    5  A    between atoms: C_17  and  C_18
REMARK    6  A    between atoms: C_18  and  C_19
REMARK                            x       y       z     vdW  Elec       q    Type
REMARK                         _______ _______ _______ _____ _____    ______ ____
ROOT
ATOM      1  C   UNL     1      43.917   5.267  11.315  0.00  0.00    +0.000 C 
ENDROOT
BRANCH   1   6
ATOM      2  C   UNL     1      46.377   2.873   7.600  0.00  0.00    +0.000 A 
ATOM      3  C   UNL     1      46.103   4.224   7.769  0.00  0.00    +0.000 A 
ATOM      4  C   UNL     1      45.224   4.613   8.774  0.00  0.00    +0.000 A 
ATOM      5  C   UNL     1      44.634   3.661   9.603  0.00  0.00    +0.000 A 
ATOM      6  N   UNL     1      43.713   4.003  10.589  0.00  0.00    +0.000 N 
ATOM      7  N   UNL     1      44.887   2.347   9.445  0.00  0.00    +0.000 NA
ATOM      8  C   UNL     1      45.735   1.978   8.441  0.00  0.00    +0.000 A 
ATOM      9  H   UNL     1      43.515   3.182  11.157  0.00  0.00    +0.000 HD
BRANCH   2  11
ATOM     10  N   UNL     1      48.225   1.462   6.908  0.00  0.00    +0.000 N 
ATOM     11  C   UNL     1      47.284   2.385   6.544  0.00  0.00    +0.000 C 
ATOM     12  O   UNL     1      47.186   2.770   5.384  0.00  0.00    +0.000 OA
ATOM     13  H   UNL     1      48.792   1.073   6.165  0.00  0.00    +0.000 HD
ATOM     14  H   UNL     1      48.187   0.956   7.781  0.00  0.00    +0.000 HD
ENDBRANCH   2  11
ENDBRANCH   1   6
BRANCH   1  15
ATOM     15  C   UNL     1      44.967   5.209  12.453  0.00  0.00    +0.000 C 
ATOM     16  F   UNL     1      44.322   5.094  13.650  0.00  0.00    +0.000 F 
ATOM     17  F   UNL     1      45.691   4.058  12.315  0.00  0.00    +0.000 F 
BRANCH  15  18
ATOM     18  C   UNL     1      45.846   6.453  12.399  0.00  0.00    +0.000 A 
ATOM     19  C   UNL     1      45.276   7.735  12.432  0.00  0.00    +0.000 A 
ATOM     20  C   UNL     1      46.086   8.869  12.367  0.00  0.00    +0.000 A 
ATOM     21  C   UNL     1      47.475   8.740  12.287  0.00  0.00    +0.000 A 
ATOM     22  C   UNL     1      48.071   7.472  12.280  0.00  0.00    +0.000 A 
ATOM     23  C   UNL     1      47.244   6.337  12.309  0.00  0.00    +0.000 A 
BRANCH  22  24
ATOM     24  C   UNL     1      49.574   7.315  12.348  0.00  0.00    +0.000 C 
BRANCH  24  25
ATOM     25  C   UNL     1      50.309   8.085  11.261  0.00  0.00    +0.000 C 
ATOM     26  C   UNL     1      51.511   7.474  10.512  0.00  0.00    +0.000 C 
ATOM     27  C   UNL     1      52.226   8.767  10.899  0.00  0.00    +0.000 C 
ATOM     28  O   UNL     1      51.197   9.077  11.870  0.00  0.00    +0.000 OA
ENDBRANCH  24  25
ENDBRANCH  22  24
ENDBRANCH  15  18
ENDBRANCH   1  15
TORSDOF 6
ENDMDL
MODEL 6
REMARK VINA RESULT:    -7.060      3.810      7.969
REMARK INTER + INTRA:         -10.590
REMARK INTER:                  -9.855
REMARK INTRA:                  -0.735
REMARK UNBOUND:                -1.053
REMARK  Name = 
REMARK  6 active torsions:
REMARK  status: ('A' for Active; 'I' for Inactive)
REMARK    1  A    between atoms: C_2  and  C_4
REMARK    2  A    between atoms: N_8  and  C_9
REMARK    3  A    between atoms: C_9  and  C_10
REMARK    4  A    between atoms: C_10  and  C_13
REMARK    5  A    between atoms: C_17  and  C_18
REMARK    6  A    between atoms: C_18  and  C_19
REMARK                            x       y       z     vdW  Elec       q    Type
REMARK                         _______ _______ _______ _____ _____    ______ ____
ROOT
ATOM      1  C   UNL     1      46.413   4.346  14.914  0.00  0.00    +0.000 C 
ENDROOT
BRANCH   1   6
ATOM      2  C   UNL     1      50.520   2.555  17.262  0.00  0.00    +0.000 A 
ATOM      3  C   UNL     1      49.409   1.887  16.762  0.00  0.00    +0.000 A 
ATOM      4  C   UNL     1      48.309   2.627  16.344  0.00  0.00    +0.000 A 
ATOM      5  C   UNL     1      48.325   4.019  16.418  0.00  0.00    +0.000 A 
ATOM      6  N   UNL     1      47.229   4.795  16.054  0.00  0.00    +0.000 N 
ATOM      7  N   UNL     1      49.393   4.677  16.907  0.00  0.00    +0.000 NA
ATOM      8  C   UNL     1      50.458   3.937  17.334  0.00  0.00    +0.000 A 
ATOM      9  H   UNL     1      47.500   5.775  16.057  0.00  0.00    +0.000 HD
BRANCH   2  11
ATOM     10  N   UNL     1      51.567   0.508  18.036  0.00  0.00    +0.000 N 
ATOM     11  C   UNL     1      51.714   1.835  17.741  0.00  0.00    +0.000 C 
ATOM     12  O   UNL     1      52.801   2.393  17.848  0.00  0.00    +0.000 OA
ATOM     13  H   UNL     1      52.406   0.001  18.288  0.00  0.00    +0.000 HD
ATOM     14  H   UNL     1      50.765  -0.032  17.744  0.00  0.00    +0.000 HD
ENDBRANCH   2  11
ENDBRANCH   1   6
BRANCH   1  15
ATOM     15  C   UNL     1      46.555   5.200  13.629  0.00  0.00    +0.000 C 
ATOM     16  F   UNL     1      46.728   6.508  13.979  0.00  0.00    +0.000 F 
ATOM     17  F   UNL     1      47.709   4.837  12.993  0.00  0.00    +0.000 F 
BRANCH  15  18
ATOM     18  C   UNL     1      45.327   5.006  12.749  0.00  0.00    +0.000 A 
ATOM     19  C   UNL     1      44.192   5.816  12.913  0.00  0.00    +0.000 A 
ATOM     20  C   UNL     1      43.065   5.623  12.114  0.00  0.00    +0.000 A 
ATOM     21  C   UNL     1      43.060   4.632  11.129  0.00  0.00    +0.000 A 
ATOM     22  C   UNL     1      44.190   3.827  10.927  0.00  0.00    +0.000 A 
ATOM     23  C   UNL     1      45.305   4.006  11.761  0.00  0.00    +0.000 A 
BRANCH  22  24
ATOM     24  C   UNL     1      44.258   2.855   9.769  0.00  0.00    +0.000 C 
BRANCH  24  25
ATOM     25  C   UNL     1      45.638   2.774   9.133  0.00  0.00    +0.000 C 
ATOM     26  C   UNL     1      45.895   3.278   7.698  0.00  0.00    +0.000 C 
ATOM     27  C   UNL     1      46.509   1.897   7.477  0.00  0.00    +0.000 C 
ATOM     28  O   UNL     1      45.902   1.402   8.695  0.00  0.00    +0.000 OA
ENDBRANCH  24  25
ENDBRANCH  22  24
ENDBRANCH  15  18
ENDBRANCH   1  15
TORSDOF 6
ENDMDL
MODEL 7
REMARK VINA RESULT:    -7.032      2.405      2.896
REMARK INTER + INTRA:         -10.552
REMARK INTER:                  -9.591
REMARK INTRA:                  -0.961
REMARK UNBOUND:                -1.053
REMARK  Name = 
REMARK  6 active torsions:
REMARK  status: ('A' for Active; 'I' for Inactive)
REMARK    1  A    between atoms: C_2  and  C_4
REMARK    2  A    between atoms: N_8  and  C_9
REMARK    3  A    between atoms: C_9  and  C_10
REMARK    4  A    between atoms: C_10  and  C_13
REMARK    5  A    between atoms: C_17  and  C_18
REMARK    6  A    between atoms: C_18  and  C_19
REMARK                            x       y       z     vdW  Elec       q    Type
REMARK                         _______ _______ _______ _____ _____    ______ ____
ROOT
ATOM      1  C   UNL     1      44.391   5.145  11.653  0.00  0.00    +0.000 C 
ENDROOT
BRANCH   1   6
ATOM      2  C   UNL     1      46.380   2.929   7.563  0.00  0.00    +0.000 A 
ATOM      3  C   UNL     1      46.213   4.276   7.863  0.00  0.00    +0.000 A 
ATOM      4  C   UNL     1      45.445   4.631   8.965  0.00  0.00    +0.000 A 
ATOM      5  C   UNL     1      44.858   3.650   9.763  0.00  0.00    +0.000 A 
ATOM      6  N   UNL     1      44.044   3.962  10.847  0.00  0.00    +0.000 N 
ATOM      7  N   UNL     1      45.007   2.341   9.479  0.00  0.00    +0.000 NA
ATOM      8  C   UNL     1      45.746   2.007   8.381  0.00  0.00    +0.000 A 
ATOM      9  H   UNL     1      43.836   3.110  11.363  0.00  0.00    +0.000 HD
BRANCH   2  11
ATOM     10  N   UNL     1      48.223   1.648   6.644  0.00  0.00    +0.000 N 
ATOM     11  C   UNL     1      47.165   2.478   6.399  0.00  0.00    +0.000 C 
ATOM     12  O   UNL     1      46.869   2.811   5.256  0.00  0.00    +0.000 OA
ATOM     13  H   UNL     1      48.709   1.278   5.837  0.00  0.00    +0.000 HD
ATOM     14  H   UNL     1      48.353   1.172   7.526  0.00  0.00    +0.000 HD
ENDBRANCH   2  11
ENDBRANCH   1   6
BRANCH   1  15
ATOM     15  C   UNL     1      45.358   4.876  12.833  0.00  0.00    +0.000 C 
ATOM     16  F   UNL     1      44.680   5.025  14.008  0.00  0.00    +0.000 F 
ATOM     17  F   UNL     1      45.735   3.563  12.792  0.00  0.00    +0.000 F 
BRANCH  15  18
ATOM     18  C   UNL     1      46.550   5.820  12.742  0.00  0.00    +0.000 A 
ATOM     19  C   UNL     1      46.763   6.597  11.592  0.00  0.00    +0.000 A 
ATOM     20  C   UNL     1      47.865   7.449  11.510  0.00  0.00    +0.000 A 
ATOM     21  C   UNL     1      48.759   7.551  12.578  0.00  0.00    +0.000 A 
ATOM     22  C   UNL     1      48.554   6.806  13.748  0.00  0.00    +0.000 A 
ATOM     23  C   UNL     1      47.463   5.926  13.806  0.00  0.00    +0.000 A 
BRANCH  22  24
ATOM     24  C   UNL     1      49.423   7.017  14.969  0.00  0.00    +0.000 C 
BRANCH  24  25
ATOM     25  C   UNL     1      50.654   7.867  14.693  0.00  0.00    +0.000 C 
ATOM     26  C   UNL     1      51.987   7.617  15.426  0.00  0.00    +0.000 C 
ATOM     27  C   UNL     1      51.924   9.109  15.749  0.00  0.00    +0.000 C 
ATOM     28  O   UNL     1      50.527   9.159  15.370  0.00  0.00    +0.000 OA
ENDBRANCH  24  25
ENDBRANCH  22  24
ENDBRANCH  15  18
ENDBRANCH   1  15
TORSDOF 6
ENDMDL
MODEL 8
REMARK VINA RESULT:    -6.514      4.367      7.551
REMARK INTER + INTRA:          -9.851
REMARK INTER:                  -9.207
REMARK INTRA:                  -0.644
REMARK UNBOUND:                -1.053
REMARK  Name = 
REMARK  6 active torsions:
REMARK  status: ('A' for Active; 'I' for Inactive)
REMARK    1  A    between atoms: C_2  and  C_4
REMARK    2  A    between atoms: N_8  and  C_9
REMARK    3  A    between atoms: C_9  and  C_10
REMARK    4  A    between atoms: C_10  and  C_13
REMARK    5  A    between atoms: C_17  and  C_18
REMARK    6  A    between atoms: C_18  and  C_19
REMARK                            x       y       z     vdW  Elec       q    Type
REMARK                         _______ _______ _______ _____ _____    ______ ____
ROOT
ATOM      1  C   UNL     1      46.740   6.678  11.776  0.00  0.00    +0.000 C 
ENDROOT
BRANCH   1   6
ATOM      2  C   UNL     1      50.875   9.524  11.150  0.00  0.00    +0.000 A 
ATOM      3  C   UNL     1      50.742   8.144  11.256  0.00  0.00    +0.000 A 
ATOM      4  C   UNL     1      49.515   7.613  11.635  0.00  0.00    +0.000 A 
ATOM      5  C   UNL     1      48.433   8.451  11.897  0.00  0.00    +0.000 A 
ATOM      6  N   UNL     1      47.202   7.964  12.324  0.00  0.00    +0.000 N 
ATOM      7  N   UNL     1      48.551   9.790  11.804  0.00  0.00    +0.000 NA
ATOM      8  C   UNL     1      49.768  10.300  11.451  0.00  0.00    +0.000 A 
ATOM      9  H   UNL     1      46.525   8.724  12.324  0.00  0.00    +0.000 HD
BRANCH   2  11
ATOM     10  N   UNL     1      52.251  11.511  10.948  0.00  0.00    +0.000 N 
ATOM     11  C   UNL     1      52.150  10.159  10.771  0.00  0.00    +0.000 C 
ATOM     12  O   UNL     1      53.093   9.503  10.338  0.00  0.00    +0.000 OA
ATOM     13  H   UNL     1      53.153  11.930  10.761  0.00  0.00    +0.000 HD
ATOM     14  H   UNL     1      51.598  12.040  11.508  0.00  0.00    +0.000 HD
ENDBRANCH   2  11
ENDBRANCH   1   6
BRANCH   1  15
ATOM     15  C   UNL     1      45.206   6.462  11.811  0.00  0.00    +0.000 C 
ATOM     16  F   UNL     1      44.777   6.521  13.105  0.00  0.00    +0.000 F 
ATOM     17  F   UNL     1      44.606   7.514  11.178  0.00  0.00    +0.000 F 
BRANCH  15  18
ATOM     18  C   UNL     1      44.864   5.127  11.160  0.00  0.00    +0.000 A 
ATOM     19  C   UNL     1      44.244   4.108  11.899  0.00  0.00    +0.000 A 
ATOM     20  C   UNL     1      43.947   2.883  11.301  0.00  0.00    +0.000 A 
ATOM     21  C   UNL     1      44.249   2.664   9.955  0.00  0.00    +0.000 A 
ATOM     22  C   UNL     1      44.843   3.675   9.187  0.00  0.00    +0.000 A 
ATOM     23  C   UNL     1      45.171   4.891   9.809  0.00  0.00    +0.000 A 
BRANCH  22  24
ATOM     24  C   UNL     1      45.037   3.511   7.696  0.00  0.00    +0.000 C 
BRANCH  24  25
ATOM     25  C   UNL     1      46.492   3.317   7.295  0.00  0.00    +0.000 C 
ATOM     26  C   UNL     1      46.887   2.932   5.855  0.00  0.00    +0.000 C 
ATOM     27  C   UNL     1      47.678   1.810   6.524  0.00  0.00    +0.000 C 
ATOM     28  O   UNL     1      46.967   2.016   7.770  0.00  0.00    +0.000 OA
ENDBRANCH  24  25
ENDBRANCH  22  24
ENDBRANCH  15  18
ENDBRANCH   1  15
TORSDOF 6
ENDMDL
MODEL 9
REMARK VINA RESULT:    -6.509      3.371      4.881
REMARK INTER + INTRA:          -9.845
REMARK INTER:                  -8.786
REMARK INTRA:                  -1.060
REMARK UNBOUND:                -1.053
REMARK  Name = 
REMARK  6 active torsions:
REMARK  status: ('A' for Active; 'I' for Inactive)
REMARK    1  A    between atoms: C_2  and  C_4
REMARK    2  A    between atoms: N_8  and  C_9
REMARK    3  A    between atoms: C_9  and  C_10
REMARK    4  A    between atoms: C_10  and  C_13
REMARK    5  A    between atoms: C_17  and  C_18
REMARK    6  A    between atoms: C_18  and  C_19
REMARK                            x       y       z     vdW  Elec       q    Type
REMARK                         _______ _______ _______ _____ _____    ______ ____
ROOT
ATOM      1  C   UNL     1      47.231   8.299  12.465  0.00  0.00    +0.000 C 
ENDROOT
BRANCH   1   6
ATOM      2  C   UNL     1      44.538   4.130  11.489  0.00  0.00    +0.000 A 
ATOM      3  C   UNL     1      45.086   5.067  10.623  0.00  0.00    +0.000 A 
ATOM      4  C   UNL     1      45.608   6.245  11.146  0.00  0.00    +0.000 A 
ATOM      5  C   UNL     1      45.588   6.477  12.520  0.00  0.00    +0.000 A 
ATOM      6  N   UNL     1      46.056   7.661  13.080  0.00  0.00    +0.000 N 
ATOM      7  N   UNL     1      45.053   5.579  13.370  0.00  0.00    +0.000 NA
ATOM      8  C   UNL     1      44.526   4.436  12.841  0.00  0.00    +0.000 A 
ATOM      9  H   UNL     1      46.073   7.566  14.093  0.00  0.00    +0.000 HD
BRANCH   2  11
ATOM     10  N   UNL     1      44.582   2.244   9.964  0.00  0.00    +0.000 N 
ATOM     11  C   UNL     1      43.951   2.867  11.005  0.00  0.00    +0.000 C 
ATOM     12  O   UNL     1      42.954   2.380  11.527  0.00  0.00    +0.000 OA
ATOM     13  H   UNL     1      44.221   1.340   9.688  0.00  0.00    +0.000 HD
ATOM     14  H   UNL     1      45.517   2.484   9.668  0.00  0.00    +0.000 HD
ENDBRANCH   2  11
ENDBRANCH   1   6
BRANCH   1  15
ATOM     15  C   UNL     1      48.600   7.808  12.998  0.00  0.00    +0.000 C 
ATOM     16  F   UNL     1      48.793   6.515  12.608  0.00  0.00    +0.000 F 
ATOM     17  F   UNL     1      49.587   8.527  12.384  0.00  0.00    +0.000 F 
BRANCH  15  18
ATOM     18  C   UNL     1      48.639   7.954  14.514  0.00  0.00    +0.000 A 
ATOM     19  C   UNL     1      48.675   9.224  15.112  0.00  0.00    +0.000 A 
ATOM     20  C   UNL     1      48.727   9.350  16.500  0.00  0.00    +0.000 A 
ATOM     21  C   UNL     1      48.725   8.213  17.312  0.00  0.00    +0.000 A 
ATOM     22  C   UNL     1      48.663   6.934  16.742  0.00  0.00    +0.000 A 
ATOM     23  C   UNL     1      48.648   6.818  15.343  0.00  0.00    +0.000 A 
BRANCH  22  24
ATOM     24  C   UNL     1      48.506   5.701  17.605  0.00  0.00    +0.000 C 
BRANCH  24  25
ATOM     25  C   UNL     1      48.222   4.439  16.805  0.00  0.00    +0.000 C 
ATOM     26  C   UNL     1      47.485   3.237  17.431  0.00  0.00    +0.000 C 
ATOM     27  C   UNL     1      48.671   2.424  16.916  0.00  0.00    +0.000 C 
ATOM     28  O   UNL     1      49.440   3.633  16.701  0.00  0.00    +0.000 OA
ENDBRANCH  24  25
ENDBRANCH  22  24
ENDBRANCH  15  18
ENDBRANCH   1  15
TORSDOF 6
ENDMDL
