MODEL 1
REMARK VINA RESULT:    -6.997      0.000      0.000
REMARK INTER + INTRA:         -10.596
REMARK INTER:                  -9.656
REMARK INTRA:                  -0.940
REMARK UNBOUND:                -0.940
REMARK  Name = 
REMARK  10 active torsions:
REMARK  status: ('A' for Active; 'I' for Inactive)
REMARK    1  A    between atoms: C_1  and  C_2
REMARK    2  A    between atoms: C_2  and  C_3
REMARK    3  A    between atoms: C_2  and  C_4
REMARK    4  A    between atoms: C_2  and  C_5
REMARK    5  A    between atoms: N_7  and  C_8
REMARK    6  A    between atoms: C_8  and  C_9
REMARK    7  A    between atoms: C_12  and  C_13
REMARK    8  A    between atoms: C_13  and  C_14
REMARK    9  A    between atoms: C_14  and  C_15
REMARK   10  A    between atoms: C_15  and  N_16
REMARK                            x       y       z     vdW  Elec       q    Type
REMARK                         _______ _______ _______ _____ _____    ______ ____
ROOT
ATOM      1  C   UNL     1      46.819   8.058  12.596  0.00  0.00    +0.000 A 
ATOM      2  C   UNL     1      45.584   7.917  11.984  0.00  0.00    +0.000 A 
ATOM      3  N   UNL     1      45.081   6.670  12.258  0.00  0.00    +0.000 N 
ATOM      4  C   UNL     1      45.902   6.021  13.156  0.00  0.00    +0.000 A 
ATOM      5  C   UNL     1      45.784   4.761  13.770  0.00  0.00    +0.000 A 
ATOM      6  C   UNL     1      46.810   4.330  14.611  0.00  0.00    +0.000 A 
ATOM      7  C   UNL     1      47.924   5.128  14.834  0.00  0.00    +0.000 A 
ATOM      8  C   UNL     1      48.033   6.380  14.222  0.00  0.00    +0.000 A 
ATOM      9  C   UNL     1      47.009   6.853  13.368  0.00  0.00    +0.000 A 
ENDROOT
BRANCH   1  11
ATOM     10  C   UNL     1      48.268   9.759  13.818  0.00  0.00    +0.000 C 
ATOM     11  C   UNL     1      47.778   9.242  12.444  0.00  0.00    +0.000 C 
ATOM     12  C   UNL     1      47.067  10.420  11.744  0.00  0.00    +0.000 C 
ATOM     13  C   UNL     1      49.028   8.848  11.635  0.00  0.00    +0.000 C 
ENDBRANCH   1  11
BRANCH   3  14
ATOM     14  C   UNL     1      43.890   6.114  11.619  0.00  0.00    +0.000 C 
BRANCH  14  15
ATOM     15  C   UNL     1      44.281   5.051  10.620  0.00  0.00    +0.000 A 
ATOM     16  C   UNL     1      43.853   3.727  10.787  0.00  0.00    +0.000 A 
ATOM     17  C   UNL     1      44.357   2.709   9.976  0.00  0.00    +0.000 A 
ATOM     18  C   UNL     1      45.287   2.992   8.970  0.00  0.00    +0.000 A 
ATOM     19  C   UNL     1      45.670   4.323   8.762  0.00  0.00    +0.000 A 
ATOM     20  C   UNL     1      45.171   5.343   9.577  0.00  0.00    +0.000 A 
BRANCH  18  21
ATOM     21  C   UNL     1      45.943   1.880   8.186  0.00  0.00    +0.000 C 
BRANCH  21  22
ATOM     22  C   UNL     1      46.489   2.280   6.812  0.00  0.00    +0.000 C 
BRANCH  22  23
ATOM     23  C   UNL     1      48.011   2.401   6.800  0.00  0.00    +0.000 C 
BRANCH  23  24
ATOM     24  N   UNL     1      48.551   1.799   5.584  0.00  0.00    +0.000 NA
ATOM     25  H   UNL     1      48.571   0.785   5.682  0.00  0.00    +0.000 HD
ATOM     26  H   UNL     1      49.517   2.096   5.462  0.00  0.00    +0.000 HD
ENDBRANCH  23  24
ENDBRANCH  22  23
ENDBRANCH  21  22
ENDBRANCH  18  21
ENDBRANCH  14  15
ENDBRANCH   3  14
TORSDOF 7
ENDMDL
MODEL 2
REMARK VINA RESULT:    -6.797      1.438      3.752
REMARK INTER + INTRA:         -10.320
REMARK INTER:                  -9.932
REMARK INTRA:                  -0.387
REMARK UNBOUND:                -0.940
REMARK  Name = 
REMARK  10 active torsions:
REMARK  status: ('A' for Active; 'I' for Inactive)
REMARK    1  A    between atoms: C_1  and  C_2
REMARK    2  A    between atoms: C_2  and  C_3
REMARK    3  A    between atoms: C_2  and  C_4
REMARK    4  A    between atoms: C_2  and  C_5
REMARK    5  A    between atoms: N_7  and  C_8
REMARK    6  A    between atoms: C_8  and  C_9
REMARK    7  A    between atoms: C_12  and  C_13
REMARK    8  A    between atoms: C_13  and  C_14
REMARK    9  A    between atoms: C_14  and  C_15
REMARK   10  A    between atoms: C_15  and  N_16
REMARK                            x       y       z     vdW  Elec       q    Type
REMARK                         _______ _______ _______ _____ _____    ______ ____
ROOT
ATOM      1  C   UNL     1      47.489   4.992  15.252  0.00  0.00    +0.000 A 
ATOM      2  C   UNL     1      46.370   4.587  14.542  0.00  0.00    +0.000 A 
ATOM      3  N   UNL     1      46.117   5.490  13.540  0.00  0.00    +0.000 N 
ATOM      4  C   UNL     1      47.130   6.424  13.485  0.00  0.00    +0.000 A 
ATOM      5  C   UNL     1      47.342   7.503  12.608  0.00  0.00    +0.000 A 
ATOM      6  C   UNL     1      48.444   8.332  12.825  0.00  0.00    +0.000 A 
ATOM      7  C   UNL     1      49.310   8.095  13.884  0.00  0.00    +0.000 A 
ATOM      8  C   UNL     1      49.093   7.018  14.749  0.00  0.00    +0.000 A 
ATOM      9  C   UNL     1      47.990   6.154  14.557  0.00  0.00    +0.000 A 
ENDROOT
BRANCH   1  11
ATOM     10  C   UNL     1      49.433   4.907  16.895  0.00  0.00    +0.000 C 
ATOM     11  C   UNL     1      48.040   4.343  16.524  0.00  0.00    +0.000 C 
ATOM     12  C   UNL     1      48.208   2.822  16.321  0.00  0.00    +0.000 C 
ATOM     13  C   UNL     1      47.112   4.597  17.728  0.00  0.00    +0.000 C 
ENDBRANCH   1  11
BRANCH   3  14
ATOM     14  C   UNL     1      44.908   5.478  12.720  0.00  0.00    +0.000 C 
BRANCH  14  15
ATOM     15  C   UNL     1      45.187   4.828  11.385  0.00  0.00    +0.000 A 
ATOM     16  C   UNL     1      45.635   5.595  10.302  0.00  0.00    +0.000 A 
ATOM     17  C   UNL     1      45.720   5.039   9.024  0.00  0.00    +0.000 A 
ATOM     18  C   UNL     1      45.374   3.701   8.803  0.00  0.00    +0.000 A 
ATOM     19  C   UNL     1      44.985   2.917   9.896  0.00  0.00    +0.000 A 
ATOM     20  C   UNL     1      44.894   3.474  11.175  0.00  0.00    +0.000 A 
BRANCH  18  21
ATOM     21  C   UNL     1      45.326   3.134   7.404  0.00  0.00    +0.000 C 
BRANCH  21  22
ATOM     22  C   UNL     1      46.642   3.196   6.625  0.00  0.00    +0.000 C 
BRANCH  22  23
ATOM     23  C   UNL     1      47.550   2.001   6.913  0.00  0.00    +0.000 C 
BRANCH  23  24
ATOM     24  N   UNL     1      48.502   1.822   5.821  0.00  0.00    +0.000 NA
ATOM     25  H   UNL     1      48.779   0.843   5.764  0.00  0.00    +0.000 HD
ATOM     26  H   UNL     1      49.348   2.350   6.021  0.00  0.00    +0.000 HD
ENDBRANCH  23  24
ENDBRANCH  22  23
ENDBRANCH  21  22
ENDBRANCH  18  21
ENDBRANCH  14  15
ENDBRANCH   3  14
TORSDOF 7
ENDMDL
MODEL 3
REMARK VINA RESULT:    -6.769      1.045      2.870
REMARK INTER + INTRA:         -10.281
REMARK INTER:                  -9.556
REMARK INTRA:                  -0.725
REMARK UNBOUND:                -0.940
REMARK  Name = 
REMARK  10 active torsions:
REMARK  status: ('A' for Active; 'I' for Inactive)
REMARK    1  A    between atoms: C_1  and  C_2
REMARK    2  A    between atoms: C_2  and  C_3
REMARK    3  A    between atoms: C_2  and  C_4
REMARK    4  A    between atoms: C_2  and  C_5
REMARK    5  A    between atoms: N_7  and  C_8
REMARK    6  A    between atoms: C_8  and  C_9
REMARK    7  A    between atoms: C_12  and  C_13
REMARK    8  A    between atoms: C_13  and  C_14
REMARK    9  A    between atoms: C_14  and  C_15
REMARK   10  A    between atoms: C_15  and  N_16
REMARK                            x       y       z     vdW  Elec       q    Type
REMARK                         _______ _______ _______ _____ _____    ______ ____
ROOT
ATOM      1  C   UNL     1      47.123   7.727  13.127  0.00  0.00    +0.000 A 
ATOM      2  C   UNL     1      46.394   6.559  12.976  0.00  0.00    +0.000 A 
ATOM      3  N   UNL     1      45.222   6.837  12.319  0.00  0.00    +0.000 N 
ATOM      4  C   UNL     1      45.215   8.154  11.910  0.00  0.00    +0.000 A 
ATOM      5  C   UNL     1      44.270   8.884  11.167  0.00  0.00    +0.000 A 
ATOM      6  C   UNL     1      44.504  10.241  10.942  0.00  0.00    +0.000 A 
ATOM      7  C   UNL     1      45.644  10.855  11.442  0.00  0.00    +0.000 A 
ATOM      8  C   UNL     1      46.579  10.121  12.177  0.00  0.00    +0.000 A 
ATOM      9  C   UNL     1      46.380   8.743  12.420  0.00  0.00    +0.000 A 
ENDROOT
BRANCH   1  11
ATOM     10  C   UNL     1      48.730   6.639  14.777  0.00  0.00    +0.000 C 
ATOM     11  C   UNL     1      48.427   7.887  13.912  0.00  0.00    +0.000 C 
ATOM     12  C   UNL     1      48.330   9.090  14.874  0.00  0.00    +0.000 C 
ATOM     13  C   UNL     1      49.628   8.086  12.967  0.00  0.00    +0.000 C 
ENDBRANCH   1  11
BRANCH   3  14
ATOM     14  C   UNL     1      44.130   5.878  12.160  0.00  0.00    +0.000 C 
BRANCH  14  15
ATOM     15  C   UNL     1      44.410   4.956  10.997  0.00  0.00    +0.000 A 
ATOM     16  C   UNL     1      43.994   3.619  11.033  0.00  0.00    +0.000 A 
ATOM     17  C   UNL     1      44.405   2.719  10.049  0.00  0.00    +0.000 A 
ATOM     18  C   UNL     1      45.229   3.137   8.998  0.00  0.00    +0.000 A 
ATOM     19  C   UNL     1      45.596   4.487   8.927  0.00  0.00    +0.000 A 
ATOM     20  C   UNL     1      45.190   5.388   9.915  0.00  0.00    +0.000 A 
BRANCH  18  21
ATOM     21  C   UNL     1      45.794   2.142   8.013  0.00  0.00    +0.000 C 
BRANCH  21  22
ATOM     22  C   UNL     1      46.667   2.738   6.905  0.00  0.00    +0.000 C 
BRANCH  22  23
ATOM     23  C   UNL     1      48.026   2.049   6.796  0.00  0.00    +0.000 C 
BRANCH  23  24
ATOM     24  N   UNL     1      48.432   1.964   5.396  0.00  0.00    +0.000 NA
ATOM     25  H   UNL     1      48.302   2.868   4.945  0.00  0.00    +0.000 HD
ATOM     26  H   UNL     1      47.826   1.308   4.909  0.00  0.00    +0.000 HD
ENDBRANCH  23  24
ENDBRANCH  22  23
ENDBRANCH  21  22
ENDBRANCH  18  21
ENDBRANCH  14  15
ENDBRANCH   3  14
TORSDOF 7
ENDMDL
MODEL 4
REMARK VINA RESULT:    -5.575      3.593      6.561
REMARK INTER + INTRA:          -8.634
REMARK INTER:                  -7.792
REMARK INTRA:                  -0.842
REMARK UNBOUND:                -0.940
REMARK  Name = 
REMARK  10 active torsions:
REMARK  status: ('A' for Active; 'I' for Inactive)
REMARK    1  A    between atoms: C_1  and  C_2
REMARK    2  A    between atoms: C_2  and  C_3
REMARK    3  A    between atoms: C_2  and  C_4
REMARK    4  A    between atoms: C_2  and  C_5
REMARK    5  A    between atoms: N_7  and  C_8
REMARK    6  A    between atoms: C_8  and  C_9
REMARK    7  A    between atoms: C_12  and  C_13
REMARK    8  A    between atoms: C_13  and  C_14
REMARK    9  A    between atoms: C_14  and  C_15
REMARK   10  A    between atoms: C_15  and  N_16
REMARK                            x       y       z     vdW  Elec       q    Type
REMARK                         _______ _______ _______ _____ _____    ______ ____
ROOT
ATOM      1  C   UNL     1      48.737   5.373  17.312  0.00  0.00    +0.000 A 
ATOM      2  C   UNL     1      49.273   5.700  16.077  0.00  0.00    +0.000 A 
ATOM      3  N   UNL     1      49.108   7.044  15.852  0.00  0.00    +0.000 N 
ATOM      4  C   UNL     1      48.588   7.647  16.978  0.00  0.00    +0.000 A 
ATOM      5  C   UNL     1      48.295   8.995  17.250  0.00  0.00    +0.000 A 
ATOM      6  C   UNL     1      47.715   9.317  18.478  0.00  0.00    +0.000 A 
ATOM      7  C   UNL     1      47.433   8.326  19.408  0.00  0.00    +0.000 A 
ATOM      8  C   UNL     1      47.729   6.988  19.131  0.00  0.00    +0.000 A 
ATOM      9  C   UNL     1      48.323   6.626  17.900  0.00  0.00    +0.000 A 
ENDROOT
BRANCH   1  11
ATOM     10  C   UNL     1      48.697   3.975  19.440  0.00  0.00    +0.000 C 
ATOM     11  C   UNL     1      48.596   3.965  17.896  0.00  0.00    +0.000 C 
ATOM     12  C   UNL     1      49.728   3.053  17.375  0.00  0.00    +0.000 C 
ATOM     13  C   UNL     1      47.234   3.344  17.534  0.00  0.00    +0.000 C 
ENDBRANCH   1  11
BRANCH   3  14
ATOM     14  C   UNL     1      49.383   7.695  14.573  0.00  0.00    +0.000 C 
BRANCH  14  15
ATOM     15  C   UNL     1      48.176   7.602  13.669  0.00  0.00    +0.000 A 
ATOM     16  C   UNL     1      47.190   8.596  13.696  0.00  0.00    +0.000 A 
ATOM     17  C   UNL     1      45.990   8.426  13.001  0.00  0.00    +0.000 A 
ATOM     18  C   UNL     1      45.756   7.268  12.253  0.00  0.00    +0.000 A 
ATOM     19  C   UNL     1      46.766   6.300  12.176  0.00  0.00    +0.000 A 
ATOM     20  C   UNL     1      47.965   6.466  12.875  0.00  0.00    +0.000 A 
BRANCH  18  21
ATOM     21  C   UNL     1      44.410   7.013  11.619  0.00  0.00    +0.000 C 
BRANCH  21  22
ATOM     22  C   UNL     1      44.099   5.547  11.304  0.00  0.00    +0.000 C 
BRANCH  22  23
ATOM     23  C   UNL     1      42.756   5.098  11.876  0.00  0.00    +0.000 C 
BRANCH  23  24
ATOM     24  N   UNL     1      42.680   5.430  13.296  0.00  0.00    +0.000 NA
ATOM     25  H   UNL     1      43.210   6.281  13.478  0.00  0.00    +0.000 HD
ATOM     26  H   UNL     1      43.123   4.692  13.839  0.00  0.00    +0.000 HD
ENDBRANCH  23  24
ENDBRANCH  22  23
ENDBRANCH  21  22
ENDBRANCH  18  21
ENDBRANCH  14  15
ENDBRANCH   3  14
TORSDOF 7
ENDMDL
MODEL 5
REMARK VINA RESULT:    -5.511      3.260      8.170
REMARK INTER + INTRA:          -8.546
REMARK INTER:                  -7.589
REMARK INTRA:                  -0.956
REMARK UNBOUND:                -0.940
REMARK  Name = 
REMARK  10 active torsions:
REMARK  status: ('A' for Active; 'I' for Inactive)
REMARK    1  A    between atoms: C_1  and  C_2
REMARK    2  A    between atoms: C_2  and  C_3
REMARK    3  A    between atoms: C_2  and  C_4
REMARK    4  A    between atoms: C_2  and  C_5
REMARK    5  A    between atoms: N_7  and  C_8
REMARK    6  A    between atoms: C_8  and  C_9
REMARK    7  A    between atoms: C_12  and  C_13
REMARK    8  A    between atoms: C_13  and  C_14
REMARK    9  A    between atoms: C_14  and  C_15
REMARK   10  A    between atoms: C_15  and  N_16
REMARK                            x       y       z     vdW  Elec       q    Type
REMARK                         _______ _______ _______ _____ _____    ______ ____
ROOT
ATOM      1  C   UNL     1      45.604   5.788  12.327  0.00  0.00    +0.000 A 
ATOM      2  C   UNL     1      46.784   5.595  13.028  0.00  0.00    +0.000 A 
ATOM      3  N   UNL     1      47.438   6.795  13.154  0.00  0.00    +0.000 N 
ATOM      4  C   UNL     1      46.648   7.813  12.663  0.00  0.00    +0.000 A 
ATOM      5  C   UNL     1      46.856   9.204  12.620  0.00  0.00    +0.000 A 
ATOM      6  C   UNL     1      45.892  10.004  12.005  0.00  0.00    +0.000 A 
ATOM      7  C   UNL     1      44.754   9.437  11.447  0.00  0.00    +0.000 A 
ATOM      8  C   UNL     1      44.553   8.054  11.497  0.00  0.00    +0.000 A 
ATOM      9  C   UNL     1      45.505   7.213  12.118  0.00  0.00    +0.000 A 
ENDROOT
BRANCH   1  11
ATOM     10  C   UNL     1      45.155   3.283  12.226  0.00  0.00    +0.000 C 
ATOM     11  C   UNL     1      44.640   4.696  11.858  0.00  0.00    +0.000 C 
ATOM     12  C   UNL     1      44.492   4.736  10.322  0.00  0.00    +0.000 C 
ATOM     13  C   UNL     1      43.253   4.857  12.509  0.00  0.00    +0.000 C 
ENDBRANCH   1  11
BRANCH   3  14
ATOM     14  C   UNL     1      48.799   6.931  13.669  0.00  0.00    +0.000 C 
BRANCH  14  15
ATOM     15  C   UNL     1      48.780   7.041  15.175  0.00  0.00    +0.000 A 
ATOM     16  C   UNL     1      48.738   5.889  15.971  0.00  0.00    +0.000 A 
ATOM     17  C   UNL     1      48.537   5.984  17.349  0.00  0.00    +0.000 A 
ATOM     18  C   UNL     1      48.388   7.231  17.965  0.00  0.00    +0.000 A 
ATOM     19  C   UNL     1      48.491   8.386  17.179  0.00  0.00    +0.000 A 
ATOM     20  C   UNL     1      48.686   8.293  15.799  0.00  0.00    +0.000 A 
BRANCH  18  21
ATOM     21  C   UNL     1      48.028   7.336  19.428  0.00  0.00    +0.000 C 
BRANCH  21  22
ATOM     22  C   UNL     1      47.426   6.072  20.048  0.00  0.00    +0.000 C 
BRANCH  22  23
ATOM     23  C   UNL     1      48.384   5.382  21.017  0.00  0.00    +0.000 C 
BRANCH  23  24
ATOM     24  N   UNL     1      48.403   3.944  20.762  0.00  0.00    +0.000 NA
ATOM     25  H   UNL     1      49.039   3.740  19.993  0.00  0.00    +0.000 HD
ATOM     26  H   UNL     1      47.479   3.643  20.461  0.00  0.00    +0.000 HD
ENDBRANCH  23  24
ENDBRANCH  22  23
ENDBRANCH  21  22
ENDBRANCH  18  21
ENDBRANCH  14  15
ENDBRANCH   3  14
TORSDOF 7
ENDMDL
MODEL 6
REMARK VINA RESULT:    -5.341      3.257      5.435
REMARK INTER + INTRA:          -8.311
REMARK INTER:                  -7.483
REMARK INTRA:                  -0.827
REMARK UNBOUND:                -0.940
REMARK  Name = 
REMARK  10 active torsions:
REMARK  status: ('A' for Active; 'I' for Inactive)
REMARK    1  A    between atoms: C_1  and  C_2
REMARK    2  A    between atoms: C_2  and  C_3
REMARK    3  A    between atoms: C_2  and  C_4
REMARK    4  A    between atoms: C_2  and  C_5
REMARK    5  A    between atoms: N_7  and  C_8
REMARK    6  A    between atoms: C_8  and  C_9
REMARK    7  A    between atoms: C_12  and  C_13
REMARK    8  A    between atoms: C_13  and  C_14
REMARK    9  A    between atoms: C_14  and  C_15
REMARK   10  A    between atoms: C_15  and  N_16
REMARK                            x       y       z     vdW  Elec       q    Type
REMARK                         _______ _______ _______ _____ _____    ______ ____
ROOT
ATOM      1  C   UNL     1      48.584   8.465  17.439  0.00  0.00    +0.000 A 
ATOM      2  C   UNL     1      48.503   8.406  16.057  0.00  0.00    +0.000 A 
ATOM      3  N   UNL     1      48.655   7.105  15.648  0.00  0.00    +0.000 N 
ATOM      4  C   UNL     1      48.704   6.272  16.746  0.00  0.00    +0.000 A 
ATOM      5  C   UNL     1      48.799   4.871  16.837  0.00  0.00    +0.000 A 
ATOM      6  C   UNL     1      48.885   4.290  18.103  0.00  0.00    +0.000 A 
ATOM      7  C   UNL     1      48.878   5.079  19.245  0.00  0.00    +0.000 A 
ATOM      8  C   UNL     1      48.781   6.470  19.146  0.00  0.00    +0.000 A 
ATOM      9  C   UNL     1      48.686   7.094  17.880  0.00  0.00    +0.000 A 
ENDROOT
BRANCH   1  11
ATOM     10  C   UNL     1      49.932   9.901  19.053  0.00  0.00    +0.000 C 
ATOM     11  C   UNL     1      48.593   9.734  18.294  0.00  0.00    +0.000 C 
ATOM     12  C   UNL     1      47.475   9.673  19.357  0.00  0.00    +0.000 C 
ATOM     13  C   UNL     1      48.403  10.993  17.427  0.00  0.00    +0.000 C 
ENDBRANCH   1  11
BRANCH   3  14
ATOM     14  C   UNL     1      48.814   6.704  14.252  0.00  0.00    +0.000 C 
BRANCH  14  15
ATOM     15  C   UNL     1      47.491   6.241  13.688  0.00  0.00    +0.000 A 
ATOM     16  C   UNL     1      46.580   7.166  13.164  0.00  0.00    +0.000 A 
ATOM     17  C   UNL     1      45.288   6.770  12.810  0.00  0.00    +0.000 A 
ATOM     18  C   UNL     1      44.884   5.439  12.958  0.00  0.00    +0.000 A 
ATOM     19  C   UNL     1      45.814   4.501  13.424  0.00  0.00    +0.000 A 
ATOM     20  C   UNL     1      47.105   4.897  13.784  0.00  0.00    +0.000 A 
BRANCH  18  21
ATOM     21  C   UNL     1      43.450   5.032  12.714  0.00  0.00    +0.000 C 
BRANCH  21  22
ATOM     22  C   UNL     1      43.117   4.631  11.275  0.00  0.00    +0.000 C 
BRANCH  22  23
ATOM     23  C   UNL     1      43.694   3.268  10.899  0.00  0.00    +0.000 C 
BRANCH  23  24
ATOM     24  N   UNL     1      43.032   2.216  11.665  0.00  0.00    +0.000 NA
ATOM     25  H   UNL     1      43.653   1.413  11.754  0.00  0.00    +0.000 HD
ATOM     26  H   UNL     1      42.213   1.892  11.156  0.00  0.00    +0.000 HD
ENDBRANCH  23  24
ENDBRANCH  22  23
ENDBRANCH  21  22
ENDBRANCH  18  21
ENDBRANCH  14  15
ENDBRANCH   3  14
TORSDOF 7
ENDMDL
MODEL 7
REMARK VINA RESULT:    -5.303      3.108      6.091
REMARK INTER + INTRA:          -8.258
REMARK INTER:                  -7.629
REMARK INTRA:                  -0.628
REMARK UNBOUND:                -0.940
REMARK  Name = 
REMARK  10 active torsions:
REMARK  status: ('A' for Active; 'I' for Inactive)
REMARK    1  A    between atoms: C_1  and  C_2
REMARK    2  A    between atoms: C_2  and  C_3
REMARK    3  A    between atoms: C_2  and  C_4
REMARK    4  A    between atoms: C_2  and  C_5
REMARK    5  A    between atoms: N_7  and  C_8
REMARK    6  A    between atoms: C_8  and  C_9
REMARK    7  A    between atoms: C_12  and  C_13
REMARK    8  A    between atoms: C_13  and  C_14
REMARK    9  A    between atoms: C_14  and  C_15
REMARK   10  A    between atoms: C_15  and  N_16
REMARK                            x       y       z     vdW  Elec       q    Type
REMARK                         _______ _______ _______ _____ _____    ______ ____
ROOT
ATOM      1  C   UNL     1      49.057   5.927  17.558  0.00  0.00    +0.000 A 
ATOM      2  C   UNL     1      49.254   5.701  16.205  0.00  0.00    +0.000 A 
ATOM      3  N   UNL     1      48.905   6.826  15.501  0.00  0.00    +0.000 N 
ATOM      4  C   UNL     1      48.604   7.850  16.375  0.00  0.00    +0.000 A 
ATOM      5  C   UNL     1      48.247   9.190  16.138  0.00  0.00    +0.000 A 
ATOM      6  C   UNL     1      47.939  10.001  17.230  0.00  0.00    +0.000 A 
ATOM      7  C   UNL     1      47.984   9.495  18.522  0.00  0.00    +0.000 A 
ATOM      8  C   UNL     1      48.342   8.163  18.750  0.00  0.00    +0.000 A 
ATOM      9  C   UNL     1      48.666   7.312  17.667  0.00  0.00    +0.000 A 
ENDROOT
BRANCH   1  11
ATOM     10  C   UNL     1      48.188   5.152  19.823  0.00  0.00    +0.000 C 
ATOM     11  C   UNL     1      49.200   4.896  18.680  0.00  0.00    +0.000 C 
ATOM     12  C   UNL     1      50.612   4.971  19.301  0.00  0.00    +0.000 C 
ATOM     13  C   UNL     1      48.947   3.467  18.162  0.00  0.00    +0.000 C 
ENDBRANCH   1  11
BRANCH   3  14
ATOM     14  C   UNL     1      48.806   6.878  14.045  0.00  0.00    +0.000 C 
BRANCH  14  15
ATOM     15  C   UNL     1      47.452   6.385  13.595  0.00  0.00    +0.000 A 
ATOM     16  C   UNL     1      46.535   7.265  13.005  0.00  0.00    +0.000 A 
ATOM     17  C   UNL     1      45.222   6.862  12.755  0.00  0.00    +0.000 A 
ATOM     18  C   UNL     1      44.799   5.568  13.074  0.00  0.00    +0.000 A 
ATOM     19  C   UNL     1      45.731   4.668  13.607  0.00  0.00    +0.000 A 
ATOM     20  C   UNL     1      47.044   5.071  13.863  0.00  0.00    +0.000 A 
BRANCH  18  21
ATOM     21  C   UNL     1      43.348   5.170  12.941  0.00  0.00    +0.000 C 
BRANCH  21  22
ATOM     22  C   UNL     1      42.820   5.086  11.506  0.00  0.00    +0.000 C 
BRANCH  22  23
ATOM     23  C   UNL     1      43.654   4.155  10.629  0.00  0.00    +0.000 C 
BRANCH  23  24
ATOM     24  N   UNL     1      43.731   4.683   9.270  0.00  0.00    +0.000 NA
ATOM     25  H   UNL     1      42.829   4.575   8.808  0.00  0.00    +0.000 HD
ATOM     26  H   UNL     1      44.398   4.134   8.732  0.00  0.00    +0.000 HD
ENDBRANCH  23  24
ENDBRANCH  22  23
ENDBRANCH  21  22
ENDBRANCH  18  21
ENDBRANCH  14  15
ENDBRANCH   3  14
TORSDOF 7
ENDMDL
MODEL 8
REMARK VINA RESULT:    -5.175      4.016      7.107
REMARK INTER + INTRA:          -8.082
REMARK INTER:                  -7.834
REMARK INTRA:                  -0.248
REMARK UNBOUND:                -0.940
REMARK  Name = 
REMARK  10 active torsions:
REMARK  status: ('A' for Active; 'I' for Inactive)
REMARK    1  A    between atoms: C_1  and  C_2
REMARK    2  A    between atoms: C_2  and  C_3
REMARK    3  A    between atoms: C_2  and  C_4
REMARK    4  A    between atoms: C_2  and  C_5
REMARK    5  A    between atoms: N_7  and  C_8
REMARK    6  A    between atoms: C_8  and  C_9
REMARK    7  A    between atoms: C_12  and  C_13
REMARK    8  A    between atoms: C_13  and  C_14
REMARK    9  A    between atoms: C_14  and  C_15
REMARK   10  A    between atoms: C_15  and  N_16
REMARK                            x       y       z     vdW  Elec       q    Type
REMARK                         _______ _______ _______ _____ _____    ______ ____
ROOT
ATOM      1  C   UNL     1      47.934   6.652  13.521  0.00  0.00    +0.000 A 
ATOM      2  C   UNL     1      48.086   5.940  14.700  0.00  0.00    +0.000 A 
ATOM      3  N   UNL     1      47.181   4.909  14.728  0.00  0.00    +0.000 N 
ATOM      4  C   UNL     1      46.514   4.840  13.522  0.00  0.00    +0.000 A 
ATOM      5  C   UNL     1      45.543   3.934  13.056  0.00  0.00    +0.000 A 
ATOM      6  C   UNL     1      44.992   4.140  11.791  0.00  0.00    +0.000 A 
ATOM      7  C   UNL     1      45.393   5.217  11.012  0.00  0.00    +0.000 A 
ATOM      8  C   UNL     1      46.360   6.111  11.482  0.00  0.00    +0.000 A 
ATOM      9  C   UNL     1      46.945   5.930  12.756  0.00  0.00    +0.000 A 
ENDROOT
BRANCH   1  11
ATOM     10  C   UNL     1      47.662   9.125  12.978  0.00  0.00    +0.000 C 
ATOM     11  C   UNL     1      48.655   7.949  13.146  0.00  0.00    +0.000 C 
ATOM     12  C   UNL     1      49.391   7.784  11.800  0.00  0.00    +0.000 C 
ATOM     13  C   UNL     1      49.665   8.362  14.233  0.00  0.00    +0.000 C 
ENDBRANCH   1  11
BRANCH   3  14
ATOM     14  C   UNL     1      46.932   4.074  15.901  0.00  0.00    +0.000 C 
BRANCH  14  15
ATOM     15  C   UNL     1      48.237   3.707  16.567  0.00  0.00    +0.000 A 
ATOM     16  C   UNL     1      49.016   4.689  17.193  0.00  0.00    +0.000 A 
ATOM     17  C   UNL     1      50.302   4.392  17.649  0.00  0.00    +0.000 A 
ATOM     18  C   UNL     1      50.833   3.106  17.502  0.00  0.00    +0.000 A 
ATOM     19  C   UNL     1      50.032   2.109  16.931  0.00  0.00    +0.000 A 
ATOM     20  C   UNL     1      48.747   2.405  16.470  0.00  0.00    +0.000 A 
BRANCH  18  21
ATOM     21  C   UNL     1      52.271   2.815  17.860  0.00  0.00    +0.000 C 
BRANCH  21  22
ATOM     22  C   UNL     1      52.622   1.333  18.013  0.00  0.00    +0.000 C 
BRANCH  22  23
ATOM     23  C   UNL     1      53.883   0.947  17.242  0.00  0.00    +0.000 C 
BRANCH  23  24
ATOM     24  N   UNL     1      53.636  -0.253  16.448  0.00  0.00    +0.000 NA
ATOM     25  H   UNL     1      52.634  -0.372  16.308  0.00  0.00    +0.000 HD
ATOM     26  H   UNL     1      53.955  -1.070  16.963  0.00  0.00    +0.000 HD
ENDBRANCH  23  24
ENDBRANCH  22  23
ENDBRANCH  21  22
ENDBRANCH  18  21
ENDBRANCH  14  15
ENDBRANCH   3  14
TORSDOF 7
ENDMDL
MODEL 9
REMARK VINA RESULT:    -5.155      3.483      6.526
REMARK INTER + INTRA:          -8.054
REMARK INTER:                  -7.117
REMARK INTRA:                  -0.937
REMARK UNBOUND:                -0.940
REMARK  Name = 
REMARK  10 active torsions:
REMARK  status: ('A' for Active; 'I' for Inactive)
REMARK    1  A    between atoms: C_1  and  C_2
REMARK    2  A    between atoms: C_2  and  C_3
REMARK    3  A    between atoms: C_2  and  C_4
REMARK    4  A    between atoms: C_2  and  C_5
REMARK    5  A    between atoms: N_7  and  C_8
REMARK    6  A    between atoms: C_8  and  C_9
REMARK    7  A    between atoms: C_12  and  C_13
REMARK    8  A    between atoms: C_13  and  C_14
REMARK    9  A    between atoms: C_14  and  C_15
REMARK   10  A    between atoms: C_15  and  N_16
REMARK                            x       y       z     vdW  Elec       q    Type
REMARK                         _______ _______ _______ _____ _____    ______ ____
ROOT
ATOM      1  C   UNL     1      49.477   5.811  17.000  0.00  0.00    +0.000 A 
ATOM      2  C   UNL     1      48.720   6.660  16.210  0.00  0.00    +0.000 A 
ATOM      3  N   UNL     1      49.555   7.503  15.520  0.00  0.00    +0.000 N 
ATOM      4  C   UNL     1      50.868   7.141  15.736  0.00  0.00    +0.000 A 
ATOM      5  C   UNL     1      52.066   7.661  15.214  0.00  0.00    +0.000 A 
ATOM      6  C   UNL     1      53.276   7.124  15.658  0.00  0.00    +0.000 A 
ATOM      7  C   UNL     1      53.293   6.100  16.595  0.00  0.00    +0.000 A 
ATOM      8  C   UNL     1      52.098   5.586  17.106  0.00  0.00    +0.000 A 
ATOM      9  C   UNL     1      50.853   6.101  16.675  0.00  0.00    +0.000 A 
ENDROOT
BRANCH   1  11
ATOM     10  C   UNL     1      47.395   4.843  18.103  0.00  0.00    +0.000 C 
ATOM     11  C   UNL     1      48.940   4.804  18.021  0.00  0.00    +0.000 C 
ATOM     12  C   UNL     1      49.476   5.133  19.431  0.00  0.00    +0.000 C 
ATOM     13  C   UNL     1      49.339   3.364  17.648  0.00  0.00    +0.000 C 
ENDBRANCH   1  11
BRANCH   3  14
ATOM     14  C   UNL     1      49.093   8.650  14.741  0.00  0.00    +0.000 C 
BRANCH  14  15
ATOM     15  C   UNL     1      48.109   8.203  13.686  0.00  0.00    +0.000 A 
ATOM     16  C   UNL     1      46.804   8.711  13.670  0.00  0.00    +0.000 A 
ATOM     17  C   UNL     1      45.840   8.171  12.817  0.00  0.00    +0.000 A 
ATOM     18  C   UNL     1      46.162   7.121  11.950  0.00  0.00    +0.000 A 
ATOM     19  C   UNL     1      47.482   6.653  11.921  0.00  0.00    +0.000 A 
ATOM     20  C   UNL     1      48.446   7.188  12.779  0.00  0.00    +0.000 A 
BRANCH  18  21
ATOM     21  C   UNL     1      45.094   6.437  11.130  0.00  0.00    +0.000 C 
BRANCH  21  22
ATOM     22  C   UNL     1      44.692   5.040  11.610  0.00  0.00    +0.000 C 
BRANCH  22  23
ATOM     23  C   UNL     1      44.285   5.022  13.082  0.00  0.00    +0.000 C 
BRANCH  23  24
ATOM     24  N   UNL     1      42.938   5.563  13.235  0.00  0.00    +0.000 NA
ATOM     25  H   UNL     1      42.710   5.642  14.225  0.00  0.00    +0.000 HD
ATOM     26  H   UNL     1      42.266   4.913  12.835  0.00  0.00    +0.000 HD
ENDBRANCH  23  24
ENDBRANCH  22  23
ENDBRANCH  21  22
ENDBRANCH  18  21
ENDBRANCH  14  15
ENDBRANCH   3  14
TORSDOF 7
ENDMDL
