MODEL 1
REMARK VINA RESULT:    -8.050      0.000      0.000
REMARK INTER + INTRA:         -10.538
REMARK INTER:                  -9.933
REMARK INTRA:                  -0.606
REMARK UNBOUND:                -0.606
REMARK  Name = 
REMARK  4 active torsions:
REMARK  status: ('A' for Active; 'I' for Inactive)
REMARK    1  A    between atoms: C_2  and  C_3
REMARK    2  A    between atoms: N_7  and  C_8
REMARK    3  A    between atoms: C_8  and  C_9
REMARK    4  A    between atoms: C_13  and  C_14
REMARK                            x       y       z     vdW  Elec       q    Type
REMARK                         _______ _______ _______ _____ _____    ______ ____
ROOT
ATOM      1  C   UNL     1      44.384   4.975  11.766  0.00  0.00    +0.000 A 
ATOM      2  C   UNL     1      43.412   4.151  12.304  0.00  0.00    +0.000 A 
ATOM      3  C   UNL     1      43.190   2.966  11.646  0.00  0.00    +0.000 A 
ATOM      4  N   UNL     1      43.860   2.594  10.542  0.00  0.00    +0.000 NA
ATOM      5  C   UNL     1      44.798   3.448  10.089  0.00  0.00    +0.000 A 
ATOM      6  N   UNL     1      45.088   4.631  10.662  0.00  0.00    +0.000 NA
ENDROOT
BRANCH   5   7
ATOM      7  C   UNL     1      45.556   3.062   8.886  0.00  0.00    +0.000 A 
ATOM      8  C   UNL     1      45.948   4.022   7.929  0.00  0.00    +0.000 A 
ATOM      9  C   UNL     1      46.651   3.664   6.774  0.00  0.00    +0.000 A 
ATOM     10  C   UNL     1      46.977   2.333   6.552  0.00  0.00    +0.000 A 
ATOM     11  C   UNL     1      46.608   1.374   7.485  0.00  0.00    +0.000 A 
ATOM     12  F   UNL     1      46.921   0.090   7.270  0.00  0.00    +0.000 F 
ATOM     13  C   UNL     1      45.913   1.724   8.639  0.00  0.00    +0.000 A 
ENDBRANCH   5   7
BRANCH   1  14
ATOM     14  C   UNL     1      44.675   6.329  12.374  0.00  0.00    +0.000 C 
BRANCH  14  19
ATOM     15  C   UNL     1      49.646   7.712  12.633  0.00  0.00    +0.000 A 
ATOM     16  C   UNL     1      48.757   7.755  11.564  0.00  0.00    +0.000 A 
ATOM     17  C   UNL     1      47.453   7.290  11.744  0.00  0.00    +0.000 A 
ATOM     18  C   UNL     1      47.064   6.782  12.978  0.00  0.00    +0.000 A 
ATOM     19  N   UNL     1      45.820   6.297  13.253  0.00  0.00    +0.000 N 
ATOM     20  N   UNL     1      47.921   6.741  14.020  0.00  0.00    +0.000 NA
ATOM     21  C   UNL     1      49.182   7.204  13.832  0.00  0.00    +0.000 A 
ATOM     22  H   UNL     1      45.727   5.924  14.187  0.00  0.00    +0.000 HD
BRANCH  15  24
ATOM     23  N   UNL     1      52.088   8.533  12.392  0.00  0.00    +0.000 NA
ATOM     24  C   UNL     1      50.991   8.166  12.501  0.00  0.00    +0.000 C 
ENDBRANCH  15  24
ENDBRANCH  14  19
ENDBRANCH   1  14
TORSDOF 4
ENDMDL
MODEL 2
REMARK VINA RESULT:    -8.001      3.416      7.095
REMARK INTER + INTRA:         -10.478
REMARK INTER:                  -9.935
REMARK INTRA:                  -0.543
REMARK UNBOUND:                -0.606
REMARK  Name = 
REMARK  4 active torsions:
REMARK  status: ('A' for Active; 'I' for Inactive)
REMARK    1  A    between atoms: C_2  and  C_3
REMARK    2  A    between atoms: N_7  and  C_8
REMARK    3  A    between atoms: C_8  and  C_9
REMARK    4  A    between atoms: C_13  and  C_14
REMARK                            x       y       z     vdW  Elec       q    Type
REMARK                         _______ _______ _______ _____ _____    ______ ____
ROOT
ATOM      1  C   UNL     1      44.550   5.018  11.862  0.00  0.00    +0.000 A 
ATOM      2  C   UNL     1      45.125   4.267  12.872  0.00  0.00    +0.000 A 
ATOM      3  C   UNL     1      46.087   4.897  13.623  0.00  0.00    +0.000 A 
ATOM      4  N   UNL     1      46.472   6.168  13.421  0.00  0.00    +0.000 NA
ATOM      5  C   UNL     1      45.854   6.834  12.425  0.00  0.00    +0.000 A 
ATOM      6  N   UNL     1      44.902   6.305  11.634  0.00  0.00    +0.000 NA
ENDROOT
BRANCH   5   7
ATOM      7  C   UNL     1      46.249   8.234  12.186  0.00  0.00    +0.000 A 
ATOM      8  C   UNL     1      47.607   8.611  12.131  0.00  0.00    +0.000 A 
ATOM      9  C   UNL     1      47.993   9.939  11.924  0.00  0.00    +0.000 A 
ATOM     10  C   UNL     1      47.024  10.921  11.767  0.00  0.00    +0.000 A 
ATOM     11  C   UNL     1      45.682  10.569  11.809  0.00  0.00    +0.000 A 
ATOM     12  F   UNL     1      44.747  11.516  11.659  0.00  0.00    +0.000 F 
ATOM     13  C   UNL     1      45.291   9.248  12.010  0.00  0.00    +0.000 A 
ENDBRANCH   5   7
BRANCH   1  14
ATOM     14  C   UNL     1      43.520   4.412  10.937  0.00  0.00    +0.000 C 
BRANCH  14  19
ATOM     15  C   UNL     1      46.660   2.457   7.329  0.00  0.00    +0.000 A 
ATOM     16  C   UNL     1      46.311   3.777   7.596  0.00  0.00    +0.000 A 
ATOM     17  C   UNL     1      45.406   4.047   8.624  0.00  0.00    +0.000 A 
ATOM     18  C   UNL     1      44.859   3.001   9.357  0.00  0.00    +0.000 A 
ATOM     19  N   UNL     1      43.964   3.159  10.373  0.00  0.00    +0.000 N 
ATOM     20  N   UNL     1      45.197   1.718   9.106  0.00  0.00    +0.000 NA
ATOM     21  C   UNL     1      46.083   1.472   8.109  0.00  0.00    +0.000 A 
ATOM     22  H   UNL     1      43.635   2.287  10.764  0.00  0.00    +0.000 HD
BRANCH  15  24
ATOM     23  N   UNL     1      48.317   1.854   5.436  0.00  0.00    +0.000 NA
ATOM     24  C   UNL     1      47.571   2.125   6.285  0.00  0.00    +0.000 C 
ENDBRANCH  15  24
ENDBRANCH  14  19
ENDBRANCH   1  14
TORSDOF 4
ENDMDL
MODEL 3
REMARK VINA RESULT:    -7.950      2.962      6.832
REMARK INTER + INTRA:         -10.414
REMARK INTER:                  -9.844
REMARK INTRA:                  -0.570
REMARK UNBOUND:                -0.606
REMARK  Name = 
REMARK  4 active torsions:
REMARK  status: ('A' for Active; 'I' for Inactive)
REMARK    1  A    between atoms: C_2  and  C_3
REMARK    2  A    between atoms: N_7  and  C_8
REMARK    3  A    between atoms: C_8  and  C_9
REMARK    4  A    between atoms: C_13  and  C_14
REMARK                            x       y       z     vdW  Elec       q    Type
REMARK                         _______ _______ _______ _____ _____    ______ ____
ROOT
ATOM      1  C   UNL     1      44.824   5.213  11.893  0.00  0.00    +0.000 A 
ATOM      2  C   UNL     1      45.106   4.463  13.021  0.00  0.00    +0.000 A 
ATOM      3  C   UNL     1      46.109   4.939  13.830  0.00  0.00    +0.000 A 
ATOM      4  N   UNL     1      46.797   6.064  13.574  0.00  0.00    +0.000 NA
ATOM      5  C   UNL     1      46.453   6.742  12.462  0.00  0.00    +0.000 A 
ATOM      6  N   UNL     1      45.487   6.358  11.606  0.00  0.00    +0.000 NA
ENDROOT
BRANCH   5   7
ATOM      7  C   UNL     1      47.184   7.986  12.161  0.00  0.00    +0.000 A 
ATOM      8  C   UNL     1      46.543   9.241  12.214  0.00  0.00    +0.000 A 
ATOM      9  C   UNL     1      47.221  10.427  11.911  0.00  0.00    +0.000 A 
ATOM     10  C   UNL     1      48.561  10.379  11.549  0.00  0.00    +0.000 A 
ATOM     11  C   UNL     1      49.212   9.154  11.499  0.00  0.00    +0.000 A 
ATOM     12  F   UNL     1      50.504   9.108  11.147  0.00  0.00    +0.000 F 
ATOM     13  C   UNL     1      48.544   7.972  11.803  0.00  0.00    +0.000 A 
ENDBRANCH   5   7
BRANCH   1  14
ATOM     14  C   UNL     1      43.778   4.757  10.902  0.00  0.00    +0.000 C 
BRANCH  14  19
ATOM     15  C   UNL     1      46.732   2.545   7.287  0.00  0.00    +0.000 A 
ATOM     16  C   UNL     1      46.516   3.890   7.570  0.00  0.00    +0.000 A 
ATOM     17  C   UNL     1      45.636   4.236   8.596  0.00  0.00    +0.000 A 
ATOM     18  C   UNL     1      44.980   3.240   9.311  0.00  0.00    +0.000 A 
ATOM     19  N   UNL     1      44.098   3.473  10.323  0.00  0.00    +0.000 N 
ATOM     20  N   UNL     1      45.189   1.933   9.044  0.00  0.00    +0.000 NA
ATOM     21  C   UNL     1      46.053   1.613   8.049  0.00  0.00    +0.000 A 
ATOM     22  H   UNL     1      43.680   2.634  10.700  0.00  0.00    +0.000 HD
BRANCH  15  24
ATOM     23  N   UNL     1      48.330   1.804   5.391  0.00  0.00    +0.000 NA
ATOM     24  C   UNL     1      47.614   2.137   6.244  0.00  0.00    +0.000 C 
ENDBRANCH  15  24
ENDBRANCH  14  19
ENDBRANCH   1  14
TORSDOF 4
ENDMDL
MODEL 4
REMARK VINA RESULT:    -7.619      2.762      3.385
REMARK INTER + INTRA:         -10.006
REMARK INTER:                  -9.619
REMARK INTRA:                  -0.386
REMARK UNBOUND:                -0.606
REMARK  Name = 
REMARK  4 active torsions:
REMARK  status: ('A' for Active; 'I' for Inactive)
REMARK    1  A    between atoms: C_2  and  C_3
REMARK    2  A    between atoms: N_7  and  C_8
REMARK    3  A    between atoms: C_8  and  C_9
REMARK    4  A    between atoms: C_13  and  C_14
REMARK                            x       y       z     vdW  Elec       q    Type
REMARK                         _______ _______ _______ _____ _____    ______ ____
ROOT
ATOM      1  C   UNL     1      44.949   4.702  12.379  0.00  0.00    +0.000 A 
ATOM      2  C   UNL     1      43.570   4.710  12.484  0.00  0.00    +0.000 A 
ATOM      3  C   UNL     1      42.877   4.218  11.405  0.00  0.00    +0.000 A 
ATOM      4  N   UNL     1      43.470   3.745  10.296  0.00  0.00    +0.000 NA
ATOM      5  C   UNL     1      44.818   3.761  10.279  0.00  0.00    +0.000 A 
ATOM      6  N   UNL     1      45.585   4.224  11.284  0.00  0.00    +0.000 NA
ENDROOT
BRANCH   5   7
ATOM      7  C   UNL     1      45.496   3.239   9.079  0.00  0.00    +0.000 A 
ATOM      8  C   UNL     1      45.902   4.098   8.036  0.00  0.00    +0.000 A 
ATOM      9  C   UNL     1      46.529   3.612   6.885  0.00  0.00    +0.000 A 
ATOM     10  C   UNL     1      46.765   2.249   6.753  0.00  0.00    +0.000 A 
ATOM     11  C   UNL     1      46.380   1.388   7.771  0.00  0.00    +0.000 A 
ATOM     12  F   UNL     1      46.605   0.074   7.643  0.00  0.00    +0.000 F 
ATOM     13  C   UNL     1      45.760   1.866   8.922  0.00  0.00    +0.000 A 
ENDBRANCH   5   7
BRANCH   1  14
ATOM     14  C   UNL     1      45.813   5.271  13.482  0.00  0.00    +0.000 C 
BRANCH  14  19
ATOM     15  C   UNL     1      49.121   4.527  17.380  0.00  0.00    +0.000 A 
ATOM     16  C   UNL     1      48.890   5.657  16.602  0.00  0.00    +0.000 A 
ATOM     17  C   UNL     1      47.947   5.595  15.575  0.00  0.00    +0.000 A 
ATOM     18  C   UNL     1      47.263   4.409  15.334  0.00  0.00    +0.000 A 
ATOM     19  N   UNL     1      46.332   4.243  14.353  0.00  0.00    +0.000 N 
ATOM     20  N   UNL     1      47.480   3.310  16.088  0.00  0.00    +0.000 NA
ATOM     21  C   UNL     1      48.394   3.389  17.088  0.00  0.00    +0.000 A 
ATOM     22  H   UNL     1      45.970   3.301  14.291  0.00  0.00    +0.000 HD
BRANCH  15  24
ATOM     23  N   UNL     1      50.861   4.536  19.295  0.00  0.00    +0.000 NA
ATOM     24  C   UNL     1      50.079   4.534  18.435  0.00  0.00    +0.000 C 
ENDBRANCH  15  24
ENDBRANCH  14  19
ENDBRANCH   1  14
TORSDOF 4
ENDMDL
MODEL 5
REMARK VINA RESULT:    -7.488      1.313      1.494
REMARK INTER + INTRA:          -9.845
REMARK INTER:                  -9.260
REMARK INTRA:                  -0.585
REMARK UNBOUND:                -0.606
REMARK  Name = 
REMARK  4 active torsions:
REMARK  status: ('A' for Active; 'I' for Inactive)
REMARK    1  A    between atoms: C_2  and  C_3
REMARK    2  A    between atoms: N_7  and  C_8
REMARK    3  A    between atoms: C_8  and  C_9
REMARK    4  A    between atoms: C_13  and  C_14
REMARK                            x       y       z     vdW  Elec       q    Type
REMARK                         _______ _______ _______ _____ _____    ______ ____
ROOT
ATOM      1  C   UNL     1      45.027   4.341  12.433  0.00  0.00    +0.000 A 
ATOM      2  C   UNL     1      43.696   4.054  12.681  0.00  0.00    +0.000 A 
ATOM      3  C   UNL     1      43.013   3.424  11.670  0.00  0.00    +0.000 A 
ATOM      4  N   UNL     1      43.572   3.088  10.495  0.00  0.00    +0.000 NA
ATOM      5  C   UNL     1      44.876   3.392  10.338  0.00  0.00    +0.000 A 
ATOM      6  N   UNL     1      45.629   4.008  11.268  0.00  0.00    +0.000 NA
ENDROOT
BRANCH   5   7
ATOM      7  C   UNL     1      45.519   3.026   9.063  0.00  0.00    +0.000 A 
ATOM      8  C   UNL     1      45.809   4.000   8.085  0.00  0.00    +0.000 A 
ATOM      9  C   UNL     1      46.401   3.661   6.864  0.00  0.00    +0.000 A 
ATOM     10  C   UNL     1      46.716   2.335   6.596  0.00  0.00    +0.000 A 
ATOM     11  C   UNL     1      46.446   1.363   7.549  0.00  0.00    +0.000 A 
ATOM     12  F   UNL     1      46.748   0.084   7.290  0.00  0.00    +0.000 F 
ATOM     13  C   UNL     1      45.861   1.694   8.768  0.00  0.00    +0.000 A 
ENDBRANCH   5   7
BRANCH   1  14
ATOM     14  C   UNL     1      45.862   5.081  13.453  0.00  0.00    +0.000 C 
BRANCH  14  19
ATOM     15  C   UNL     1      48.597   9.128  11.768  0.00  0.00    +0.000 A 
ATOM     16  C   UNL     1      48.973   7.800  11.942  0.00  0.00    +0.000 A 
ATOM     17  C   UNL     1      48.043   6.889  12.446  0.00  0.00    +0.000 A 
ATOM     18  C   UNL     1      46.764   7.319  12.777  0.00  0.00    +0.000 A 
ATOM     19  N   UNL     1      45.788   6.513  13.283  0.00  0.00    +0.000 N 
ATOM     20  N   UNL     1      46.391   8.606  12.607  0.00  0.00    +0.000 NA
ATOM     21  C   UNL     1      47.304   9.477  12.108  0.00  0.00    +0.000 A 
ATOM     22  H   UNL     1      44.933   7.003  13.511  0.00  0.00    +0.000 HD
BRANCH  15  24
ATOM     23  N   UNL     1      50.255  10.890  10.853  0.00  0.00    +0.000 NA
ATOM     24  C   UNL     1      49.510  10.100  11.265  0.00  0.00    +0.000 C 
ENDBRANCH  15  24
ENDBRANCH  14  19
ENDBRANCH   1  14
TORSDOF 4
ENDMDL
MODEL 6
REMARK VINA RESULT:    -7.081      3.960      7.677
REMARK INTER + INTRA:          -9.342
REMARK INTER:                  -8.944
REMARK INTRA:                  -0.399
REMARK UNBOUND:                -0.606
REMARK  Name = 
REMARK  4 active torsions:
REMARK  status: ('A' for Active; 'I' for Inactive)
REMARK    1  A    between atoms: C_2  and  C_3
REMARK    2  A    between atoms: N_7  and  C_8
REMARK    3  A    between atoms: C_8  and  C_9
REMARK    4  A    between atoms: C_13  and  C_14
REMARK                            x       y       z     vdW  Elec       q    Type
REMARK                         _______ _______ _______ _____ _____    ______ ____
ROOT
ATOM      1  C   UNL     1      45.896   5.554  12.751  0.00  0.00    +0.000 A 
ATOM      2  C   UNL     1      46.743   6.438  12.106  0.00  0.00    +0.000 A 
ATOM      3  C   UNL     1      47.912   6.741  12.758  0.00  0.00    +0.000 A 
ATOM      4  N   UNL     1      48.250   6.228  13.953  0.00  0.00    +0.000 NA
ATOM      5  C   UNL     1      47.375   5.366  14.509  0.00  0.00    +0.000 A 
ATOM      6  N   UNL     1      46.204   5.007  13.949  0.00  0.00    +0.000 NA
ENDROOT
BRANCH   5   7
ATOM      7  C   UNL     1      47.723   4.780  15.815  0.00  0.00    +0.000 A 
ATOM      8  C   UNL     1      47.172   3.550  16.234  0.00  0.00    +0.000 A 
ATOM      9  C   UNL     1      47.480   2.993  17.480  0.00  0.00    +0.000 A 
ATOM     10  C   UNL     1      48.349   3.658  18.335  0.00  0.00    +0.000 A 
ATOM     11  C   UNL     1      48.908   4.865  17.938  0.00  0.00    +0.000 A 
ATOM     12  F   UNL     1      49.745   5.507  18.763  0.00  0.00    +0.000 F 
ATOM     13  C   UNL     1      48.609   5.422  16.698  0.00  0.00    +0.000 A 
ENDBRANCH   5   7
BRANCH   1  14
ATOM     14  C   UNL     1      44.556   5.190  12.153  0.00  0.00    +0.000 C 
BRANCH  14  19
ATOM     15  C   UNL     1      46.046   3.257   7.599  0.00  0.00    +0.000 A 
ATOM     16  C   UNL     1      45.994   4.575   8.041  0.00  0.00    +0.000 A 
ATOM     17  C   UNL     1      45.520   4.844   9.326  0.00  0.00    +0.000 A 
ATOM     18  C   UNL     1      45.096   3.800  10.139  0.00  0.00    +0.000 A 
ATOM     19  N   UNL     1      44.610   3.957  11.403  0.00  0.00    +0.000 N 
ATOM     20  N   UNL     1      45.147   2.518   9.718  0.00  0.00    +0.000 NA
ATOM     21  C   UNL     1      45.619   2.272   8.470  0.00  0.00    +0.000 A 
ATOM     22  H   UNL     1      44.304   3.094  11.832  0.00  0.00    +0.000 HD
BRANCH  15  24
ATOM     23  N   UNL     1      46.897   2.658   5.231  0.00  0.00    +0.000 NA
ATOM     24  C   UNL     1      46.514   2.928   6.294  0.00  0.00    +0.000 C 
ENDBRANCH  15  24
ENDBRANCH  14  19
ENDBRANCH   1  14
TORSDOF 4
ENDMDL
MODEL 7
REMARK VINA RESULT:    -6.880      4.857      6.300
REMARK INTER + INTRA:          -9.094
REMARK INTER:                  -8.546
REMARK INTRA:                  -0.548
REMARK UNBOUND:                -0.606
REMARK  Name = 
REMARK  4 active torsions:
REMARK  status: ('A' for Active; 'I' for Inactive)
REMARK    1  A    between atoms: C_2  and  C_3
REMARK    2  A    between atoms: N_7  and  C_8
REMARK    3  A    between atoms: C_8  and  C_9
REMARK    4  A    between atoms: C_13  and  C_14
REMARK                            x       y       z     vdW  Elec       q    Type
REMARK                         _______ _______ _______ _____ _____    ______ ____
ROOT
ATOM      1  C   UNL     1      47.455   4.491  15.726  0.00  0.00    +0.000 A 
ATOM      2  C   UNL     1      48.253   5.621  15.682  0.00  0.00    +0.000 A 
ATOM      3  C   UNL     1      48.150   6.392  14.551  0.00  0.00    +0.000 A 
ATOM      4  N   UNL     1      47.332   6.100  13.526  0.00  0.00    +0.000 NA
ATOM      5  C   UNL     1      46.580   4.989  13.652  0.00  0.00    +0.000 A 
ATOM      6  N   UNL     1      46.610   4.168  14.720  0.00  0.00    +0.000 NA
ENDROOT
BRANCH   5   7
ATOM      7  C   UNL     1      45.665   4.648  12.548  0.00  0.00    +0.000 A 
ATOM      8  C   UNL     1      45.650   5.399  11.353  0.00  0.00    +0.000 A 
ATOM      9  C   UNL     1      44.773   5.097  10.307  0.00  0.00    +0.000 A 
ATOM     10  C   UNL     1      43.889   4.033  10.434  0.00  0.00    +0.000 A 
ATOM     11  C   UNL     1      43.894   3.277  11.598  0.00  0.00    +0.000 A 
ATOM     12  F   UNL     1      43.041   2.252  11.722  0.00  0.00    +0.000 F 
ATOM     13  C   UNL     1      44.767   3.569  12.642  0.00  0.00    +0.000 A 
ENDBRANCH   5   7
BRANCH   1  14
ATOM     14  C   UNL     1      47.526   3.539  16.898  0.00  0.00    +0.000 C 
BRANCH  14  19
ATOM     15  C   UNL     1      52.436   2.368  17.998  0.00  0.00    +0.000 A 
ATOM     16  C   UNL     1      51.723   3.544  18.212  0.00  0.00    +0.000 A 
ATOM     17  C   UNL     1      50.395   3.621  17.793  0.00  0.00    +0.000 A 
ATOM     18  C   UNL     1      49.806   2.533  17.159  0.00  0.00    +0.000 A 
ATOM     19  N   UNL     1      48.520   2.510  16.705  0.00  0.00    +0.000 N 
ATOM     20  N   UNL     1      50.490   1.388  16.952  0.00  0.00    +0.000 NA
ATOM     21  C   UNL     1      51.778   1.326  17.372  0.00  0.00    +0.000 A 
ATOM     22  H   UNL     1      48.273   1.654  16.227  0.00  0.00    +0.000 HD
BRANCH  15  24
ATOM     23  N   UNL     1      54.909   2.137  18.723  0.00  0.00    +0.000 NA
ATOM     24  C   UNL     1      53.798   2.240  18.399  0.00  0.00    +0.000 C 
ENDBRANCH  15  24
ENDBRANCH  14  19
ENDBRANCH   1  14
TORSDOF 4
ENDMDL
MODEL 8
REMARK VINA RESULT:    -6.351      3.221      4.727
REMARK INTER + INTRA:          -8.442
REMARK INTER:                  -8.055
REMARK INTRA:                  -0.387
REMARK UNBOUND:                -0.606
REMARK  Name = 
REMARK  4 active torsions:
REMARK  status: ('A' for Active; 'I' for Inactive)
REMARK    1  A    between atoms: C_2  and  C_3
REMARK    2  A    between atoms: N_7  and  C_8
REMARK    3  A    between atoms: C_8  and  C_9
REMARK    4  A    between atoms: C_13  and  C_14
REMARK                            x       y       z     vdW  Elec       q    Type
REMARK                         _______ _______ _______ _____ _____    ______ ____
ROOT
ATOM      1  C   UNL     1      46.925   7.006  12.975  0.00  0.00    +0.000 A 
ATOM      2  C   UNL     1      46.210   8.189  12.916  0.00  0.00    +0.000 A 
ATOM      3  C   UNL     1      45.195   8.239  11.992  0.00  0.00    +0.000 A 
ATOM      4  N   UNL     1      44.884   7.217  11.177  0.00  0.00    +0.000 NA
ATOM      5  C   UNL     1      45.621   6.096  11.306  0.00  0.00    +0.000 A 
ATOM      6  N   UNL     1      46.635   5.950  12.179  0.00  0.00    +0.000 NA
ENDROOT
BRANCH   5   7
ATOM      7  C   UNL     1      45.295   4.954  10.432  0.00  0.00    +0.000 A 
ATOM      8  C   UNL     1      44.576   3.843  10.920  0.00  0.00    +0.000 A 
ATOM      9  C   UNL     1      44.279   2.745  10.105  0.00  0.00    +0.000 A 
ATOM     10  C   UNL     1      44.696   2.739   8.780  0.00  0.00    +0.000 A 
ATOM     11  C   UNL     1      45.397   3.827   8.279  0.00  0.00    +0.000 A 
ATOM     12  F   UNL     1      45.801   3.820   7.002  0.00  0.00    +0.000 F 
ATOM     13  C   UNL     1      45.692   4.924   9.083  0.00  0.00    +0.000 A 
ENDBRANCH   5   7
BRANCH   1  14
ATOM     14  C   UNL     1      48.099   6.857  13.916  0.00  0.00    +0.000 C 
BRANCH  14  19
ATOM     15  C   UNL     1      49.882   5.428  18.549  0.00  0.00    +0.000 A 
ATOM     16  C   UNL     1      50.466   6.223  17.569  0.00  0.00    +0.000 A 
ATOM     17  C   UNL     1      49.782   6.441  16.372  0.00  0.00    +0.000 A 
ATOM     18  C   UNL     1      48.538   5.855  16.170  0.00  0.00    +0.000 A 
ATOM     19  N   UNL     1      47.795   5.999  15.037  0.00  0.00    +0.000 N 
ATOM     20  N   UNL     1      47.964   5.086  17.119  0.00  0.00    +0.000 NA
ATOM     21  C   UNL     1      48.638   4.890  18.280  0.00  0.00    +0.000 A 
ATOM     22  H   UNL     1      46.937   5.465  15.042  0.00  0.00    +0.000 HD
BRANCH  15  24
ATOM     23  N   UNL     1      51.079   4.949  20.792  0.00  0.00    +0.000 NA
ATOM     24  C   UNL     1      50.542   5.166  19.785  0.00  0.00    +0.000 C 
ENDBRANCH  15  24
ENDBRANCH  14  19
ENDBRANCH   1  14
TORSDOF 4
ENDMDL
MODEL 9
REMARK VINA RESULT:    -6.195      5.365      8.857
REMARK INTER + INTRA:          -8.249
REMARK INTER:                  -7.845
REMARK INTRA:                  -0.404
REMARK UNBOUND:                -0.606
REMARK  Name = 
REMARK  4 active torsions:
REMARK  status: ('A' for Active; 'I' for Inactive)
REMARK    1  A    between atoms: C_2  and  C_3
REMARK    2  A    between atoms: N_7  and  C_8
REMARK    3  A    between atoms: C_8  and  C_9
REMARK    4  A    between atoms: C_13  and  C_14
REMARK                            x       y       z     vdW  Elec       q    Type
REMARK                         _______ _______ _______ _____ _____    ______ ____
ROOT
ATOM      1  C   UNL     1      48.961   5.915  16.689  0.00  0.00    +0.000 A 
ATOM      2  C   UNL     1      48.676   6.619  17.846  0.00  0.00    +0.000 A 
ATOM      3  C   UNL     1      49.320   6.201  18.984  0.00  0.00    +0.000 A 
ATOM      4  N   UNL     1      50.184   5.173  19.012  0.00  0.00    +0.000 NA
ATOM      5  C   UNL     1      50.416   4.547  17.841  0.00  0.00    +0.000 A 
ATOM      6  N   UNL     1      49.834   4.881  16.674  0.00  0.00    +0.000 NA
ENDROOT
BRANCH   5   7
ATOM      7  C   UNL     1      51.367   3.422  17.839  0.00  0.00    +0.000 A 
ATOM      8  C   UNL     1      50.970   2.129  17.438  0.00  0.00    +0.000 A 
ATOM      9  C   UNL     1      51.859   1.049  17.451  0.00  0.00    +0.000 A 
ATOM     10  C   UNL     1      53.170   1.243  17.866  0.00  0.00    +0.000 A 
ATOM     11  C   UNL     1      53.583   2.509  18.257  0.00  0.00    +0.000 A 
ATOM     12  F   UNL     1      54.847   2.695  18.659  0.00  0.00    +0.000 F 
ATOM     13  C   UNL     1      52.705   3.588  18.242  0.00  0.00    +0.000 A 
ENDBRANCH   5   7
BRANCH   1  14
ATOM     14  C   UNL     1      48.269   6.251  15.388  0.00  0.00    +0.000 C 
BRANCH  14  19
ATOM     15  C   UNL     1      45.350   4.738  11.402  0.00  0.00    +0.000 A 
ATOM     16  C   UNL     1      46.109   5.892  11.573  0.00  0.00    +0.000 A 
ATOM     17  C   UNL     1      46.796   6.084  12.772  0.00  0.00    +0.000 A 
ATOM     18  C   UNL     1      46.707   5.132  13.780  0.00  0.00    +0.000 A 
ATOM     19  N   UNL     1      47.332   5.228  14.988  0.00  0.00    +0.000 N 
ATOM     20  N   UNL     1      45.976   4.008  13.620  0.00  0.00    +0.000 NA
ATOM     21  C   UNL     1      45.320   3.832  12.446  0.00  0.00    +0.000 A 
ATOM     22  H   UNL     1      47.118   4.468  15.619  0.00  0.00    +0.000 HD
BRANCH  15  24
ATOM     23  N   UNL     1      44.025   4.302   9.224  0.00  0.00    +0.000 NA
ATOM     24  C   UNL     1      44.622   4.498  10.202  0.00  0.00    +0.000 C 
ENDBRANCH  15  24
ENDBRANCH  14  19
ENDBRANCH   1  14
TORSDOF 4
ENDMDL
