MODEL 1
REMARK VINA RESULT:    -8.090      0.000      0.000
REMARK INTER + INTRA:         -12.189
REMARK INTER:                 -10.928
REMARK INTRA:                  -1.262
REMARK UNBOUND:                -1.262
REMARK  Name = 
REMARK  7 active torsions:
REMARK  status: ('A' for Active; 'I' for Inactive)
REMARK    1  A    between atoms: C_1  and  C_2
REMARK    2  A    between atoms: C_2  and  N_3
REMARK    3  A    between atoms: N_3  and  C_4
REMARK    4  A    between atoms: C_4  and  C_5
REMARK    5  A    between atoms: C_8  and  C_9
REMARK    6  A    between atoms: C_9  and  N_10
REMARK    7  A    between atoms: C_19  and  C_21
REMARK                            x       y       z     vdW  Elec       q    Type
REMARK                         _______ _______ _______ _____ _____    ______ ____
ROOT
ATOM      1  N   UNL     1      48.913   7.200  13.866  0.00  0.00    +0.000 N 
ATOM      2  C   UNL     1      49.613   7.150  15.087  0.00  0.00    +0.000 C 
ATOM      3  O   UNL     1      50.838   7.007  15.096  0.00  0.00    +0.000 OA
ENDROOT
BRANCH   2   4
ATOM      4  C   UNL     1      48.927   7.432  16.367  0.00  0.00    +0.000 A 
ATOM      5  C   UNL     1      48.714   8.687  16.919  0.00  0.00    +0.000 A 
ATOM      6  S   UNL     1      48.239   8.652  18.561  0.00  0.00    +0.000 S 
ATOM      7  C   UNL     1      48.349   6.957  18.602  0.00  0.00    +0.000 A 
ATOM      8  N   UNL     1      48.223   6.269  19.768  0.00  0.00    +0.000 NA
ATOM      9  C   UNL     1      48.340   4.989  19.637  0.00  0.00    +0.000 A 
ATOM     10  N   UNL     1      48.511   4.334  18.442  0.00  0.00    +0.000 N 
ATOM     11  C   UNL     1      48.528   4.985  17.228  0.00  0.00    +0.000 A 
ATOM     12  O   UNL     1      48.405   4.375  16.173  0.00  0.00    +0.000 OA
ATOM     13  C   UNL     1      48.577   6.430  17.346  0.00  0.00    +0.000 A 
ATOM     14  H   UNL     1      48.470   3.327  18.398  0.00  0.00    +0.000 HD
ENDBRANCH   2   4
BRANCH   1  16
ATOM     15  C   UNL     1      49.264   9.034  12.198  0.00  0.00    +0.000 C 
ATOM     16  C   UNL     1      49.683   7.668  12.711  0.00  0.00    +0.000 C 
ENDBRANCH   1  16
BRANCH   1  17
ATOM     17  C   UNL     1      47.460   7.175  13.789  0.00  0.00    +0.000 C 
BRANCH  17  18
ATOM     18  C   UNL     1      46.788   6.213  12.842  0.00  0.00    +0.000 A 
ATOM     19  C   UNL     1      46.347   4.961  13.285  0.00  0.00    +0.000 A 
ATOM     20  C   UNL     1      45.479   4.204  12.493  0.00  0.00    +0.000 A 
ATOM     21  C   UNL     1      45.062   4.669  11.237  0.00  0.00    +0.000 A 
ATOM     22  C   UNL     1      45.561   5.888  10.767  0.00  0.00    +0.000 A 
ATOM     23  C   UNL     1      46.419   6.649  11.558  0.00  0.00    +0.000 A 
BRANCH  21  24
ATOM     24  C   UNL     1      44.041   3.897  10.434  0.00  0.00    +0.000 C 
BRANCH  24  25
ATOM     25  N   UNL     1      44.200   4.198   9.024  0.00  0.00    +0.000 N 
ATOM     26  C   UNL     1      45.144   3.394   8.400  0.00  0.00    +0.000 A 
ATOM     27  N   UNL     1      45.296   2.118   8.789  0.00  0.00    +0.000 NA
ATOM     28  C   UNL     1      46.227   1.385   8.155  0.00  0.00    +0.000 A 
ATOM     29  C   UNL     1      47.016   1.874   7.147  0.00  0.00    +0.000 A 
ATOM     30  C   UNL     1      46.789   3.188   6.819  0.00  0.00    +0.000 A 
ATOM     31  N   UNL     1      45.869   3.963   7.428  0.00  0.00    +0.000 NA
ATOM     32  H   UNL     1      44.446   5.157   8.807  0.00  0.00    +0.000 HD
ENDBRANCH  24  25
ENDBRANCH  21  24
ENDBRANCH  17  18
ENDBRANCH   1  17
TORSDOF 6
ENDMDL
MODEL 2
REMARK VINA RESULT:    -7.521      2.315      4.398
REMARK INTER + INTRA:         -11.421
REMARK INTER:                 -10.118
REMARK INTRA:                  -1.302
REMARK UNBOUND:                -1.262
REMARK  Name = 
REMARK  7 active torsions:
REMARK  status: ('A' for Active; 'I' for Inactive)
REMARK    1  A    between atoms: C_1  and  C_2
REMARK    2  A    between atoms: C_2  and  N_3
REMARK    3  A    between atoms: N_3  and  C_4
REMARK    4  A    between atoms: C_4  and  C_5
REMARK    5  A    between atoms: C_8  and  C_9
REMARK    6  A    between atoms: C_9  and  N_10
REMARK    7  A    between atoms: C_19  and  C_21
REMARK                            x       y       z     vdW  Elec       q    Type
REMARK                         _______ _______ _______ _____ _____    ______ ____
ROOT
ATOM      1  N   UNL     1      48.405   6.920  14.805  0.00  0.00    +0.000 N 
ATOM      2  C   UNL     1      48.439   8.327  14.863  0.00  0.00    +0.000 C 
ATOM      3  O   UNL     1      48.256   8.910  15.934  0.00  0.00    +0.000 OA
ENDROOT
BRANCH   2   4
ATOM      4  C   UNL     1      48.854   9.125  13.689  0.00  0.00    +0.000 A 
ATOM      5  C   UNL     1      48.019   9.890  12.887  0.00  0.00    +0.000 A 
ATOM      6  S   UNL     1      48.731  10.376  11.410  0.00  0.00    +0.000 S 
ATOM      7  C   UNL     1      50.164   9.539  11.773  0.00  0.00    +0.000 A 
ATOM      8  N   UNL     1      51.156   9.405  10.853  0.00  0.00    +0.000 NA
ATOM      9  C   UNL     1      52.176   8.735  11.277  0.00  0.00    +0.000 A 
ATOM     10  N   UNL     1      52.318   8.240  12.550  0.00  0.00    +0.000 N 
ATOM     11  C   UNL     1      51.387   8.454  13.544  0.00  0.00    +0.000 A 
ATOM     12  O   UNL     1      51.651   8.250  14.723  0.00  0.00    +0.000 OA
ATOM     13  C   UNL     1      50.153   9.047  13.064  0.00  0.00    +0.000 A 
ATOM     14  H   UNL     1      53.192   7.835  12.850  0.00  0.00    +0.000 HD
ENDBRANCH   2   4
BRANCH   1  16
ATOM     15  C   UNL     1      47.896   4.996  16.324  0.00  0.00    +0.000 C 
ATOM     16  C   UNL     1      48.744   6.225  16.050  0.00  0.00    +0.000 C 
ENDBRANCH   1  16
BRANCH   1  17
ATOM     17  C   UNL     1      48.422   6.182  13.551  0.00  0.00    +0.000 C 
BRANCH  17  18
ATOM     18  C   UNL     1      47.119   5.878  12.857  0.00  0.00    +0.000 A 
ATOM     19  C   UNL     1      46.714   6.611  11.737  0.00  0.00    +0.000 A 
ATOM     20  C   UNL     1      45.669   6.145  10.933  0.00  0.00    +0.000 A 
ATOM     21  C   UNL     1      44.992   4.958  11.252  0.00  0.00    +0.000 A 
ATOM     22  C   UNL     1      45.353   4.264  12.412  0.00  0.00    +0.000 A 
ATOM     23  C   UNL     1      46.401   4.722  13.209  0.00  0.00    +0.000 A 
BRANCH  21  24
ATOM     24  C   UNL     1      43.937   4.404  10.323  0.00  0.00    +0.000 C 
BRANCH  24  25
ATOM     25  N   UNL     1      44.318   4.658   8.948  0.00  0.00    +0.000 N 
ATOM     26  C   UNL     1      45.192   3.707   8.441  0.00  0.00    +0.000 A 
ATOM     27  N   UNL     1      45.090   2.428   8.836  0.00  0.00    +0.000 NA
ATOM     28  C   UNL     1      45.964   1.548   8.318  0.00  0.00    +0.000 A 
ATOM     29  C   UNL     1      46.940   1.893   7.421  0.00  0.00    +0.000 A 
ATOM     30  C   UNL     1      46.968   3.222   7.077  0.00  0.00    +0.000 A 
ATOM     31  N   UNL     1      46.114   4.141   7.571  0.00  0.00    +0.000 NA
ATOM     32  H   UNL     1      44.738   5.563   8.770  0.00  0.00    +0.000 HD
ENDBRANCH  24  25
ENDBRANCH  21  24
ENDBRANCH  17  18
ENDBRANCH   1  17
TORSDOF 6
ENDMDL
MODEL 3
REMARK VINA RESULT:    -7.484      1.977      2.584
REMARK INTER + INTRA:         -11.371
REMARK INTER:                 -10.129
REMARK INTRA:                  -1.242
REMARK UNBOUND:                -1.262
REMARK  Name = 
REMARK  7 active torsions:
REMARK  status: ('A' for Active; 'I' for Inactive)
REMARK    1  A    between atoms: C_1  and  C_2
REMARK    2  A    between atoms: C_2  and  N_3
REMARK    3  A    between atoms: N_3  and  C_4
REMARK    4  A    between atoms: C_4  and  C_5
REMARK    5  A    between atoms: C_8  and  C_9
REMARK    6  A    between atoms: C_9  and  N_10
REMARK    7  A    between atoms: C_19  and  C_21
REMARK                            x       y       z     vdW  Elec       q    Type
REMARK                         _______ _______ _______ _____ _____    ______ ____
ROOT
ATOM      1  N   UNL     1      48.684   7.727  14.809  0.00  0.00    +0.000 N 
ATOM      2  C   UNL     1      49.101   7.455  16.127  0.00  0.00    +0.000 C 
ATOM      3  O   UNL     1      49.183   8.365  16.954  0.00  0.00    +0.000 OA
ENDROOT
BRANCH   2   4
ATOM      4  C   UNL     1      49.289   6.063  16.590  0.00  0.00    +0.000 A 
ATOM      5  C   UNL     1      48.279   5.173  16.928  0.00  0.00    +0.000 A 
ATOM      6  S   UNL     1      48.826   3.791  17.775  0.00  0.00    +0.000 S 
ATOM      7  C   UNL     1      50.427   4.361  17.759  0.00  0.00    +0.000 A 
ATOM      8  N   UNL     1      51.408   3.732  18.460  0.00  0.00    +0.000 NA
ATOM      9  C   UNL     1      52.567   4.290  18.354  0.00  0.00    +0.000 A 
ATOM     10  N   UNL     1      52.846   5.382  17.569  0.00  0.00    +0.000 N 
ATOM     11  C   UNL     1      51.907   5.977  16.756  0.00  0.00    +0.000 A 
ATOM     12  O   UNL     1      52.231   6.759  15.870  0.00  0.00    +0.000 OA
ATOM     13  C   UNL     1      50.558   5.493  16.978  0.00  0.00    +0.000 A 
ATOM     14  H   UNL     1      53.798   5.690  17.437  0.00  0.00    +0.000 HD
ENDBRANCH   2   4
BRANCH   1  16
ATOM     15  C   UNL     1      48.319   9.889  13.600  0.00  0.00    +0.000 C 
ATOM     16  C   UNL     1      47.827   8.905  14.645  0.00  0.00    +0.000 C 
ENDBRANCH   1  16
BRANCH   1  17
ATOM     17  C   UNL     1      48.749   6.741  13.741  0.00  0.00    +0.000 C 
BRANCH  17  18
ATOM     18  C   UNL     1      47.474   6.294  13.073  0.00  0.00    +0.000 A 
ATOM     19  C   UNL     1      47.106   6.795  11.820  0.00  0.00    +0.000 A 
ATOM     20  C   UNL     1      46.094   6.172  11.084  0.00  0.00    +0.000 A 
ATOM     21  C   UNL     1      45.412   5.059  11.601  0.00  0.00    +0.000 A 
ATOM     22  C   UNL     1      45.733   4.605  12.884  0.00  0.00    +0.000 A 
ATOM     23  C   UNL     1      46.748   5.219  13.615  0.00  0.00    +0.000 A 
BRANCH  21  24
ATOM     24  C   UNL     1      44.394   4.325  10.759  0.00  0.00    +0.000 C 
BRANCH  24  25
ATOM     25  N   UNL     1      44.575   4.674   9.363  0.00  0.00    +0.000 N 
ATOM     26  C   UNL     1      45.346   3.752   8.668  0.00  0.00    +0.000 A 
ATOM     27  N   UNL     1      45.277   2.449   8.985  0.00  0.00    +0.000 NA
ATOM     28  C   UNL     1      46.049   1.600   8.284  0.00  0.00    +0.000 A 
ATOM     29  C   UNL     1      46.891   1.999   7.280  0.00  0.00    +0.000 A 
ATOM     30  C   UNL     1      46.895   3.349   7.028  0.00  0.00    +0.000 A 
ATOM     31  N   UNL     1      46.141   4.239   7.705  0.00  0.00    +0.000 NA
ATOM     32  H   UNL     1      44.983   5.585   9.189  0.00  0.00    +0.000 HD
ENDBRANCH  24  25
ENDBRANCH  21  24
ENDBRANCH  17  18
ENDBRANCH   1  17
TORSDOF 6
ENDMDL
MODEL 4
REMARK VINA RESULT:    -7.203      1.501      2.155
REMARK INTER + INTRA:         -10.992
REMARK INTER:                  -9.595
REMARK INTRA:                  -1.397
REMARK UNBOUND:                -1.262
REMARK  Name = 
REMARK  7 active torsions:
REMARK  status: ('A' for Active; 'I' for Inactive)
REMARK    1  A    between atoms: C_1  and  C_2
REMARK    2  A    between atoms: C_2  and  N_3
REMARK    3  A    between atoms: N_3  and  C_4
REMARK    4  A    between atoms: C_4  and  C_5
REMARK    5  A    between atoms: C_8  and  C_9
REMARK    6  A    between atoms: C_9  and  N_10
REMARK    7  A    between atoms: C_19  and  C_21
REMARK                            x       y       z     vdW  Elec       q    Type
REMARK                         _______ _______ _______ _____ _____    ______ ____
ROOT
ATOM      1  N   UNL     1      49.275   7.869  14.100  0.00  0.00    +0.000 N 
ATOM      2  C   UNL     1      50.099   7.334  15.110  0.00  0.00    +0.000 C 
ATOM      3  O   UNL     1      51.324   7.319  14.970  0.00  0.00    +0.000 OA
ENDROOT
BRANCH   2   4
ATOM      4  C   UNL     1      49.534   6.935  16.417  0.00  0.00    +0.000 A 
ATOM      5  C   UNL     1      49.232   5.640  16.814  0.00  0.00    +0.000 A 
ATOM      6  S   UNL     1      48.254   5.553  18.213  0.00  0.00    +0.000 S 
ATOM      7  C   UNL     1      48.160   7.247  18.308  0.00  0.00    +0.000 A 
ATOM      8  N   UNL     1      47.336   7.860  19.198  0.00  0.00    +0.000 NA
ATOM      9  C   UNL     1      47.372   9.150  19.142  0.00  0.00    +0.000 A 
ATOM     10  N   UNL     1      48.196   9.879  18.321  0.00  0.00    +0.000 N 
ATOM     11  C   UNL     1      49.127   9.296  17.488  0.00  0.00    +0.000 A 
ATOM     12  O   UNL     1      50.028   9.952  16.977  0.00  0.00    +0.000 OA
ATOM     13  C   UNL     1      48.997   7.855  17.392  0.00  0.00    +0.000 A 
ATOM     14  H   UNL     1      48.261  10.881  18.416  0.00  0.00    +0.000 HD
ENDBRANCH   2   4
BRANCH   1  16
ATOM     15  C   UNL     1      50.214   8.400  11.840  0.00  0.00    +0.000 C 
ATOM     16  C   UNL     1      49.898   8.883  13.244  0.00  0.00    +0.000 C 
ENDBRANCH   1  16
BRANCH   1  17
ATOM     17  C   UNL     1      47.825   7.745  14.116  0.00  0.00    +0.000 C 
BRANCH  17  18
ATOM     18  C   UNL     1      47.157   6.781  13.170  0.00  0.00    +0.000 A 
ATOM     19  C   UNL     1      46.861   5.473  13.569  0.00  0.00    +0.000 A 
ATOM     20  C   UNL     1      45.994   4.686  12.805  0.00  0.00    +0.000 A 
ATOM     21  C   UNL     1      45.434   5.181  11.617  0.00  0.00    +0.000 A 
ATOM     22  C   UNL     1      45.788   6.463  11.185  0.00  0.00    +0.000 A 
ATOM     23  C   UNL     1      46.645   7.252  11.949  0.00  0.00    +0.000 A 
BRANCH  21  24
ATOM     24  C   UNL     1      44.415   4.367  10.854  0.00  0.00    +0.000 C 
BRANCH  24  25
ATOM     25  N   UNL     1      44.487   4.696   9.443  0.00  0.00    +0.000 N 
ATOM     26  C   UNL     1      45.254   3.798   8.715  0.00  0.00    +0.000 A 
ATOM     27  N   UNL     1      45.269   2.500   9.057  0.00  0.00    +0.000 NA
ATOM     28  C   UNL     1      46.033   1.674   8.320  0.00  0.00    +0.000 A 
ATOM     29  C   UNL     1      46.787   2.092   7.256  0.00  0.00    +0.000 A 
ATOM     30  C   UNL     1      46.710   3.435   6.982  0.00  0.00    +0.000 A 
ATOM     31  N   UNL     1      45.959   4.302   7.693  0.00  0.00    +0.000 NA
ATOM     32  H   UNL     1      44.838   5.622   9.227  0.00  0.00    +0.000 HD
ENDBRANCH  24  25
ENDBRANCH  21  24
ENDBRANCH  17  18
ENDBRANCH   1  17
TORSDOF 6
ENDMDL
MODEL 5
REMARK VINA RESULT:    -7.112      3.501      8.091
REMARK INTER + INTRA:         -10.868
REMARK INTER:                  -9.887
REMARK INTRA:                  -0.981
REMARK UNBOUND:                -1.262
REMARK  Name = 
REMARK  7 active torsions:
REMARK  status: ('A' for Active; 'I' for Inactive)
REMARK    1  A    between atoms: C_1  and  C_2
REMARK    2  A    between atoms: C_2  and  N_3
REMARK    3  A    between atoms: N_3  and  C_4
REMARK    4  A    between atoms: C_4  and  C_5
REMARK    5  A    between atoms: C_8  and  C_9
REMARK    6  A    between atoms: C_9  and  N_10
REMARK    7  A    between atoms: C_19  and  C_21
REMARK                            x       y       z     vdW  Elec       q    Type
REMARK                         _______ _______ _______ _____ _____    ______ ____
ROOT
ATOM      1  N   UNL     1      46.610   7.553  12.208  0.00  0.00    +0.000 N 
ATOM      2  C   UNL     1      45.458   7.121  11.522  0.00  0.00    +0.000 C 
ATOM      3  O   UNL     1      44.500   7.883  11.373  0.00  0.00    +0.000 OA
ENDROOT
BRANCH   2   4
ATOM      4  C   UNL     1      45.433   5.814  10.829  0.00  0.00    +0.000 A 
ATOM      5  C   UNL     1      45.797   5.584   9.510  0.00  0.00    +0.000 A 
ATOM      6  S   UNL     1      45.302   4.061   8.909  0.00  0.00    +0.000 S 
ATOM      7  C   UNL     1      44.541   3.679  10.379  0.00  0.00    +0.000 A 
ATOM      8  N   UNL     1      43.771   2.566  10.508  0.00  0.00    +0.000 NA
ATOM      9  C   UNL     1      43.255   2.418  11.683  0.00  0.00    +0.000 A 
ATOM     10  N   UNL     1      43.485   3.247  12.752  0.00  0.00    +0.000 N 
ATOM     11  C   UNL     1      44.350   4.319  12.695  0.00  0.00    +0.000 A 
ATOM     12  O   UNL     1      44.750   4.873  13.711  0.00  0.00    +0.000 OA
ATOM     13  C   UNL     1      44.810   4.621  11.353  0.00  0.00    +0.000 A 
ATOM     14  H   UNL     1      43.150   3.004  13.672  0.00  0.00    +0.000 HD
ENDBRANCH   2   4
BRANCH   1  16
ATOM     15  C   UNL     1      48.286   9.374  11.827  0.00  0.00    +0.000 C 
ATOM     16  C   UNL     1      46.859   8.997  12.183  0.00  0.00    +0.000 C 
ENDBRANCH   1  16
BRANCH   1  17
ATOM     17  C   UNL     1      47.690   6.651  12.582  0.00  0.00    +0.000 C 
BRANCH  17  18
ATOM     18  C   UNL     1      47.961   6.394  14.042  0.00  0.00    +0.000 A 
ATOM     19  C   UNL     1      47.437   5.266  14.682  0.00  0.00    +0.000 A 
ATOM     20  C   UNL     1      47.922   4.881  15.935  0.00  0.00    +0.000 A 
ATOM     21  C   UNL     1      48.915   5.632  16.582  0.00  0.00    +0.000 A 
ATOM     22  C   UNL     1      49.387   6.799  15.972  0.00  0.00    +0.000 A 
ATOM     23  C   UNL     1      48.911   7.179  14.718  0.00  0.00    +0.000 A 
BRANCH  21  24
ATOM     24  C   UNL     1      49.511   5.153  17.886  0.00  0.00    +0.000 C 
BRANCH  24  25
ATOM     25  N   UNL     1      50.948   5.023  17.745  0.00  0.00    +0.000 N 
ATOM     26  C   UNL     1      51.374   3.702  17.718  0.00  0.00    +0.000 A 
ATOM     27  N   UNL     1      50.601   2.763  17.149  0.00  0.00    +0.000 NA
ATOM     28  C   UNL     1      51.059   1.499  17.154  0.00  0.00    +0.000 A 
ATOM     29  C   UNL     1      52.258   1.132  17.706  0.00  0.00    +0.000 A 
ATOM     30  C   UNL     1      52.978   2.159  18.264  0.00  0.00    +0.000 A 
ATOM     31  N   UNL     1      52.559   3.441  18.286  0.00  0.00    +0.000 NA
ATOM     32  H   UNL     1      51.502   5.492  18.453  0.00  0.00    +0.000 HD
ENDBRANCH  24  25
ENDBRANCH  21  24
ENDBRANCH  17  18
ENDBRANCH   1  17
TORSDOF 6
ENDMDL
MODEL 6
REMARK VINA RESULT:    -6.988      1.545      2.166
REMARK INTER + INTRA:         -10.700
REMARK INTER:                  -8.971
REMARK INTRA:                  -1.729
REMARK UNBOUND:                -1.262
REMARK  Name = 
REMARK  7 active torsions:
REMARK  status: ('A' for Active; 'I' for Inactive)
REMARK    1  A    between atoms: C_1  and  C_2
REMARK    2  A    between atoms: C_2  and  N_3
REMARK    3  A    between atoms: N_3  and  C_4
REMARK    4  A    between atoms: C_4  and  C_5
REMARK    5  A    between atoms: C_8  and  C_9
REMARK    6  A    between atoms: C_9  and  N_10
REMARK    7  A    between atoms: C_19  and  C_21
REMARK                            x       y       z     vdW  Elec       q    Type
REMARK                         _______ _______ _______ _____ _____    ______ ____
ROOT
ATOM      1  N   UNL     1      50.752   8.291  14.396  0.00  0.00    +0.000 N 
ATOM      2  C   UNL     1      50.808   7.507  15.565  0.00  0.00    +0.000 C 
ATOM      3  O   UNL     1      51.744   6.725  15.745  0.00  0.00    +0.000 OA
ENDROOT
BRANCH   2   4
ATOM      4  C   UNL     1      49.846   7.721  16.668  0.00  0.00    +0.000 A 
ATOM      5  C   UNL     1      49.938   8.695  17.653  0.00  0.00    +0.000 A 
ATOM      6  S   UNL     1      48.890   8.441  18.980  0.00  0.00    +0.000 S 
ATOM      7  C   UNL     1      48.312   6.993  18.304  0.00  0.00    +0.000 A 
ATOM      8  N   UNL     1      47.490   6.166  19.002  0.00  0.00    +0.000 NA
ATOM      9  C   UNL     1      47.144   5.103  18.356  0.00  0.00    +0.000 A 
ATOM     10  N   UNL     1      47.498   4.821  17.059  0.00  0.00    +0.000 N 
ATOM     11  C   UNL     1      48.234   5.687  16.280  0.00  0.00    +0.000 A 
ATOM     12  O   UNL     1      48.304   5.551  15.064  0.00  0.00    +0.000 OA
ATOM     13  C   UNL     1      48.787   6.805  17.020  0.00  0.00    +0.000 A 
ATOM     14  H   UNL     1      47.092   4.034  16.576  0.00  0.00    +0.000 HD
ENDBRANCH   2   4
BRANCH   1  16
ATOM     15  C   UNL     1      52.107   9.937  13.082  0.00  0.00    +0.000 C 
ATOM     16  C   UNL     1      52.042   8.582  13.764  0.00  0.00    +0.000 C 
ENDBRANCH   1  16
BRANCH   1  17
ATOM     17  C   UNL     1      49.588   9.087  14.035  0.00  0.00    +0.000 C 
BRANCH  17  18
ATOM     18  C   UNL     1      48.481   8.452  13.232  0.00  0.00    +0.000 A 
ATOM     19  C   UNL     1      48.767   7.526  12.223  0.00  0.00    +0.000 A 
ATOM     20  C   UNL     1      47.747   6.733  11.689  0.00  0.00    +0.000 A 
ATOM     21  C   UNL     1      46.423   6.873  12.131  0.00  0.00    +0.000 A 
ATOM     22  C   UNL     1      46.129   7.848  13.090  0.00  0.00    +0.000 A 
ATOM     23  C   UNL     1      47.146   8.633  13.630  0.00  0.00    +0.000 A 
BRANCH  21  24
ATOM     24  C   UNL     1      45.344   5.941  11.629  0.00  0.00    +0.000 C 
BRANCH  24  25
ATOM     25  N   UNL     1      45.239   6.051  10.187  0.00  0.00    +0.000 N 
ATOM     26  C   UNL     1      45.356   4.829   9.539  0.00  0.00    +0.000 A 
ATOM     27  N   UNL     1      44.879   3.716  10.120  0.00  0.00    +0.000 NA
ATOM     28  C   UNL     1      45.023   2.559   9.451  0.00  0.00    +0.000 A 
ATOM     29  C   UNL     1      45.627   2.464   8.226  0.00  0.00    +0.000 A 
ATOM     30  C   UNL     1      46.085   3.653   7.712  0.00  0.00    +0.000 A 
ATOM     31  N   UNL     1      45.966   4.838   8.346  0.00  0.00    +0.000 NA
ATOM     32  H   UNL     1      45.902   6.679   9.746  0.00  0.00    +0.000 HD
ENDBRANCH  24  25
ENDBRANCH  21  24
ENDBRANCH  17  18
ENDBRANCH   1  17
TORSDOF 6
ENDMDL
MODEL 7
REMARK VINA RESULT:    -6.942      2.063      3.138
REMARK INTER + INTRA:         -10.639
REMARK INTER:                  -9.878
REMARK INTRA:                  -0.761
REMARK UNBOUND:                -1.262
REMARK  Name = 
REMARK  7 active torsions:
REMARK  status: ('A' for Active; 'I' for Inactive)
REMARK    1  A    between atoms: C_1  and  C_2
REMARK    2  A    between atoms: C_2  and  N_3
REMARK    3  A    between atoms: N_3  and  C_4
REMARK    4  A    between atoms: C_4  and  C_5
REMARK    5  A    between atoms: C_8  and  C_9
REMARK    6  A    between atoms: C_9  and  N_10
REMARK    7  A    between atoms: C_19  and  C_21
REMARK                            x       y       z     vdW  Elec       q    Type
REMARK                         _______ _______ _______ _____ _____    ______ ____
ROOT
ATOM      1  N   UNL     1      47.679   4.868  16.316  0.00  0.00    +0.000 N 
ATOM      2  C   UNL     1      47.969   5.603  17.482  0.00  0.00    +0.000 C 
ATOM      3  O   UNL     1      47.513   5.248  18.571  0.00  0.00    +0.000 OA
ENDROOT
BRANCH   2   4
ATOM      4  C   UNL     1      48.951   6.709  17.456  0.00  0.00    +0.000 A 
ATOM      5  C   UNL     1      48.658   8.057  17.298  0.00  0.00    +0.000 A 
ATOM      6  S   UNL     1      50.019   9.025  16.935  0.00  0.00    +0.000 S 
ATOM      7  C   UNL     1      51.040   7.667  16.929  0.00  0.00    +0.000 A 
ATOM      8  N   UNL     1      52.336   7.759  16.528  0.00  0.00    +0.000 NA
ATOM      9  C   UNL     1      52.978   6.640  16.572  0.00  0.00    +0.000 A 
ATOM     10  N   UNL     1      52.462   5.454  17.033  0.00  0.00    +0.000 N 
ATOM     11  C   UNL     1      51.191   5.345  17.554  0.00  0.00    +0.000 A 
ATOM     12  O   UNL     1      50.848   4.364  18.204  0.00  0.00    +0.000 OA
ATOM     13  C   UNL     1      50.381   6.532  17.361  0.00  0.00    +0.000 A 
ATOM     14  H   UNL     1      53.056   4.648  17.155  0.00  0.00    +0.000 HD
ENDBRANCH   2   4
BRANCH   1  16
ATOM     15  C   UNL     1      48.596   2.556  16.603  0.00  0.00    +0.000 C 
ATOM     16  C   UNL     1      47.372   3.449  16.521  0.00  0.00    +0.000 C 
ENDBRANCH   1  16
BRANCH   1  17
ATOM     17  C   UNL     1      48.024   5.335  14.982  0.00  0.00    +0.000 C 
BRANCH  17  18
ATOM     18  C   UNL     1      47.086   5.053  13.836  0.00  0.00    +0.000 A 
ATOM     19  C   UNL     1      46.739   3.740  13.500  0.00  0.00    +0.000 A 
ATOM     20  C   UNL     1      45.661   3.496  12.644  0.00  0.00    +0.000 A 
ATOM     21  C   UNL     1      44.934   4.559  12.086  0.00  0.00    +0.000 A 
ATOM     22  C   UNL     1      45.328   5.871  12.368  0.00  0.00    +0.000 A 
ATOM     23  C   UNL     1      46.396   6.115  13.229  0.00  0.00    +0.000 A 
BRANCH  21  24
ATOM     24  C   UNL     1      43.705   4.289  11.248  0.00  0.00    +0.000 C 
BRANCH  24  25
ATOM     25  N   UNL     1      43.918   4.778   9.900  0.00  0.00    +0.000 N 
ATOM     26  C   UNL     1      44.737   3.950   9.145  0.00  0.00    +0.000 A 
ATOM     27  N   UNL     1      44.695   2.621   9.330  0.00  0.00    +0.000 NA
ATOM     28  C   UNL     1      45.512   1.865   8.576  0.00  0.00    +0.000 A 
ATOM     29  C   UNL     1      46.373   2.381   7.644  0.00  0.00    +0.000 A 
ATOM     30  C   UNL     1      46.346   3.749   7.525  0.00  0.00    +0.000 A 
ATOM     31  N   UNL     1      45.546   4.549   8.261  0.00  0.00    +0.000 NA
ATOM     32  H   UNL     1      44.305   5.712   9.829  0.00  0.00    +0.000 HD
ENDBRANCH  24  25
ENDBRANCH  21  24
ENDBRANCH  17  18
ENDBRANCH   1  17
TORSDOF 6
ENDMDL
MODEL 8
REMARK VINA RESULT:    -6.888      2.099      2.962
REMARK INTER + INTRA:         -10.566
REMARK INTER:                  -9.239
REMARK INTRA:                  -1.327
REMARK UNBOUND:                -1.262
REMARK  Name = 
REMARK  7 active torsions:
REMARK  status: ('A' for Active; 'I' for Inactive)
REMARK    1  A    between atoms: C_1  and  C_2
REMARK    2  A    between atoms: C_2  and  N_3
REMARK    3  A    between atoms: N_3  and  C_4
REMARK    4  A    between atoms: C_4  and  C_5
REMARK    5  A    between atoms: C_8  and  C_9
REMARK    6  A    between atoms: C_9  and  N_10
REMARK    7  A    between atoms: C_19  and  C_21
REMARK                            x       y       z     vdW  Elec       q    Type
REMARK                         _______ _______ _______ _____ _____    ______ ____
ROOT
ATOM      1  N   UNL     1      49.295   8.026  16.295  0.00  0.00    +0.000 N 
ATOM      2  C   UNL     1      49.554   7.517  17.582  0.00  0.00    +0.000 C 
ATOM      3  O   UNL     1      49.334   8.207  18.580  0.00  0.00    +0.000 OA
ENDROOT
BRANCH   2   4
ATOM      4  C   UNL     1      49.934   6.100  17.775  0.00  0.00    +0.000 A 
ATOM      5  C   UNL     1      51.217   5.579  17.674  0.00  0.00    +0.000 A 
ATOM      6  S   UNL     1      51.267   3.873  17.579  0.00  0.00    +0.000 S 
ATOM      7  C   UNL     1      49.571   3.776  17.621  0.00  0.00    +0.000 A 
ATOM      8  N   UNL     1      48.926   2.597  17.416  0.00  0.00    +0.000 NA
ATOM      9  C   UNL     1      47.638   2.689  17.471  0.00  0.00    +0.000 A 
ATOM     10  N   UNL     1      46.943   3.835  17.768  0.00  0.00    +0.000 N 
ATOM     11  C   UNL     1      47.563   5.022  18.094  0.00  0.00    +0.000 A 
ATOM     12  O   UNL     1      46.947   5.943  18.617  0.00  0.00    +0.000 OA
ATOM     13  C   UNL     1      48.997   5.007  17.873  0.00  0.00    +0.000 A 
ATOM     14  H   UNL     1      45.946   3.807  17.915  0.00  0.00    +0.000 HD
ENDBRANCH   2   4
BRANCH   1  16
ATOM     15  C   UNL     1      48.793  10.478  16.345  0.00  0.00    +0.000 C 
ATOM     16  C   UNL     1      48.261   9.062  16.218  0.00  0.00    +0.000 C 
ENDBRANCH   1  16
BRANCH   1  17
ATOM     17  C   UNL     1      49.707   7.342  15.078  0.00  0.00    +0.000 C 
BRANCH  17  18
ATOM     18  C   UNL     1      48.655   6.837  14.124  0.00  0.00    +0.000 A 
ATOM     19  C   UNL     1      47.829   5.762  14.469  0.00  0.00    +0.000 A 
ATOM     20  C   UNL     1      46.681   5.490  13.719  0.00  0.00    +0.000 A 
ATOM     21  C   UNL     1      46.358   6.266  12.595  0.00  0.00    +0.000 A 
ATOM     22  C   UNL     1      47.223   7.295  12.212  0.00  0.00    +0.000 A 
ATOM     23  C   UNL     1      48.363   7.574  12.964  0.00  0.00    +0.000 A 
BRANCH  21  24
ATOM     24  C   UNL     1      45.062   6.036  11.853  0.00  0.00    +0.000 C 
BRANCH  24  25
ATOM     25  N   UNL     1      45.265   6.264  10.436  0.00  0.00    +0.000 N 
ATOM     26  C   UNL     1      45.226   5.097   9.686  0.00  0.00    +0.000 A 
ATOM     27  N   UNL     1      44.405   4.098  10.048  0.00  0.00    +0.000 NA
ATOM     28  C   UNL     1      44.410   2.987   9.289  0.00  0.00    +0.000 A 
ATOM     29  C   UNL     1      45.203   2.832   8.184  0.00  0.00    +0.000 A 
ATOM     30  C   UNL     1      46.009   3.905   7.892  0.00  0.00    +0.000 A 
ATOM     31  N   UNL     1      46.041   5.038   8.624  0.00  0.00    +0.000 NA
ATOM     32  H   UNL     1      46.125   6.740  10.188  0.00  0.00    +0.000 HD
ENDBRANCH  24  25
ENDBRANCH  21  24
ENDBRANCH  17  18
ENDBRANCH   1  17
TORSDOF 6
ENDMDL
MODEL 9
REMARK VINA RESULT:    -6.863      1.788      2.305
REMARK INTER + INTRA:         -10.532
REMARK INTER:                  -9.367
REMARK INTRA:                  -1.164
REMARK UNBOUND:                -1.262
REMARK  Name = 
REMARK  7 active torsions:
REMARK  status: ('A' for Active; 'I' for Inactive)
REMARK    1  A    between atoms: C_1  and  C_2
REMARK    2  A    between atoms: C_2  and  N_3
REMARK    3  A    between atoms: N_3  and  C_4
REMARK    4  A    between atoms: C_4  and  C_5
REMARK    5  A    between atoms: C_8  and  C_9
REMARK    6  A    between atoms: C_9  and  N_10
REMARK    7  A    between atoms: C_19  and  C_21
REMARK                            x       y       z     vdW  Elec       q    Type
REMARK                         _______ _______ _______ _____ _____    ______ ____
ROOT
ATOM      1  N   UNL     1      49.575   8.648  14.220  0.00  0.00    +0.000 N 
ATOM      2  C   UNL     1      50.263   8.839  15.435  0.00  0.00    +0.000 C 
ATOM      3  O   UNL     1      50.491   9.979  15.848  0.00  0.00    +0.000 OA
ENDROOT
BRANCH   2   4
ATOM      4  C   UNL     1      50.579   7.694  16.316  0.00  0.00    +0.000 A 
ATOM      5  C   UNL     1      51.726   6.915  16.261  0.00  0.00    +0.000 A 
ATOM      6  S   UNL     1      51.618   5.457  17.149  0.00  0.00    +0.000 S 
ATOM      7  C   UNL     1      50.015   5.798  17.599  0.00  0.00    +0.000 A 
ATOM      8  N   UNL     1      49.253   4.878  18.247  0.00  0.00    +0.000 NA
ATOM      9  C   UNL     1      48.055   5.283  18.512  0.00  0.00    +0.000 A 
ATOM     10  N   UNL     1      47.572   6.539  18.240  0.00  0.00    +0.000 N 
ATOM     11  C   UNL     1      48.348   7.536  17.689  0.00  0.00    +0.000 A 
ATOM     12  O   UNL     1      47.992   8.708  17.708  0.00  0.00    +0.000 OA
ATOM     13  C   UNL     1      49.639   7.071  17.218  0.00  0.00    +0.000 A 
ATOM     14  H   UNL     1      46.669   6.828  18.585  0.00  0.00    +0.000 HD
ENDBRANCH   2   4
BRANCH   1  16
ATOM     15  C   UNL     1      49.132  10.508  12.604  0.00  0.00    +0.000 C 
ATOM     16  C   UNL     1      48.672   9.733  13.825  0.00  0.00    +0.000 C 
ENDBRANCH   1  16
BRANCH   1  17
ATOM     17  C   UNL     1      49.443   7.345  13.586  0.00  0.00    +0.000 C 
BRANCH  17  18
ATOM     18  C   UNL     1      48.090   6.902  13.089  0.00  0.00    +0.000 A 
ATOM     19  C   UNL     1      47.650   7.243  11.805  0.00  0.00    +0.000 A 
ATOM     20  C   UNL     1      46.543   6.597  11.248  0.00  0.00    +0.000 A 
ATOM     21  C   UNL     1      45.839   5.624  11.975  0.00  0.00    +0.000 A 
ATOM     22  C   UNL     1      46.238   5.337  13.284  0.00  0.00    +0.000 A 
ATOM     23  C   UNL     1      47.348   5.973  13.837  0.00  0.00    +0.000 A 
BRANCH  21  24
ATOM     24  C   UNL     1      44.710   4.854  11.330  0.00  0.00    +0.000 C 
BRANCH  24  25
ATOM     25  N   UNL     1      44.665   5.151   9.912  0.00  0.00    +0.000 N 
ATOM     26  C   UNL     1      45.213   4.146   9.128  0.00  0.00    +0.000 A 
ATOM     27  N   UNL     1      45.088   2.863   9.503  0.00  0.00    +0.000 NA
ATOM     28  C   UNL     1      45.641   1.929   8.709  0.00  0.00    +0.000 A 
ATOM     29  C   UNL     1      46.319   2.223   7.556  0.00  0.00    +0.000 A 
ATOM     30  C   UNL     1      46.397   3.560   7.255  0.00  0.00    +0.000 A 
ATOM     31  N   UNL     1      45.860   4.533   8.020  0.00  0.00    +0.000 NA
ATOM     32  H   UNL     1      45.114   6.016   9.632  0.00  0.00    +0.000 HD
ENDBRANCH  24  25
ENDBRANCH  21  24
ENDBRANCH  17  18
ENDBRANCH   1  17
TORSDOF 6
ENDMDL
