MODEL 1
REMARK VINA RESULT:    -6.810      0.000      0.000
REMARK INTER + INTRA:          -9.578
REMARK INTER:                  -8.800
REMARK INTRA:                  -0.778
REMARK UNBOUND:                -0.778
REMARK  Name = 
REMARK  5 active torsions:
REMARK  status: ('A' for Active; 'I' for Inactive)
REMARK    1  A    between atoms: C_2  and  C_18
REMARK    2  A    between atoms: N_3  and  C_4
REMARK    3  A    between atoms: C_4  and  C_5
REMARK    4  A    between atoms: C_8  and  C_9
REMARK    5  A    between atoms: C_9  and  N_10
REMARK                            x       y       z     vdW  Elec       q    Type
REMARK                         _______ _______ _______ _____ _____    ______ ____
ROOT
ATOM      1  O   UNL     1      49.844   5.728  19.101  0.00  0.00    +0.000 OA
ATOM      2  C   UNL     1      50.647   5.408  18.228  0.00  0.00    +0.000 C 
ATOM      3  N   UNL     1      50.553   5.891  16.948  0.00  0.00    +0.000 N 
ATOM      4  H   UNL     1      51.121   5.484  16.211  0.00  0.00    +0.000 HD
ENDROOT
BRANCH   2   5
ATOM      5  C   UNL     1      51.761   4.497  18.525  0.00  0.00    +0.000 A 
ATOM      6  C   UNL     1      52.801   4.932  19.338  0.00  0.00    +0.000 A 
ATOM      7  S   UNL     1      53.987   3.743  19.634  0.00  0.00    +0.000 S 
ATOM      8  C   UNL     1      53.140   2.590  18.714  0.00  0.00    +0.000 A 
ATOM      9  N   UNL     1      53.589   1.312  18.610  0.00  0.00    +0.000 NA
ATOM     10  C   UNL     1      52.829   0.534  17.914  0.00  0.00    +0.000 A 
ATOM     11  N   UNL     1      51.672   0.925  17.291  0.00  0.00    +0.000 N 
ATOM     12  C   UNL     1      51.214   2.222  17.314  0.00  0.00    +0.000 A 
ATOM     13  O   UNL     1      50.248   2.566  16.643  0.00  0.00    +0.000 OA
ATOM     14  C   UNL     1      51.993   3.123  18.144  0.00  0.00    +0.000 A 
ATOM     15  H   UNL     1      51.145   0.275  16.727  0.00  0.00    +0.000 HD
ENDBRANCH   2   5
BRANCH   3  16
ATOM     16  C   UNL     1      49.430   6.694  16.504  0.00  0.00    +0.000 C 
BRANCH  16  17
ATOM     17  C   UNL     1      48.533   5.934  15.547  0.00  0.00    +0.000 A 
ATOM     18  C   UNL     1      48.300   6.451  14.277  0.00  0.00    +0.000 A 
ATOM     19  C   UNL     1      47.429   5.786  13.423  0.00  0.00    +0.000 A 
ATOM     20  C   UNL     1      46.782   4.620  13.841  0.00  0.00    +0.000 A 
ATOM     21  C   UNL     1      47.098   4.160  15.117  0.00  0.00    +0.000 A 
ATOM     22  N   UNL     1      47.942   4.788  15.975  0.00  0.00    +0.000 NA
BRANCH  20  23
ATOM     23  C   UNL     1      45.854   3.885  12.911  0.00  0.00    +0.000 C 
BRANCH  23  24
ATOM     24  N   UNL     1      44.418   4.167  12.951  0.00  0.00    +0.000 NA
ATOM     25  C   UNL     1      43.544   3.418  12.039  0.00  0.00    +0.000 C 
ATOM     26  C   UNL     1      43.318   4.086  10.668  0.00  0.00    +0.000 C 
ATOM     27  O   UNL     1      42.917   5.457  10.793  0.00  0.00    +0.000 OA
ATOM     28  C   UNL     1      43.855   6.202  11.581  0.00  0.00    +0.000 C 
ATOM     29  C   UNL     1      44.034   5.583  12.971  0.00  0.00    +0.000 C 
ENDBRANCH  23  24
ENDBRANCH  20  23
ENDBRANCH  16  17
ENDBRANCH   3  16
TORSDOF 5
ENDMDL
MODEL 2
REMARK VINA RESULT:    -6.723      3.222      9.645
REMARK INTER + INTRA:          -9.467
REMARK INTER:                  -8.768
REMARK INTRA:                  -0.699
REMARK UNBOUND:                -0.778
REMARK  Name = 
REMARK  5 active torsions:
REMARK  status: ('A' for Active; 'I' for Inactive)
REMARK    1  A    between atoms: C_2  and  C_18
REMARK    2  A    between atoms: N_3  and  C_4
REMARK    3  A    between atoms: C_4  and  C_5
REMARK    4  A    between atoms: C_8  and  C_9
REMARK    5  A    between atoms: C_9  and  N_10
REMARK                            x       y       z     vdW  Elec       q    Type
REMARK                         _______ _______ _______ _____ _____    ______ ____
ROOT
ATOM      1  O   UNL     1      47.222   3.254  13.857  0.00  0.00    +0.000 OA
ATOM      2  C   UNL     1      46.748   4.267  14.365  0.00  0.00    +0.000 C 
ATOM      3  N   UNL     1      46.800   4.487  15.718  0.00  0.00    +0.000 N 
ATOM      4  H   UNL     1      46.258   5.243  16.129  0.00  0.00    +0.000 HD
ENDROOT
BRANCH   2   5
ATOM      5  C   UNL     1      46.115   5.302  13.537  0.00  0.00    +0.000 A 
ATOM      6  C   UNL     1      46.816   6.466  13.243  0.00  0.00    +0.000 A 
ATOM      7  S   UNL     1      45.970   7.542  12.228  0.00  0.00    +0.000 S 
ATOM      8  C   UNL     1      44.646   6.481  12.113  0.00  0.00    +0.000 A 
ATOM      9  N   UNL     1      43.579   6.776  11.326  0.00  0.00    +0.000 NA
ATOM     10  C   UNL     1      42.664   5.865  11.302  0.00  0.00    +0.000 A 
ATOM     11  N   UNL     1      42.708   4.695  12.017  0.00  0.00    +0.000 N 
ATOM     12  C   UNL     1      43.736   4.385  12.877  0.00  0.00    +0.000 A 
ATOM     13  O   UNL     1      43.684   3.393  13.596  0.00  0.00    +0.000 OA
ATOM     14  C   UNL     1      44.826   5.342  12.886  0.00  0.00    +0.000 A 
ATOM     15  H   UNL     1      41.939   4.042  11.985  0.00  0.00    +0.000 HD
ENDBRANCH   2   5
BRANCH   3  16
ATOM     16  C   UNL     1      47.285   3.487  16.649  0.00  0.00    +0.000 C 
BRANCH  16  17
ATOM     17  C   UNL     1      48.733   3.722  17.031  0.00  0.00    +0.000 A 
ATOM     18  C   UNL     1      49.184   5.025  17.213  0.00  0.00    +0.000 A 
ATOM     19  C   UNL     1      50.526   5.244  17.503  0.00  0.00    +0.000 A 
ATOM     20  C   UNL     1      51.413   4.167  17.596  0.00  0.00    +0.000 A 
ATOM     21  C   UNL     1      50.867   2.898  17.428  0.00  0.00    +0.000 A 
ATOM     22  N   UNL     1      49.562   2.652  17.141  0.00  0.00    +0.000 NA
BRANCH  20  23
ATOM     23  C   UNL     1      52.862   4.399  17.932  0.00  0.00    +0.000 C 
BRANCH  23  24
ATOM     24  N   UNL     1      53.217   5.034  19.204  0.00  0.00    +0.000 NA
ATOM     25  C   UNL     1      54.539   5.663  19.313  0.00  0.00    +0.000 C 
ATOM     26  C   UNL     1      55.655   4.734  19.826  0.00  0.00    +0.000 C 
ATOM     27  O   UNL     1      55.281   4.054  21.032  0.00  0.00    +0.000 OA
ATOM     28  C   UNL     1      54.051   3.337  20.864  0.00  0.00    +0.000 C 
ATOM     29  C   UNL     1      52.919   4.269  20.418  0.00  0.00    +0.000 C 
ENDBRANCH  23  24
ENDBRANCH  20  23
ENDBRANCH  16  17
ENDBRANCH   3  16
TORSDOF 5
ENDMDL
MODEL 3
REMARK VINA RESULT:    -6.653      3.016      3.858
REMARK INTER + INTRA:          -9.376
REMARK INTER:                  -8.292
REMARK INTRA:                  -1.084
REMARK UNBOUND:                -0.778
REMARK  Name = 
REMARK  5 active torsions:
REMARK  status: ('A' for Active; 'I' for Inactive)
REMARK    1  A    between atoms: C_2  and  C_18
REMARK    2  A    between atoms: N_3  and  C_4
REMARK    3  A    between atoms: C_4  and  C_5
REMARK    4  A    between atoms: C_8  and  C_9
REMARK    5  A    between atoms: C_9  and  N_10
REMARK                            x       y       z     vdW  Elec       q    Type
REMARK                         _______ _______ _______ _____ _____    ______ ____
ROOT
ATOM      1  O   UNL     1      48.655   8.595  16.130  0.00  0.00    +0.000 OA
ATOM      2  C   UNL     1      49.008   7.466  15.800  0.00  0.00    +0.000 C 
ATOM      3  N   UNL     1      49.231   7.134  14.488  0.00  0.00    +0.000 N 
ATOM      4  H   UNL     1      49.356   6.160  14.226  0.00  0.00    +0.000 HD
ENDROOT
BRANCH   2   5
ATOM      5  C   UNL     1      49.223   6.417  16.806  0.00  0.00    +0.000 A 
ATOM      6  C   UNL     1      50.134   6.632  17.833  0.00  0.00    +0.000 A 
ATOM      7  S   UNL     1      50.229   5.348  18.951  0.00  0.00    +0.000 S 
ATOM      8  C   UNL     1      49.031   4.468  18.124  0.00  0.00    +0.000 A 
ATOM      9  N   UNL     1      48.585   3.276  18.600  0.00  0.00    +0.000 NA
ATOM     10  C   UNL     1      47.648   2.736  17.896  0.00  0.00    +0.000 A 
ATOM     11  N   UNL     1      47.133   3.268  16.742  0.00  0.00    +0.000 N 
ATOM     12  C   UNL     1      47.599   4.438  16.187  0.00  0.00    +0.000 A 
ATOM     13  O   UNL     1      47.207   4.821  15.090  0.00  0.00    +0.000 OA
ATOM     14  C   UNL     1      48.603   5.123  16.978  0.00  0.00    +0.000 A 
ATOM     15  H   UNL     1      46.427   2.774  16.215  0.00  0.00    +0.000 HD
ENDBRANCH   2   5
BRANCH   3  16
ATOM     16  C   UNL     1      48.934   8.042  13.397  0.00  0.00    +0.000 C 
BRANCH  16  17
ATOM     17  C   UNL     1      47.599   7.732  12.749  0.00  0.00    +0.000 A 
ATOM     18  C   UNL     1      46.470   8.442  13.143  0.00  0.00    +0.000 A 
ATOM     19  C   UNL     1      45.236   8.116  12.593  0.00  0.00    +0.000 A 
ATOM     20  C   UNL     1      45.130   7.076  11.665  0.00  0.00    +0.000 A 
ATOM     21  C   UNL     1      46.316   6.440  11.308  0.00  0.00    +0.000 A 
ATOM     22  N   UNL     1      47.535   6.734  11.829  0.00  0.00    +0.000 NA
BRANCH  20  23
ATOM     23  C   UNL     1      43.799   6.734  11.050  0.00  0.00    +0.000 C 
BRANCH  23  24
ATOM     24  N   UNL     1      43.109   5.507  11.457  0.00  0.00    +0.000 NA
ATOM     25  C   UNL     1      43.084   5.175  12.887  0.00  0.00    +0.000 C 
ATOM     26  C   UNL     1      44.258   4.301  13.368  0.00  0.00    +0.000 C 
ATOM     27  O   UNL     1      44.439   3.138  12.548  0.00  0.00    +0.000 OA
ATOM     28  C   UNL     1      44.593   3.495  11.169  0.00  0.00    +0.000 C 
ATOM     29  C   UNL     1      43.395   4.307  10.664  0.00  0.00    +0.000 C 
ENDBRANCH  23  24
ENDBRANCH  20  23
ENDBRANCH  16  17
ENDBRANCH   3  16
TORSDOF 5
ENDMDL
MODEL 4
REMARK VINA RESULT:    -6.637      1.751      2.984
REMARK INTER + INTRA:          -9.356
REMARK INTER:                  -8.849
REMARK INTRA:                  -0.507
REMARK UNBOUND:                -0.778
REMARK  Name = 
REMARK  5 active torsions:
REMARK  status: ('A' for Active; 'I' for Inactive)
REMARK    1  A    between atoms: C_2  and  C_18
REMARK    2  A    between atoms: N_3  and  C_4
REMARK    3  A    between atoms: C_4  and  C_5
REMARK    4  A    between atoms: C_8  and  C_9
REMARK    5  A    between atoms: C_9  and  N_10
REMARK                            x       y       z     vdW  Elec       q    Type
REMARK                         _______ _______ _______ _____ _____    ______ ____
ROOT
ATOM      1  O   UNL     1      49.585   1.647  15.887  0.00  0.00    +0.000 OA
ATOM      2  C   UNL     1      49.890   2.241  16.918  0.00  0.00    +0.000 C 
ATOM      3  N   UNL     1      48.965   2.943  17.649  0.00  0.00    +0.000 N 
ATOM      4  H   UNL     1      49.272   3.559  18.396  0.00  0.00    +0.000 HD
ENDROOT
BRANCH   2   5
ATOM      5  C   UNL     1      51.268   2.212  17.426  0.00  0.00    +0.000 A 
ATOM      6  C   UNL     1      51.909   0.990  17.593  0.00  0.00    +0.000 A 
ATOM      7  S   UNL     1      53.520   1.125  18.135  0.00  0.00    +0.000 S 
ATOM      8  C   UNL     1      53.435   2.824  18.136  0.00  0.00    +0.000 A 
ATOM      9  N   UNL     1      54.521   3.578  18.448  0.00  0.00    +0.000 NA
ATOM     10  C   UNL     1      54.327   4.853  18.371  0.00  0.00    +0.000 A 
ATOM     11  N   UNL     1      53.135   5.441  18.036  0.00  0.00    +0.000 N 
ATOM     12  C   UNL     1      51.992   4.720  17.778  0.00  0.00    +0.000 A 
ATOM     13  O   UNL     1      50.914   5.277  17.607  0.00  0.00    +0.000 OA
ATOM     14  C   UNL     1      52.174   3.281  17.779  0.00  0.00    +0.000 A 
ATOM     15  H   UNL     1      53.039   6.447  18.034  0.00  0.00    +0.000 HD
ENDBRANCH   2   5
BRANCH   3  16
ATOM     16  C   UNL     1      47.606   3.148  17.185  0.00  0.00    +0.000 C 
BRANCH  16  17
ATOM     17  C   UNL     1      47.560   3.954  15.902  0.00  0.00    +0.000 A 
ATOM     18  C   UNL     1      47.921   5.296  15.929  0.00  0.00    +0.000 A 
ATOM     19  C   UNL     1      47.819   6.050  14.765  0.00  0.00    +0.000 A 
ATOM     20  C   UNL     1      47.347   5.467  13.586  0.00  0.00    +0.000 A 
ATOM     21  C   UNL     1      47.037   4.111  13.645  0.00  0.00    +0.000 A 
ATOM     22  N   UNL     1      47.123   3.350  14.766  0.00  0.00    +0.000 NA
BRANCH  20  23
ATOM     23  C   UNL     1      47.256   6.274  12.317  0.00  0.00    +0.000 C 
BRANCH  23  24
ATOM     24  N   UNL     1      45.941   6.636  11.784  0.00  0.00    +0.000 NA
ATOM     25  C   UNL     1      44.825   6.758  12.730  0.00  0.00    +0.000 C 
ATOM     26  C   UNL     1      44.028   5.460  12.959  0.00  0.00    +0.000 C 
ATOM     27  O   UNL     1      43.623   4.849  11.726  0.00  0.00    +0.000 OA
ATOM     28  C   UNL     1      44.748   4.618  10.868  0.00  0.00    +0.000 C 
ATOM     29  C   UNL     1      45.508   5.918  10.581  0.00  0.00    +0.000 C 
ENDBRANCH  23  24
ENDBRANCH  20  23
ENDBRANCH  16  17
ENDBRANCH   3  16
TORSDOF 5
ENDMDL
MODEL 5
REMARK VINA RESULT:    -6.419      4.434      8.794
REMARK INTER + INTRA:          -9.074
REMARK INTER:                  -8.327
REMARK INTRA:                  -0.747
REMARK UNBOUND:                -0.778
REMARK  Name = 
REMARK  5 active torsions:
REMARK  status: ('A' for Active; 'I' for Inactive)
REMARK    1  A    between atoms: C_2  and  C_18
REMARK    2  A    between atoms: N_3  and  C_4
REMARK    3  A    between atoms: C_4  and  C_5
REMARK    4  A    between atoms: C_8  and  C_9
REMARK    5  A    between atoms: C_9  and  N_10
REMARK                            x       y       z     vdW  Elec       q    Type
REMARK                         _______ _______ _______ _____ _____    ______ ____
ROOT
ATOM      1  O   UNL     1      45.470   7.810  11.947  0.00  0.00    +0.000 OA
ATOM      2  C   UNL     1      46.165   6.871  11.567  0.00  0.00    +0.000 C 
ATOM      3  N   UNL     1      47.520   6.843  11.781  0.00  0.00    +0.000 N 
ATOM      4  H   UNL     1      48.092   6.145  11.313  0.00  0.00    +0.000 HD
ENDROOT
BRANCH   2   5
ATOM      5  C   UNL     1      45.568   5.722  10.873  0.00  0.00    +0.000 A 
ATOM      6  C   UNL     1      45.832   5.527   9.522  0.00  0.00    +0.000 A 
ATOM      7  S   UNL     1      45.114   4.122   8.876  0.00  0.00    +0.000 S 
ATOM      8  C   UNL     1      44.450   3.701  10.384  0.00  0.00    +0.000 A 
ATOM      9  N   UNL     1      43.753   2.545  10.543  0.00  0.00    +0.000 NA
ATOM     10  C   UNL     1      43.340   2.333  11.748  0.00  0.00    +0.000 A 
ATOM     11  N   UNL     1      43.539   3.185  12.804  0.00  0.00    +0.000 N 
ATOM     12  C   UNL     1      44.179   4.395  12.675  0.00  0.00    +0.000 A 
ATOM     13  O   UNL     1      44.228   5.190  13.607  0.00  0.00    +0.000 OA
ATOM     14  C   UNL     1      44.728   4.651  11.357  0.00  0.00    +0.000 A 
ATOM     15  H   UNL     1      43.153   2.977  13.713  0.00  0.00    +0.000 HD
ENDBRANCH   2   5
BRANCH   3  16
ATOM     16  C   UNL     1      48.240   7.970  12.341  0.00  0.00    +0.000 C 
BRANCH  16  17
ATOM     17  C   UNL     1      48.453   7.822  13.835  0.00  0.00    +0.000 A 
ATOM     18  C   UNL     1      48.020   8.831  14.687  0.00  0.00    +0.000 A 
ATOM     19  C   UNL     1      48.271   8.723  16.050  0.00  0.00    +0.000 A 
ATOM     20  C   UNL     1      48.964   7.620  16.555  0.00  0.00    +0.000 A 
ATOM     21  C   UNL     1      49.334   6.645  15.633  0.00  0.00    +0.000 A 
ATOM     22  N   UNL     1      49.105   6.723  14.296  0.00  0.00    +0.000 NA
BRANCH  20  23
ATOM     23  C   UNL     1      49.219   7.488  18.033  0.00  0.00    +0.000 C 
BRANCH  23  24
ATOM     24  N   UNL     1      48.175   6.936  18.899  0.00  0.00    +0.000 NA
ATOM     25  C   UNL     1      48.313   7.126  20.349  0.00  0.00    +0.000 C 
ATOM     26  C   UNL     1      49.074   6.002  21.078  0.00  0.00    +0.000 C 
ATOM     27  O   UNL     1      48.563   4.702  20.751  0.00  0.00    +0.000 OA
ATOM     28  C   UNL     1      48.559   4.487  19.334  0.00  0.00    +0.000 C 
ATOM     29  C   UNL     1      47.746   5.564  18.608  0.00  0.00    +0.000 C 
ENDBRANCH  23  24
ENDBRANCH  20  23
ENDBRANCH  16  17
ENDBRANCH   3  16
TORSDOF 5
ENDMDL
MODEL 6
REMARK VINA RESULT:    -6.403      3.891      8.679
REMARK INTER + INTRA:          -9.052
REMARK INTER:                  -8.285
REMARK INTRA:                  -0.767
REMARK UNBOUND:                -0.778
REMARK  Name = 
REMARK  5 active torsions:
REMARK  status: ('A' for Active; 'I' for Inactive)
REMARK    1  A    between atoms: C_2  and  C_18
REMARK    2  A    between atoms: N_3  and  C_4
REMARK    3  A    between atoms: C_4  and  C_5
REMARK    4  A    between atoms: C_8  and  C_9
REMARK    5  A    between atoms: C_9  and  N_10
REMARK                            x       y       z     vdW  Elec       q    Type
REMARK                         _______ _______ _______ _____ _____    ______ ____
ROOT
ATOM      1  O   UNL     1      47.638   7.164  11.538  0.00  0.00    +0.000 OA
ATOM      2  C   UNL     1      46.891   6.723  12.408  0.00  0.00    +0.000 C 
ATOM      3  N   UNL     1      47.256   6.701  13.730  0.00  0.00    +0.000 N 
ATOM      4  H   UNL     1      46.696   6.181  14.401  0.00  0.00    +0.000 HD
ENDROOT
BRANCH   2   5
ATOM      5  C   UNL     1      45.557   6.209  12.068  0.00  0.00    +0.000 A 
ATOM      6  C   UNL     1      44.622   7.063  11.495  0.00  0.00    +0.000 A 
ATOM      7  S   UNL     1      43.144   6.305  11.107  0.00  0.00    +0.000 S 
ATOM      8  C   UNL     1      43.708   4.799  11.660  0.00  0.00    +0.000 A 
ATOM      9  N   UNL     1      42.940   3.683  11.553  0.00  0.00    +0.000 NA
ATOM     10  C   UNL     1      43.507   2.602  11.976  0.00  0.00    +0.000 A 
ATOM     11  N   UNL     1      44.764   2.541  12.521  0.00  0.00    +0.000 N 
ATOM     12  C   UNL     1      45.550   3.654  12.709  0.00  0.00    +0.000 A 
ATOM     13  O   UNL     1      46.614   3.585  13.314  0.00  0.00    +0.000 OA
ATOM     14  C   UNL     1      44.990   4.885  12.184  0.00  0.00    +0.000 A 
ATOM     15  H   UNL     1      45.133   1.669  12.870  0.00  0.00    +0.000 HD
ENDBRANCH   2   5
BRANCH   3  16
ATOM     16  C   UNL     1      48.588   7.063  14.172  0.00  0.00    +0.000 C 
BRANCH  16  17
ATOM     17  C   UNL     1      48.952   6.395  15.484  0.00  0.00    +0.000 A 
ATOM     18  C   UNL     1      50.051   6.856  16.200  0.00  0.00    +0.000 A 
ATOM     19  C   UNL     1      50.421   6.204  17.370  0.00  0.00    +0.000 A 
ATOM     20  C   UNL     1      49.704   5.089  17.814  0.00  0.00    +0.000 A 
ATOM     21  C   UNL     1      48.602   4.716  17.050  0.00  0.00    +0.000 A 
ATOM     22  N   UNL     1      48.218   5.331  15.901  0.00  0.00    +0.000 NA
BRANCH  20  23
ATOM     23  C   UNL     1      50.088   4.393  19.093  0.00  0.00    +0.000 C 
BRANCH  23  24
ATOM     24  N   UNL     1      49.571   4.892  20.370  0.00  0.00    +0.000 NA
ATOM     25  C   UNL     1      48.203   5.425  20.396  0.00  0.00    +0.000 C 
ATOM     26  C   UNL     1      48.094   6.937  20.119  0.00  0.00    +0.000 C 
ATOM     27  O   UNL     1      48.987   7.703  20.940  0.00  0.00    +0.000 OA
ATOM     28  C   UNL     1      50.339   7.250  20.799  0.00  0.00    +0.000 C 
ATOM     29  C   UNL     1      50.468   5.761  21.139  0.00  0.00    +0.000 C 
ENDBRANCH  23  24
ENDBRANCH  20  23
ENDBRANCH  16  17
ENDBRANCH   3  16
TORSDOF 5
ENDMDL
MODEL 7
REMARK VINA RESULT:    -6.223      6.647      9.535
REMARK INTER + INTRA:          -8.820
REMARK INTER:                  -8.096
REMARK INTRA:                  -0.724
REMARK UNBOUND:                -0.778
REMARK  Name = 
REMARK  5 active torsions:
REMARK  status: ('A' for Active; 'I' for Inactive)
REMARK    1  A    between atoms: C_2  and  C_18
REMARK    2  A    between atoms: N_3  and  C_4
REMARK    3  A    between atoms: C_4  and  C_5
REMARK    4  A    between atoms: C_8  and  C_9
REMARK    5  A    between atoms: C_9  and  N_10
REMARK                            x       y       z     vdW  Elec       q    Type
REMARK                         _______ _______ _______ _____ _____    ______ ____
ROOT
ATOM      1  O   UNL     1      44.208   7.554  11.373  0.00  0.00    +0.000 OA
ATOM      2  C   UNL     1      44.785   6.646  11.967  0.00  0.00    +0.000 C 
ATOM      3  N   UNL     1      45.742   6.898  12.917  0.00  0.00    +0.000 N 
ATOM      4  H   UNL     1      46.318   6.138  13.268  0.00  0.00    +0.000 HD
ENDROOT
BRANCH   2   5
ATOM      5  C   UNL     1      44.459   5.240  11.694  0.00  0.00    +0.000 A 
ATOM      6  C   UNL     1      43.759   4.504  12.643  0.00  0.00    +0.000 A 
ATOM      7  S   UNL     1      43.409   2.908  12.156  0.00  0.00    +0.000 S 
ATOM      8  C   UNL     1      44.151   3.147  10.644  0.00  0.00    +0.000 A 
ATOM      9  N   UNL     1      44.146   2.170   9.701  0.00  0.00    +0.000 NA
ATOM     10  C   UNL     1      44.710   2.501   8.587  0.00  0.00    +0.000 A 
ATOM     11  N   UNL     1      45.302   3.713   8.341  0.00  0.00    +0.000 N 
ATOM     12  C   UNL     1      45.389   4.706   9.288  0.00  0.00    +0.000 A 
ATOM     13  O   UNL     1      46.035   5.727   9.080  0.00  0.00    +0.000 OA
ATOM     14  C   UNL     1      44.707   4.414  10.534  0.00  0.00    +0.000 A 
ATOM     15  H   UNL     1      45.763   3.893   7.461  0.00  0.00    +0.000 HD
ENDBRANCH   2   5
BRANCH   3  16
ATOM     16  C   UNL     1      46.236   8.235  13.183  0.00  0.00    +0.000 C 
BRANCH  16  17
ATOM     17  C   UNL     1      47.596   8.472  12.556  0.00  0.00    +0.000 A 
ATOM     18  C   UNL     1      48.391   7.381  12.224  0.00  0.00    +0.000 A 
ATOM     19  C   UNL     1      49.663   7.600  11.706  0.00  0.00    +0.000 A 
ATOM     20  C   UNL     1      50.141   8.902  11.536  0.00  0.00    +0.000 A 
ATOM     21  C   UNL     1      49.265   9.932  11.867  0.00  0.00    +0.000 A 
ATOM     22  N   UNL     1      48.020   9.750  12.377  0.00  0.00    +0.000 NA
BRANCH  20  23
ATOM     23  C   UNL     1      51.509   9.144  10.955  0.00  0.00    +0.000 C 
BRANCH  23  24
ATOM     24  N   UNL     1      52.428   8.017  10.780  0.00  0.00    +0.000 NA
ATOM     25  C   UNL     1      53.807   8.175  11.259  0.00  0.00    +0.000 C 
ATOM     26  C   UNL     1      54.793   8.735  10.217  0.00  0.00    +0.000 C 
ATOM     27  O   UNL     1      54.734   8.019   8.975  0.00  0.00    +0.000 OA
ATOM     28  C   UNL     1      53.397   7.990   8.457  0.00  0.00    +0.000 C 
ATOM     29  C   UNL     1      52.422   7.371   9.463  0.00  0.00    +0.000 C 
ENDBRANCH  23  24
ENDBRANCH  20  23
ENDBRANCH  16  17
ENDBRANCH   3  16
TORSDOF 5
ENDMDL
MODEL 8
REMARK VINA RESULT:    -6.126      1.811      2.541
REMARK INTER + INTRA:          -8.695
REMARK INTER:                  -8.501
REMARK INTRA:                  -0.194
REMARK UNBOUND:                -0.778
REMARK  Name = 
REMARK  5 active torsions:
REMARK  status: ('A' for Active; 'I' for Inactive)
REMARK    1  A    between atoms: C_2  and  C_18
REMARK    2  A    between atoms: N_3  and  C_4
REMARK    3  A    between atoms: C_4  and  C_5
REMARK    4  A    between atoms: C_8  and  C_9
REMARK    5  A    between atoms: C_9  and  N_10
REMARK                            x       y       z     vdW  Elec       q    Type
REMARK                         _______ _______ _______ _____ _____    ______ ____
ROOT
ATOM      1  O   UNL     1      50.447   1.740  16.612  0.00  0.00    +0.000 OA
ATOM      2  C   UNL     1      50.432   2.813  17.210  0.00  0.00    +0.000 C 
ATOM      3  N   UNL     1      49.263   3.486  17.458  0.00  0.00    +0.000 N 
ATOM      4  H   UNL     1      49.293   4.443  17.801  0.00  0.00    +0.000 HD
ENDROOT
BRANCH   2   5
ATOM      5  C   UNL     1      51.676   3.419  17.704  0.00  0.00    +0.000 A 
ATOM      6  C   UNL     1      51.820   4.801  17.680  0.00  0.00    +0.000 A 
ATOM      7  S   UNL     1      53.293   5.353  18.337  0.00  0.00    +0.000 S 
ATOM      8  C   UNL     1      53.784   3.767  18.710  0.00  0.00    +0.000 A 
ATOM      9  N   UNL     1      54.954   3.531  19.359  0.00  0.00    +0.000 NA
ATOM     10  C   UNL     1      55.183   2.286  19.612  0.00  0.00    +0.000 A 
ATOM     11  N   UNL     1      54.359   1.252  19.250  0.00  0.00    +0.000 N 
ATOM     12  C   UNL     1      53.199   1.437  18.535  0.00  0.00    +0.000 A 
ATOM     13  O   UNL     1      52.551   0.483  18.117  0.00  0.00    +0.000 OA
ATOM     14  C   UNL     1      52.857   2.824  18.288  0.00  0.00    +0.000 A 
ATOM     15  H   UNL     1      54.618   0.295  19.444  0.00  0.00    +0.000 HD
ENDBRANCH   2   5
BRANCH   3  16
ATOM     16  C   UNL     1      47.990   3.054  16.915  0.00  0.00    +0.000 C 
BRANCH  16  17
ATOM     17  C   UNL     1      47.641   3.788  15.635  0.00  0.00    +0.000 A 
ATOM     18  C   UNL     1      47.641   5.179  15.627  0.00  0.00    +0.000 A 
ATOM     19  C   UNL     1      47.261   5.851  14.471  0.00  0.00    +0.000 A 
ATOM     20  C   UNL     1      46.870   5.136  13.335  0.00  0.00    +0.000 A 
ATOM     21  C   UNL     1      46.929   3.749  13.425  0.00  0.00    +0.000 A 
ATOM     22  N   UNL     1      47.293   3.063  14.540  0.00  0.00    +0.000 NA
BRANCH  20  23
ATOM     23  C   UNL     1      46.479   5.861  12.074  0.00  0.00    +0.000 C 
BRANCH  23  24
ATOM     24  N   UNL     1      45.071   5.903  11.672  0.00  0.00    +0.000 NA
ATOM     25  C   UNL     1      44.053   5.783  12.723  0.00  0.00    +0.000 C 
ATOM     26  C   UNL     1      43.600   4.340  13.021  0.00  0.00    +0.000 C 
ATOM     27  O   UNL     1      43.230   3.632  11.829  0.00  0.00    +0.000 OA
ATOM     28  C   UNL     1      44.291   3.650  10.865  0.00  0.00    +0.000 C 
ATOM     29  C   UNL     1      44.701   5.084  10.513  0.00  0.00    +0.000 C 
ENDBRANCH  23  24
ENDBRANCH  20  23
ENDBRANCH  16  17
ENDBRANCH   3  16
TORSDOF 5
ENDMDL
MODEL 9
REMARK VINA RESULT:    -6.121      3.876      8.066
REMARK INTER + INTRA:          -8.689
REMARK INTER:                  -7.897
REMARK INTRA:                  -0.792
REMARK UNBOUND:                -0.778
REMARK  Name = 
REMARK  5 active torsions:
REMARK  status: ('A' for Active; 'I' for Inactive)
REMARK    1  A    between atoms: C_2  and  C_18
REMARK    2  A    between atoms: N_3  and  C_4
REMARK    3  A    between atoms: C_4  and  C_5
REMARK    4  A    between atoms: C_8  and  C_9
REMARK    5  A    between atoms: C_9  and  N_10
REMARK                            x       y       z     vdW  Elec       q    Type
REMARK                         _______ _______ _______ _____ _____    ______ ____
ROOT
ATOM      1  O   UNL     1      47.735   7.001  11.809  0.00  0.00    +0.000 OA
ATOM      2  C   UNL     1      46.702   7.281  12.411  0.00  0.00    +0.000 C 
ATOM      3  N   UNL     1      46.666   8.271  13.361  0.00  0.00    +0.000 N 
ATOM      4  H   UNL     1      45.850   8.368  13.959  0.00  0.00    +0.000 HD
ENDROOT
BRANCH   2   5
ATOM      5  C   UNL     1      45.447   6.573  12.127  0.00  0.00    +0.000 A 
ATOM      6  C   UNL     1      44.389   7.264  11.549  0.00  0.00    +0.000 A 
ATOM      7  S   UNL     1      43.024   6.293  11.230  0.00  0.00    +0.000 S 
ATOM      8  C   UNL     1      43.806   4.903  11.821  0.00  0.00    +0.000 A 
ATOM      9  N   UNL     1      43.201   3.688  11.777  0.00  0.00    +0.000 NA
ATOM     10  C   UNL     1      43.923   2.715  12.223  0.00  0.00    +0.000 A 
ATOM     11  N   UNL     1      45.188   2.852  12.735  0.00  0.00    +0.000 N 
ATOM     12  C   UNL     1      45.813   4.070  12.861  0.00  0.00    +0.000 A 
ATOM     13  O   UNL     1      46.890   4.174  13.439  0.00  0.00    +0.000 OA
ATOM     14  C   UNL     1      45.075   5.189  12.307  0.00  0.00    +0.000 A 
ATOM     15  H   UNL     1      45.683   2.054  13.106  0.00  0.00    +0.000 HD
ENDBRANCH   2   5
BRANCH   3  16
ATOM     16  C   UNL     1      47.862   8.952  13.816  0.00  0.00    +0.000 C 
BRANCH  16  17
ATOM     17  C   UNL     1      48.469   8.281  15.033  0.00  0.00    +0.000 A 
ATOM     18  C   UNL     1      49.316   7.192  14.856  0.00  0.00    +0.000 A 
ATOM     19  C   UNL     1      49.823   6.539  15.974  0.00  0.00    +0.000 A 
ATOM     20  C   UNL     1      49.473   6.963  17.259  0.00  0.00    +0.000 A 
ATOM     21  C   UNL     1      48.645   8.078  17.339  0.00  0.00    +0.000 A 
ATOM     22  N   UNL     1      48.131   8.736  16.267  0.00  0.00    +0.000 NA
BRANCH  20  23
ATOM     23  C   UNL     1      50.038   6.272  18.472  0.00  0.00    +0.000 C 
BRANCH  23  24
ATOM     24  N   UNL     1      49.367   5.084  19.004  0.00  0.00    +0.000 NA
ATOM     25  C   UNL     1      49.751   3.775  18.459  0.00  0.00    +0.000 C 
ATOM     26  C   UNL     1      48.923   3.314  17.245  0.00  0.00    +0.000 C 
ATOM     27  O   UNL     1      47.512   3.404  17.486  0.00  0.00    +0.000 OA
ATOM     28  C   UNL     1      47.138   4.727  17.891  0.00  0.00    +0.000 C 
ATOM     29  C   UNL     1      47.909   5.167  19.140  0.00  0.00    +0.000 C 
ENDBRANCH  23  24
ENDBRANCH  20  23
ENDBRANCH  16  17
ENDBRANCH   3  16
TORSDOF 5
ENDMDL
