MODEL 1
REMARK VINA RESULT:    -8.376      0.000      0.000
REMARK INTER + INTRA:         -12.843
REMARK INTER:                 -11.804
REMARK INTRA:                  -1.039
REMARK UNBOUND:                -1.039
REMARK  Name = 
REMARK  9 active torsions:
REMARK  status: ('A' for Active; 'I' for Inactive)
REMARK    1  A    between atoms: C_1  and  C_2
REMARK    2  A    between atoms: C_2  and  C_3
REMARK    3  A    between atoms: C_2  and  C_11
REMARK    4  A    between atoms: C_3  and  N_4
REMARK    5  A    between atoms: C_14  and  C_15
REMARK    6  A    between atoms: C_15  and  N_16
REMARK    7  A    between atoms: N_16  and  C_17
REMARK    8  A    between atoms: C_17  and  C_18
REMARK    9  A    between atoms: C_17  and  C_19
REMARK                            x       y       z     vdW  Elec       q    Type
REMARK                         _______ _______ _______ _____ _____    ______ ____
ROOT
ATOM      1  C   UNL     1      44.679   6.254  11.403  0.00  0.00    +0.000 A 
ATOM      2  C   UNL     1      45.868   5.572  11.669  0.00  0.00    +0.000 A 
ATOM      3  N   UNL     1      46.946   6.149  12.257  0.00  0.00    +0.000 NA
ATOM      4  C   UNL     1      46.809   7.464  12.591  0.00  0.00    +0.000 A 
ATOM      5  C   UNL     1      45.624   8.141  12.342  0.00  0.00    +0.000 A 
ATOM      6  N   UNL     1      44.560   7.568  11.738  0.00  0.00    +0.000 NA
ENDROOT
BRANCH   1   8
ATOM      7  C   UNL     1      42.376   5.335  11.833  0.00  0.00    +0.000 C 
ATOM      8  C   UNL     1      43.479   5.561  10.792  0.00  0.00    +0.000 C 
BRANCH   8   9
ATOM      9  C   UNL     1      43.831   4.201  10.136  0.00  0.00    +0.000 C 
BRANCH   9  10
ATOM     10  N   UNL     1      44.169   4.376   8.726  0.00  0.00    +0.000 N 
ATOM     11  C   UNL     1      45.149   3.500   8.273  0.00  0.00    +0.000 A 
ATOM     12  N   UNL     1      45.196   2.241   8.733  0.00  0.00    +0.000 NA
ATOM     13  C   UNL     1      46.163   1.447   8.241  0.00  0.00    +0.000 A 
ATOM     14  C   UNL     1      47.083   1.858   7.310  0.00  0.00    +0.000 A 
ATOM     15  C   UNL     1      46.957   3.162   6.906  0.00  0.00    +0.000 A 
ATOM     16  N   UNL     1      46.007   3.993   7.369  0.00  0.00    +0.000 NA
ATOM     17  H   UNL     1      44.553   5.305   8.541  0.00  0.00    +0.000 HD
ENDBRANCH   9  10
ENDBRANCH   8   9
ENDBRANCH   1   8
BRANCH   4  18
ATOM     18  C   UNL     1      47.932   8.175  13.309  0.00  0.00    +0.000 C 
BRANCH  18  19
ATOM     19  N   UNL     1      48.097   7.824  14.723  0.00  0.00    +0.000 NA
ATOM     20  H   UNL     1      47.287   7.248  14.971  0.00  0.00    +0.000 HD
BRANCH  19  21
ATOM     21  C   UNL     1      49.305   7.038  15.038  0.00  0.00    +0.000 C 
ATOM     22  C   UNL     1      50.627   7.767  14.839  0.00  0.00    +0.000 C 
BRANCH  21  23
ATOM     23  C   UNL     1      49.062   6.505  16.433  0.00  0.00    +0.000 A 
ATOM     24  C   UNL     1      49.603   7.100  17.564  0.00  0.00    +0.000 A 
ATOM     25  S   UNL     1      49.629   6.048  18.910  0.00  0.00    +0.000 S 
ATOM     26  C   UNL     1      48.797   4.838  18.050  0.00  0.00    +0.000 A 
ATOM     27  N   UNL     1      48.577   3.607  18.587  0.00  0.00    +0.000 NA
ATOM     28  C   UNL     1      47.854   2.831  17.850  0.00  0.00    +0.000 A 
ATOM     29  N   UNL     1      47.300   3.185  16.647  0.00  0.00    +0.000 N 
ATOM     30  C   UNL     1      47.477   4.425  16.072  0.00  0.00    +0.000 A 
ATOM     31  O   UNL     1      46.823   4.756  15.090  0.00  0.00    +0.000 OA
ATOM     32  C   UNL     1      48.385   5.287  16.807  0.00  0.00    +0.000 A 
ATOM     33  H   UNL     1      46.640   2.579  16.182  0.00  0.00    +0.000 HD
ENDBRANCH  21  23
ENDBRANCH  19  21
ENDBRANCH  18  19
ENDBRANCH   4  18
TORSDOF 7
ENDMDL
MODEL 2
REMARK VINA RESULT:    -8.263      1.972      2.976
REMARK INTER + INTRA:         -12.684
REMARK INTER:                 -11.873
REMARK INTRA:                  -0.811
REMARK UNBOUND:                -1.039
REMARK  Name = 
REMARK  9 active torsions:
REMARK  status: ('A' for Active; 'I' for Inactive)
REMARK    1  A    between atoms: C_1  and  C_2
REMARK    2  A    between atoms: C_2  and  C_3
REMARK    3  A    between atoms: C_2  and  C_11
REMARK    4  A    between atoms: C_3  and  N_4
REMARK    5  A    between atoms: C_14  and  C_15
REMARK    6  A    between atoms: C_15  and  N_16
REMARK    7  A    between atoms: N_16  and  C_17
REMARK    8  A    between atoms: C_17  and  C_18
REMARK    9  A    between atoms: C_17  and  C_19
REMARK                            x       y       z     vdW  Elec       q    Type
REMARK                         _______ _______ _______ _____ _____    ______ ____
ROOT
ATOM      1  C   UNL     1      45.058   4.903  11.926  0.00  0.00    +0.000 A 
ATOM      2  C   UNL     1      45.277   3.601  12.380  0.00  0.00    +0.000 A 
ATOM      3  N   UNL     1      46.123   3.294  13.394  0.00  0.00    +0.000 NA
ATOM      4  C   UNL     1      46.766   4.349  13.972  0.00  0.00    +0.000 A 
ATOM      5  C   UNL     1      46.540   5.646  13.534  0.00  0.00    +0.000 A 
ATOM      6  N   UNL     1      45.711   5.944  12.510  0.00  0.00    +0.000 NA
ENDROOT
BRANCH   1   8
ATOM      7  C   UNL     1      42.733   5.708  11.398  0.00  0.00    +0.000 C 
ATOM      8  C   UNL     1      44.065   5.209  10.824  0.00  0.00    +0.000 C 
BRANCH   8   9
ATOM      9  C   UNL     1      43.787   3.995   9.901  0.00  0.00    +0.000 C 
BRANCH   9  10
ATOM     10  N   UNL     1      44.242   4.264   8.539  0.00  0.00    +0.000 N 
ATOM     11  C   UNL     1      45.274   3.433   8.121  0.00  0.00    +0.000 A 
ATOM     12  N   UNL     1      45.309   2.149   8.506  0.00  0.00    +0.000 NA
ATOM     13  C   UNL     1      46.331   1.402   8.053  0.00  0.00    +0.000 A 
ATOM     14  C   UNL     1      47.319   1.886   7.232  0.00  0.00    +0.000 A 
ATOM     15  C   UNL     1      47.200   3.209   6.898  0.00  0.00    +0.000 A 
ATOM     16  N   UNL     1      46.196   3.995   7.327  0.00  0.00    +0.000 NA
ATOM     17  H   UNL     1      44.620   5.208   8.445  0.00  0.00    +0.000 HD
ENDBRANCH   9  10
ENDBRANCH   8   9
ENDBRANCH   1   8
BRANCH   4  18
ATOM     18  C   UNL     1      47.680   4.114  15.153  0.00  0.00    +0.000 C 
BRANCH  18  19
ATOM     19  N   UNL     1      47.514   5.046  16.273  0.00  0.00    +0.000 NA
ATOM     20  H   UNL     1      46.710   5.637  16.036  0.00  0.00    +0.000 HD
BRANCH  19  21
ATOM     21  C   UNL     1      47.225   4.416  17.575  0.00  0.00    +0.000 C 
ATOM     22  C   UNL     1      47.226   2.893  17.577  0.00  0.00    +0.000 C 
BRANCH  21  23
ATOM     23  C   UNL     1      48.195   5.067  18.538  0.00  0.00    +0.000 A 
ATOM     24  C   UNL     1      47.777   5.762  19.663  0.00  0.00    +0.000 A 
ATOM     25  S   UNL     1      48.978   6.816  20.267  0.00  0.00    +0.000 S 
ATOM     26  C   UNL     1      50.115   6.262  19.128  0.00  0.00    +0.000 A 
ATOM     27  N   UNL     1      51.346   6.831  19.018  0.00  0.00    +0.000 NA
ATOM     28  C   UNL     1      52.126   6.242  18.173  0.00  0.00    +0.000 A 
ATOM     29  N   UNL     1      51.802   5.117  17.460  0.00  0.00    +0.000 N 
ATOM     30  C   UNL     1      50.576   4.494  17.552  0.00  0.00    +0.000 A 
ATOM     31  O   UNL     1      50.393   3.398  17.034  0.00  0.00    +0.000 OA
ATOM     32  C   UNL     1      49.625   5.194  18.396  0.00  0.00    +0.000 A 
ATOM     33  H   UNL     1      52.498   4.632  16.914  0.00  0.00    +0.000 HD
ENDBRANCH  21  23
ENDBRANCH  19  21
ENDBRANCH  18  19
ENDBRANCH   4  18
TORSDOF 7
ENDMDL
MODEL 3
REMARK VINA RESULT:    -8.195      1.705      3.165
REMARK INTER + INTRA:         -12.588
REMARK INTER:                 -11.504
REMARK INTRA:                  -1.084
REMARK UNBOUND:                -1.039
REMARK  Name = 
REMARK  9 active torsions:
REMARK  status: ('A' for Active; 'I' for Inactive)
REMARK    1  A    between atoms: C_1  and  C_2
REMARK    2  A    between atoms: C_2  and  C_3
REMARK    3  A    between atoms: C_2  and  C_11
REMARK    4  A    between atoms: C_3  and  N_4
REMARK    5  A    between atoms: C_14  and  C_15
REMARK    6  A    between atoms: C_15  and  N_16
REMARK    7  A    between atoms: N_16  and  C_17
REMARK    8  A    between atoms: C_17  and  C_18
REMARK    9  A    between atoms: C_17  and  C_19
REMARK                            x       y       z     vdW  Elec       q    Type
REMARK                         _______ _______ _______ _____ _____    ______ ____
ROOT
ATOM      1  C   UNL     1      45.391   4.956  12.080  0.00  0.00    +0.000 A 
ATOM      2  C   UNL     1      45.580   3.598  12.344  0.00  0.00    +0.000 A 
ATOM      3  N   UNL     1      46.271   3.132  13.414  0.00  0.00    +0.000 NA
ATOM      4  C   UNL     1      46.784   4.081  14.250  0.00  0.00    +0.000 A 
ATOM      5  C   UNL     1      46.586   5.431  13.999  0.00  0.00    +0.000 A 
ATOM      6  N   UNL     1      45.914   5.890  12.921  0.00  0.00    +0.000 NA
ENDROOT
BRANCH   1   8
ATOM      7  C   UNL     1      43.488   6.429  11.344  0.00  0.00    +0.000 C 
ATOM      8  C   UNL     1      44.569   5.435  10.902  0.00  0.00    +0.000 C 
BRANCH   8   9
ATOM      9  C   UNL     1      43.893   4.279  10.122  0.00  0.00    +0.000 C 
BRANCH   9  10
ATOM     10  N   UNL     1      44.159   4.392   8.690  0.00  0.00    +0.000 N 
ATOM     11  C   UNL     1      45.130   3.510   8.231  0.00  0.00    +0.000 A 
ATOM     12  N   UNL     1      45.222   2.276   8.746  0.00  0.00    +0.000 NA
ATOM     13  C   UNL     1      46.178   1.474   8.245  0.00  0.00    +0.000 A 
ATOM     14  C   UNL     1      47.044   1.855   7.251  0.00  0.00    +0.000 A 
ATOM     15  C   UNL     1      46.875   3.135   6.793  0.00  0.00    +0.000 A 
ATOM     16  N   UNL     1      45.935   3.973   7.264  0.00  0.00    +0.000 NA
ATOM     17  H   UNL     1      44.517   5.316   8.444  0.00  0.00    +0.000 HD
ENDBRANCH   9  10
ENDBRANCH   8   9
ENDBRANCH   1   8
BRANCH   4  18
ATOM     18  C   UNL     1      47.513   3.658  15.504  0.00  0.00    +0.000 C 
BRANCH  18  19
ATOM     19  N   UNL     1      47.169   4.409  16.715  0.00  0.00    +0.000 NA
ATOM     20  H   UNL     1      46.236   4.087  16.995  0.00  0.00    +0.000 HD
BRANCH  19  21
ATOM     21  C   UNL     1      48.068   4.192  17.864  0.00  0.00    +0.000 C 
ATOM     22  C   UNL     1      49.355   3.440  17.552  0.00  0.00    +0.000 C 
BRANCH  21  23
ATOM     23  C   UNL     1      48.252   5.567  18.470  0.00  0.00    +0.000 A 
ATOM     24  C   UNL     1      48.061   5.818  19.821  0.00  0.00    +0.000 A 
ATOM     25  S   UNL     1      47.810   7.476  20.151  0.00  0.00    +0.000 S 
ATOM     26  C   UNL     1      48.089   7.898  18.526  0.00  0.00    +0.000 A 
ATOM     27  N   UNL     1      47.927   9.175  18.085  0.00  0.00    +0.000 NA
ATOM     28  C   UNL     1      48.264   9.354  16.852  0.00  0.00    +0.000 A 
ATOM     29  N   UNL     1      48.783   8.386  16.032  0.00  0.00    +0.000 N 
ATOM     30  C   UNL     1      48.985   7.084  16.438  0.00  0.00    +0.000 A 
ATOM     31  O   UNL     1      49.612   6.301  15.734  0.00  0.00    +0.000 OA
ATOM     32  C   UNL     1      48.504   6.808  17.780  0.00  0.00    +0.000 A 
ATOM     33  H   UNL     1      49.146   8.619  15.120  0.00  0.00    +0.000 HD
ENDBRANCH  21  23
ENDBRANCH  19  21
ENDBRANCH  18  19
ENDBRANCH   4  18
TORSDOF 7
ENDMDL
MODEL 4
REMARK VINA RESULT:    -8.122      1.509      1.828
REMARK INTER + INTRA:         -12.484
REMARK INTER:                 -11.576
REMARK INTRA:                  -0.908
REMARK UNBOUND:                -1.039
REMARK  Name = 
REMARK  9 active torsions:
REMARK  status: ('A' for Active; 'I' for Inactive)
REMARK    1  A    between atoms: C_1  and  C_2
REMARK    2  A    between atoms: C_2  and  C_3
REMARK    3  A    between atoms: C_2  and  C_11
REMARK    4  A    between atoms: C_3  and  N_4
REMARK    5  A    between atoms: C_14  and  C_15
REMARK    6  A    between atoms: C_15  and  N_16
REMARK    7  A    between atoms: N_16  and  C_17
REMARK    8  A    between atoms: C_17  and  C_18
REMARK    9  A    between atoms: C_17  and  C_19
REMARK                            x       y       z     vdW  Elec       q    Type
REMARK                         _______ _______ _______ _____ _____    ______ ____
ROOT
ATOM      1  C   UNL     1      44.985   5.742  11.747  0.00  0.00    +0.000 A 
ATOM      2  C   UNL     1      45.381   4.914  12.799  0.00  0.00    +0.000 A 
ATOM      3  N   UNL     1      46.468   5.156  13.573  0.00  0.00    +0.000 NA
ATOM      4  C   UNL     1      47.174   6.284  13.272  0.00  0.00    +0.000 A 
ATOM      5  C   UNL     1      46.774   7.118  12.237  0.00  0.00    +0.000 A 
ATOM      6  N   UNL     1      45.703   6.861  11.455  0.00  0.00    +0.000 NA
ENDROOT
BRANCH   1   8
ATOM      7  C   UNL     1      42.484   5.470  11.825  0.00  0.00    +0.000 C 
ATOM      8  C   UNL     1      43.735   5.464  10.938  0.00  0.00    +0.000 C 
BRANCH   8   9
ATOM      9  C   UNL     1      43.794   4.119  10.169  0.00  0.00    +0.000 C 
BRANCH   9  10
ATOM     10  N   UNL     1      44.171   4.334   8.774  0.00  0.00    +0.000 N 
ATOM     11  C   UNL     1      45.142   3.453   8.315  0.00  0.00    +0.000 A 
ATOM     12  N   UNL     1      45.152   2.179   8.733  0.00  0.00    +0.000 NA
ATOM     13  C   UNL     1      46.115   1.381   8.238  0.00  0.00    +0.000 A 
ATOM     14  C   UNL     1      47.065   1.803   7.344  0.00  0.00    +0.000 A 
ATOM     15  C   UNL     1      46.976   3.122   6.981  0.00  0.00    +0.000 A 
ATOM     16  N   UNL     1      46.032   3.958   7.449  0.00  0.00    +0.000 NA
ATOM     17  H   UNL     1      44.578   5.260   8.630  0.00  0.00    +0.000 HD
ENDBRANCH   9  10
ENDBRANCH   8   9
ENDBRANCH   1   8
BRANCH   4  18
ATOM     18  C   UNL     1      48.362   6.673  14.121  0.00  0.00    +0.000 C 
BRANCH  18  19
ATOM     19  N   UNL     1      48.463   5.990  15.414  0.00  0.00    +0.000 NA
ATOM     20  H   UNL     1      48.642   5.003  15.202  0.00  0.00    +0.000 HD
BRANCH  19  21
ATOM     21  C   UNL     1      49.558   6.455  16.286  0.00  0.00    +0.000 C 
ATOM     22  C   UNL     1      50.406   7.586  15.719  0.00  0.00    +0.000 C 
BRANCH  21  23
ATOM     23  C   UNL     1      48.892   6.747  17.613  0.00  0.00    +0.000 A 
ATOM     24  C   UNL     1      48.568   8.033  18.019  0.00  0.00    +0.000 A 
ATOM     25  S   UNL     1      48.331   8.149  19.707  0.00  0.00    +0.000 S 
ATOM     26  C   UNL     1      48.517   6.468  19.903  0.00  0.00    +0.000 A 
ATOM     27  N   UNL     1      48.534   5.894  21.138  0.00  0.00    +0.000 NA
ATOM     28  C   UNL     1      48.591   4.604  21.118  0.00  0.00    +0.000 A 
ATOM     29  N   UNL     1      48.592   3.836  19.983  0.00  0.00    +0.000 N 
ATOM     30  C   UNL     1      48.556   4.370  18.712  0.00  0.00    +0.000 A 
ATOM     31  O   UNL     1      48.380   3.648  17.737  0.00  0.00    +0.000 OA
ATOM     32  C   UNL     1      48.617   5.820  18.684  0.00  0.00    +0.000 A 
ATOM     33  H   UNL     1      48.508   2.832  20.036  0.00  0.00    +0.000 HD
ENDBRANCH  21  23
ENDBRANCH  19  21
ENDBRANCH  18  19
ENDBRANCH   4  18
TORSDOF 7
ENDMDL
MODEL 5
REMARK VINA RESULT:    -7.973      1.674      2.048
REMARK INTER + INTRA:         -12.274
REMARK INTER:                 -11.263
REMARK INTRA:                  -1.011
REMARK UNBOUND:                -1.039
REMARK  Name = 
REMARK  9 active torsions:
REMARK  status: ('A' for Active; 'I' for Inactive)
REMARK    1  A    between atoms: C_1  and  C_2
REMARK    2  A    between atoms: C_2  and  C_3
REMARK    3  A    between atoms: C_2  and  C_11
REMARK    4  A    between atoms: C_3  and  N_4
REMARK    5  A    between atoms: C_14  and  C_15
REMARK    6  A    between atoms: C_15  and  N_16
REMARK    7  A    between atoms: N_16  and  C_17
REMARK    8  A    between atoms: C_17  and  C_18
REMARK    9  A    between atoms: C_17  and  C_19
REMARK                            x       y       z     vdW  Elec       q    Type
REMARK                         _______ _______ _______ _____ _____    ______ ____
ROOT
ATOM      1  C   UNL     1      44.942   4.666  11.714  0.00  0.00    +0.000 A 
ATOM      2  C   UNL     1      45.286   4.491  13.055  0.00  0.00    +0.000 A 
ATOM      3  N   UNL     1      46.286   5.174  13.666  0.00  0.00    +0.000 NA
ATOM      4  C   UNL     1      46.957   6.071  12.887  0.00  0.00    +0.000 A 
ATOM      5  C   UNL     1      46.607   6.258  11.558  0.00  0.00    +0.000 A 
ATOM      6  N   UNL     1      45.624   5.561  10.948  0.00  0.00    +0.000 NA
ENDROOT
BRANCH   1   8
ATOM      7  C   UNL     1      43.321   2.757  11.966  0.00  0.00    +0.000 C 
ATOM      8  C   UNL     1      43.783   3.921  11.082  0.00  0.00    +0.000 C 
BRANCH   8   9
ATOM      9  C   UNL     1      44.110   3.376   9.668  0.00  0.00    +0.000 C 
BRANCH   9  10
ATOM     10  N   UNL     1      45.173   2.376   9.730  0.00  0.00    +0.000 N 
ATOM     11  C   UNL     1      45.911   2.273   8.556  0.00  0.00    +0.000 A 
ATOM     12  N   UNL     1      46.177   3.365   7.825  0.00  0.00    +0.000 NA
ATOM     13  C   UNL     1      46.906   3.190   6.709  0.00  0.00    +0.000 A 
ATOM     14  C   UNL     1      47.380   1.971   6.295  0.00  0.00    +0.000 A 
ATOM     15  C   UNL     1      47.052   0.915   7.105  0.00  0.00    +0.000 A 
ATOM     16  N   UNL     1      46.325   1.040   8.229  0.00  0.00    +0.000 NA
ATOM     17  H   UNL     1      44.802   1.437   9.881  0.00  0.00    +0.000 HD
ENDBRANCH   9  10
ENDBRANCH   8   9
ENDBRANCH   1   8
BRANCH   4  18
ATOM     18  C   UNL     1      48.044   6.925  13.496  0.00  0.00    +0.000 C 
BRANCH  18  19
ATOM     19  N   UNL     1      48.720   6.348  14.662  0.00  0.00    +0.000 NA
ATOM     20  H   UNL     1      49.413   5.689  14.293  0.00  0.00    +0.000 HD
BRANCH  19  21
ATOM     21  C   UNL     1      49.444   7.314  15.509  0.00  0.00    +0.000 C 
ATOM     22  C   UNL     1      48.573   8.360  16.195  0.00  0.00    +0.000 C 
BRANCH  21  23
ATOM     23  C   UNL     1      50.280   6.459  16.436  0.00  0.00    +0.000 A 
ATOM     24  C   UNL     1      51.581   6.790  16.786  0.00  0.00    +0.000 A 
ATOM     25  S   UNL     1      52.461   5.451  17.381  0.00  0.00    +0.000 S 
ATOM     26  C   UNL     1      51.088   4.448  17.311  0.00  0.00    +0.000 A 
ATOM     27  N   UNL     1      51.166   3.117  17.587  0.00  0.00    +0.000 NA
ATOM     28  C   UNL     1      50.026   2.511  17.581  0.00  0.00    +0.000 A 
ATOM     29  N   UNL     1      48.816   3.116  17.364  0.00  0.00    +0.000 N 
ATOM     30  C   UNL     1      48.684   4.463  17.101  0.00  0.00    +0.000 A 
ATOM     31  O   UNL     1      47.579   4.992  17.089  0.00  0.00    +0.000 OA
ATOM     32  C   UNL     1      49.951   5.162  16.975  0.00  0.00    +0.000 A 
ATOM     33  H   UNL     1      47.952   2.613  17.499  0.00  0.00    +0.000 HD
ENDBRANCH  21  23
ENDBRANCH  19  21
ENDBRANCH  18  19
ENDBRANCH   4  18
TORSDOF 7
ENDMDL
MODEL 6
REMARK VINA RESULT:    -7.310      2.149      2.526
REMARK INTER + INTRA:         -11.340
REMARK INTER:                 -10.429
REMARK INTRA:                  -0.911
REMARK UNBOUND:                -1.039
REMARK  Name = 
REMARK  9 active torsions:
REMARK  status: ('A' for Active; 'I' for Inactive)
REMARK    1  A    between atoms: C_1  and  C_2
REMARK    2  A    between atoms: C_2  and  C_3
REMARK    3  A    between atoms: C_2  and  C_11
REMARK    4  A    between atoms: C_3  and  N_4
REMARK    5  A    between atoms: C_14  and  C_15
REMARK    6  A    between atoms: C_15  and  N_16
REMARK    7  A    between atoms: N_16  and  C_17
REMARK    8  A    between atoms: C_17  and  C_18
REMARK    9  A    between atoms: C_17  and  C_19
REMARK                            x       y       z     vdW  Elec       q    Type
REMARK                         _______ _______ _______ _____ _____    ______ ____
ROOT
ATOM      1  C   UNL     1      44.999   4.793  11.755  0.00  0.00    +0.000 A 
ATOM      2  C   UNL     1      45.648   4.463  12.946  0.00  0.00    +0.000 A 
ATOM      3  N   UNL     1      46.662   5.194  13.472  0.00  0.00    +0.000 NA
ATOM      4  C   UNL     1      47.026   6.303  12.766  0.00  0.00    +0.000 A 
ATOM      5  C   UNL     1      46.374   6.641  11.589  0.00  0.00    +0.000 A 
ATOM      6  N   UNL     1      45.378   5.899  11.058  0.00  0.00    +0.000 NA
ENDROOT
BRANCH   1   8
ATOM      7  C   UNL     1      43.492   2.819  12.169  0.00  0.00    +0.000 C 
ATOM      8  C   UNL     1      43.835   3.979  11.227  0.00  0.00    +0.000 C 
BRANCH   8   9
ATOM      9  C   UNL     1      44.085   3.411   9.806  0.00  0.00    +0.000 C 
BRANCH   9  10
ATOM     10  N   UNL     1      45.133   2.394   9.831  0.00  0.00    +0.000 N 
ATOM     11  C   UNL     1      45.859   2.311   8.648  0.00  0.00    +0.000 A 
ATOM     12  N   UNL     1      46.136   3.418   7.944  0.00  0.00    +0.000 NA
ATOM     13  C   UNL     1      46.852   3.262   6.817  0.00  0.00    +0.000 A 
ATOM     14  C   UNL     1      47.302   2.047   6.366  0.00  0.00    +0.000 A 
ATOM     15  C   UNL     1      46.965   0.975   7.149  0.00  0.00    +0.000 A 
ATOM     16  N   UNL     1      46.250   1.081   8.284  0.00  0.00    +0.000 NA
ATOM     17  H   UNL     1      44.748   1.456   9.960  0.00  0.00    +0.000 HD
ENDBRANCH   9  10
ENDBRANCH   8   9
ENDBRANCH   1   8
BRANCH   4  18
ATOM     18  C   UNL     1      48.102   7.215  13.306  0.00  0.00    +0.000 C 
BRANCH  18  19
ATOM     19  N   UNL     1      48.933   6.647  14.372  0.00  0.00    +0.000 NA
ATOM     20  H   UNL     1      49.149   5.687  14.085  0.00  0.00    +0.000 HD
BRANCH  19  21
ATOM     21  C   UNL     1      50.218   7.334  14.601  0.00  0.00    +0.000 C 
ATOM     22  C   UNL     1      50.319   8.737  14.016  0.00  0.00    +0.000 C 
BRANCH  21  23
ATOM     23  C   UNL     1      50.443   7.237  16.094  0.00  0.00    +0.000 A 
ATOM     24  C   UNL     1      51.578   6.658  16.642  0.00  0.00    +0.000 A 
ATOM     25  S   UNL     1      51.361   6.201  18.274  0.00  0.00    +0.000 S 
ATOM     26  C   UNL     1      49.805   6.890  18.316  0.00  0.00    +0.000 A 
ATOM     27  N   UNL     1      49.000   6.761  19.406  0.00  0.00    +0.000 NA
ATOM     28  C   UNL     1      47.890   7.415  19.322  0.00  0.00    +0.000 A 
ATOM     29  N   UNL     1      47.528   8.215  18.269  0.00  0.00    +0.000 N 
ATOM     30  C   UNL     1      48.318   8.393  17.152  0.00  0.00    +0.000 A 
ATOM     31  O   UNL     1      48.039   9.249  16.321  0.00  0.00    +0.000 OA
ATOM     32  C   UNL     1      49.519   7.578  17.149  0.00  0.00    +0.000 A 
ATOM     33  H   UNL     1      46.708   8.800  18.319  0.00  0.00    +0.000 HD
ENDBRANCH  21  23
ENDBRANCH  19  21
ENDBRANCH  18  19
ENDBRANCH   4  18
TORSDOF 7
ENDMDL
MODEL 7
REMARK VINA RESULT:    -7.261      1.909      2.337
REMARK INTER + INTRA:         -11.272
REMARK INTER:                 -10.609
REMARK INTRA:                  -0.662
REMARK UNBOUND:                -1.039
REMARK  Name = 
REMARK  9 active torsions:
REMARK  status: ('A' for Active; 'I' for Inactive)
REMARK    1  A    between atoms: C_1  and  C_2
REMARK    2  A    between atoms: C_2  and  C_3
REMARK    3  A    between atoms: C_2  and  C_11
REMARK    4  A    between atoms: C_3  and  N_4
REMARK    5  A    between atoms: C_14  and  C_15
REMARK    6  A    between atoms: C_15  and  N_16
REMARK    7  A    between atoms: N_16  and  C_17
REMARK    8  A    between atoms: C_17  and  C_18
REMARK    9  A    between atoms: C_17  and  C_19
REMARK                            x       y       z     vdW  Elec       q    Type
REMARK                         _______ _______ _______ _____ _____    ______ ____
ROOT
ATOM      1  C   UNL     1      44.916   5.917  11.713  0.00  0.00    +0.000 A 
ATOM      2  C   UNL     1      45.443   5.206  12.793  0.00  0.00    +0.000 A 
ATOM      3  N   UNL     1      46.470   5.658  13.556  0.00  0.00    +0.000 NA
ATOM      4  C   UNL     1      46.975   6.878  13.213  0.00  0.00    +0.000 A 
ATOM      5  C   UNL     1      46.443   7.594  12.150  0.00  0.00    +0.000 A 
ATOM      6  N   UNL     1      45.435   7.131  11.380  0.00  0.00    +0.000 NA
ENDROOT
BRANCH   1   8
ATOM      7  C   UNL     1      42.497   5.228  11.806  0.00  0.00    +0.000 C 
ATOM      8  C   UNL     1      43.734   5.402  10.917  0.00  0.00    +0.000 C 
BRANCH   8   9
ATOM      9  C   UNL     1      44.024   4.061  10.197  0.00  0.00    +0.000 C 
BRANCH   9  10
ATOM     10  N   UNL     1      44.249   4.275   8.770  0.00  0.00    +0.000 N 
ATOM     11  C   UNL     1      45.231   3.452   8.230  0.00  0.00    +0.000 A 
ATOM     12  N   UNL     1      45.369   2.190   8.660  0.00  0.00    +0.000 NA
ATOM     13  C   UNL     1      46.332   1.450   8.083  0.00  0.00    +0.000 A 
ATOM     14  C   UNL     1      47.161   1.919   7.096  0.00  0.00    +0.000 A 
ATOM     15  C   UNL     1      46.947   3.221   6.727  0.00  0.00    +0.000 A 
ATOM     16  N   UNL     1      45.997   4.000   7.276  0.00  0.00    +0.000 NA
ATOM     17  H   UNL     1      44.576   5.223   8.576  0.00  0.00    +0.000 HD
ENDBRANCH   9  10
ENDBRANCH   8   9
ENDBRANCH   1   8
BRANCH   4  18
ATOM     18  C   UNL     1      48.076   7.493  14.045  0.00  0.00    +0.000 C 
BRANCH  18  19
ATOM     19  N   UNL     1      49.162   6.583  14.422  0.00  0.00    +0.000 NA
ATOM     20  H   UNL     1      49.782   6.523  13.608  0.00  0.00    +0.000 HD
BRANCH  19  21
ATOM     21  C   UNL     1      49.985   7.027  15.564  0.00  0.00    +0.000 C 
ATOM     22  C   UNL     1      49.821   8.490  15.954  0.00  0.00    +0.000 C 
BRANCH  21  23
ATOM     23  C   UNL     1      49.689   6.027  16.660  0.00  0.00    +0.000 A 
ATOM     24  C   UNL     1      48.414   5.531  16.894  0.00  0.00    +0.000 A 
ATOM     25  S   UNL     1      48.247   4.862  18.458  0.00  0.00    +0.000 S 
ATOM     26  C   UNL     1      49.900   5.097  18.794  0.00  0.00    +0.000 A 
ATOM     27  N   UNL     1      50.418   4.833  20.024  0.00  0.00    +0.000 NA
ATOM     28  C   UNL     1      51.700   4.973  20.096  0.00  0.00    +0.000 A 
ATOM     29  N   UNL     1      52.513   5.313  19.046  0.00  0.00    +0.000 N 
ATOM     30  C   UNL     1      52.037   5.570  17.778  0.00  0.00    +0.000 A 
ATOM     31  O   UNL     1      52.809   5.695  16.835  0.00  0.00    +0.000 OA
ATOM     32  C   UNL     1      50.588   5.546  17.681  0.00  0.00    +0.000 A 
ATOM     33  H   UNL     1      53.517   5.280  19.136  0.00  0.00    +0.000 HD
ENDBRANCH  21  23
ENDBRANCH  19  21
ENDBRANCH  18  19
ENDBRANCH   4  18
TORSDOF 7
ENDMDL
MODEL 8
REMARK VINA RESULT:    -7.097      2.332      3.109
REMARK INTER + INTRA:         -11.039
REMARK INTER:                 -10.008
REMARK INTRA:                  -1.031
REMARK UNBOUND:                -1.039
REMARK  Name = 
REMARK  9 active torsions:
REMARK  status: ('A' for Active; 'I' for Inactive)
REMARK    1  A    between atoms: C_1  and  C_2
REMARK    2  A    between atoms: C_2  and  C_3
REMARK    3  A    between atoms: C_2  and  C_11
REMARK    4  A    between atoms: C_3  and  N_4
REMARK    5  A    between atoms: C_14  and  C_15
REMARK    6  A    between atoms: C_15  and  N_16
REMARK    7  A    between atoms: N_16  and  C_17
REMARK    8  A    between atoms: C_17  and  C_18
REMARK    9  A    between atoms: C_17  and  C_19
REMARK                            x       y       z     vdW  Elec       q    Type
REMARK                         _______ _______ _______ _____ _____    ______ ____
ROOT
ATOM      1  C   UNL     1      44.431   5.107  11.742  0.00  0.00    +0.000 A 
ATOM      2  C   UNL     1      45.390   4.861  12.726  0.00  0.00    +0.000 A 
ATOM      3  N   UNL     1      46.165   5.831  13.274  0.00  0.00    +0.000 NA
ATOM      4  C   UNL     1      45.953   7.096  12.809  0.00  0.00    +0.000 A 
ATOM      5  C   UNL     1      44.990   7.346  11.843  0.00  0.00    +0.000 A 
ATOM      6  N   UNL     1      44.235   6.374  11.285  0.00  0.00    +0.000 NA
ENDROOT
BRANCH   1   8
ATOM      7  C   UNL     1      43.519   2.794  12.134  0.00  0.00    +0.000 C 
ATOM      8  C   UNL     1      43.549   4.005  11.193  0.00  0.00    +0.000 C 
BRANCH   8   9
ATOM      9  C   UNL     1      43.978   3.529   9.781  0.00  0.00    +0.000 C 
BRANCH   9  10
ATOM     10  N   UNL     1      45.011   2.501   9.871  0.00  0.00    +0.000 N 
ATOM     11  C   UNL     1      45.777   2.376   8.718  0.00  0.00    +0.000 A 
ATOM     12  N   UNL     1      46.093   3.460   7.995  0.00  0.00    +0.000 NA
ATOM     13  C   UNL     1      46.847   3.264   6.898  0.00  0.00    +0.000 A 
ATOM     14  C   UNL     1      47.297   2.032   6.497  0.00  0.00    +0.000 A 
ATOM     15  C   UNL     1      46.918   0.986   7.297  0.00  0.00    +0.000 A 
ATOM     16  N   UNL     1      46.165   1.132   8.402  0.00  0.00    +0.000 NA
ATOM     17  H   UNL     1      44.610   1.572  10.012  0.00  0.00    +0.000 HD
ENDBRANCH   9  10
ENDBRANCH   8   9
ENDBRANCH   1   8
BRANCH   4  18
ATOM     18  C   UNL     1      46.723   8.251  13.405  0.00  0.00    +0.000 C 
BRANCH  18  19
ATOM     19  N   UNL     1      47.850   8.737  12.604  0.00  0.00    +0.000 NA
ATOM     20  H   UNL     1      48.070   9.674  12.958  0.00  0.00    +0.000 HD
BRANCH  19  21
ATOM     21  C   UNL     1      49.083   7.933  12.703  0.00  0.00    +0.000 C 
ATOM     22  C   UNL     1      49.872   7.789  11.408  0.00  0.00    +0.000 C 
BRANCH  21  23
ATOM     23  C   UNL     1      49.843   8.540  13.862  0.00  0.00    +0.000 A 
ATOM     24  C   UNL     1      50.362   9.826  13.823  0.00  0.00    +0.000 A 
ATOM     25  S   UNL     1      51.588  10.076  14.986  0.00  0.00    +0.000 S 
ATOM     26  C   UNL     1      51.351   8.525  15.648  0.00  0.00    +0.000 A 
ATOM     27  N   UNL     1      52.159   8.041  16.630  0.00  0.00    +0.000 NA
ATOM     28  C   UNL     1      51.796   6.890  17.091  0.00  0.00    +0.000 A 
ATOM     29  N   UNL     1      50.683   6.200  16.690  0.00  0.00    +0.000 N 
ATOM     30  C   UNL     1      49.824   6.658  15.713  0.00  0.00    +0.000 A 
ATOM     31  O   UNL     1      48.752   6.098  15.512  0.00  0.00    +0.000 OA
ATOM     32  C   UNL     1      50.261   7.889  15.080  0.00  0.00    +0.000 A 
ATOM     33  H   UNL     1      50.384   5.369  17.178  0.00  0.00    +0.000 HD
ENDBRANCH  21  23
ENDBRANCH  19  21
ENDBRANCH  18  19
ENDBRANCH   4  18
TORSDOF 7
ENDMDL
MODEL 9
REMARK VINA RESULT:    -6.927      2.136      2.823
REMARK INTER + INTRA:         -10.801
REMARK INTER:                  -9.988
REMARK INTRA:                  -0.813
REMARK UNBOUND:                -1.039
REMARK  Name = 
REMARK  9 active torsions:
REMARK  status: ('A' for Active; 'I' for Inactive)
REMARK    1  A    between atoms: C_1  and  C_2
REMARK    2  A    between atoms: C_2  and  C_3
REMARK    3  A    between atoms: C_2  and  C_11
REMARK    4  A    between atoms: C_3  and  N_4
REMARK    5  A    between atoms: C_14  and  C_15
REMARK    6  A    between atoms: C_15  and  N_16
REMARK    7  A    between atoms: N_16  and  C_17
REMARK    8  A    between atoms: C_17  and  C_18
REMARK    9  A    between atoms: C_17  and  C_19
REMARK                            x       y       z     vdW  Elec       q    Type
REMARK                         _______ _______ _______ _____ _____    ______ ____
ROOT
ATOM      1  C   UNL     1      45.498   5.947  11.873  0.00  0.00    +0.000 A 
ATOM      2  C   UNL     1      46.044   5.010  12.752  0.00  0.00    +0.000 A 
ATOM      3  N   UNL     1      47.027   5.301  13.640  0.00  0.00    +0.000 NA
ATOM      4  C   UNL     1      47.467   6.593  13.639  0.00  0.00    +0.000 A 
ATOM      5  C   UNL     1      46.916   7.530  12.777  0.00  0.00    +0.000 A 
ATOM      6  N   UNL     1      45.951   7.230  11.880  0.00  0.00    +0.000 NA
ENDROOT
BRANCH   1   8
ATOM      7  C   UNL     1      43.014   5.601  11.658  0.00  0.00    +0.000 C 
ATOM      8  C   UNL     1      44.365   5.595  10.931  0.00  0.00    +0.000 C 
BRANCH   8   9
ATOM      9  C   UNL     1      44.553   4.220  10.241  0.00  0.00    +0.000 C 
BRANCH   9  10
ATOM     10  N   UNL     1      44.638   4.374   8.791  0.00  0.00    +0.000 N 
ATOM     11  C   UNL     1      45.489   3.460   8.181  0.00  0.00    +0.000 A 
ATOM     12  N   UNL     1      45.575   2.203   8.641  0.00  0.00    +0.000 NA
ATOM     13  C   UNL     1      46.410   1.371   7.994  0.00  0.00    +0.000 A 
ATOM     14  C   UNL     1      47.162   1.743   6.908  0.00  0.00    +0.000 A 
ATOM     15  C   UNL     1      47.010   3.048   6.516  0.00  0.00    +0.000 A 
ATOM     16  N   UNL     1      46.188   3.916   7.132  0.00  0.00    +0.000 NA
ATOM     17  H   UNL     1      45.015   5.287   8.529  0.00  0.00    +0.000 HD
ENDBRANCH   9  10
ENDBRANCH   8   9
ENDBRANCH   1   8
BRANCH   4  18
ATOM     18  C   UNL     1      48.514   7.028  14.637  0.00  0.00    +0.000 C 
BRANCH  18  19
ATOM     19  N   UNL     1      48.355   6.489  15.992  0.00  0.00    +0.000 NA
ATOM     20  H   UNL     1      47.798   5.634  15.895  0.00  0.00    +0.000 HD
BRANCH  19  21
ATOM     21  C   UNL     1      49.610   6.119  16.671  0.00  0.00    +0.000 C 
ATOM     22  C   UNL     1      50.876   6.718  16.072  0.00  0.00    +0.000 C 
BRANCH  21  23
ATOM     23  C   UNL     1      49.366   6.445  18.129  0.00  0.00    +0.000 A 
ATOM     24  C   UNL     1      49.575   5.523  19.145  0.00  0.00    +0.000 A 
ATOM     25  S   UNL     1      48.750   5.933  20.584  0.00  0.00    +0.000 S 
ATOM     26  C   UNL     1      48.218   7.409  19.922  0.00  0.00    +0.000 A 
ATOM     27  N   UNL     1      47.362   8.223  20.598  0.00  0.00    +0.000 NA
ATOM     28  C   UNL     1      47.124   9.345  20.006  0.00  0.00    +0.000 A 
ATOM     29  N   UNL     1      47.691   9.745  18.824  0.00  0.00    +0.000 N 
ATOM     30  C   UNL     1      48.579   8.965  18.113  0.00  0.00    +0.000 A 
ATOM     31  O   UNL     1      49.194   9.429  17.160  0.00  0.00    +0.000 OA
ATOM     32  C   UNL     1      48.779   7.642  18.679  0.00  0.00    +0.000 A 
ATOM     33  H   UNL     1      47.565  10.684  18.479  0.00  0.00    +0.000 HD
ENDBRANCH  21  23
ENDBRANCH  19  21
ENDBRANCH  18  19
ENDBRANCH   4  18
TORSDOF 7
ENDMDL
