MODEL 1
REMARK VINA RESULT:    -7.800      0.000      0.000
REMARK INTER + INTRA:         -12.454
REMARK INTER:                 -10.991
REMARK INTRA:                  -1.462
REMARK UNBOUND:                -1.462
REMARK  Name = 
REMARK  8 active torsions:
REMARK  status: ('A' for Active; 'I' for Inactive)
REMARK    1  A    between atoms: C_1  and  O_2
REMARK    2  A    between atoms: O_2  and  C_3
REMARK    3  A    between atoms: C_10  and  C_11
REMARK    4  A    between atoms: N_13  and  C_14
REMARK    5  A    between atoms: C_14  and  C_15
REMARK    6  A    between atoms: C_18  and  N_19
REMARK    7  A    between atoms: N_19  and  C_20
REMARK    8  A    between atoms: C_20  and  C_21
REMARK                            x       y       z     vdW  Elec       q    Type
REMARK                         _______ _______ _______ _____ _____    ______ ____
ROOT
ATOM      1  C   UNL     1      46.139   7.635  12.831  0.00  0.00    +0.000 C 
ENDROOT
BRANCH   1   2
ATOM      2  C   UNL     1      45.694   6.535  11.901  0.00  0.00    +0.000 A 
ATOM      3  C   UNL     1      44.585   5.744  12.215  0.00  0.00    +0.000 A 
ATOM      4  C   UNL     1      44.129   4.764  11.322  0.00  0.00    +0.000 A 
ATOM      5  C   UNL     1      44.787   4.513  10.113  0.00  0.00    +0.000 A 
ATOM      6  C   UNL     1      45.922   5.283   9.826  0.00  0.00    +0.000 A 
ATOM      7  C   UNL     1      46.376   6.278  10.707  0.00  0.00    +0.000 A 
BRANCH   5   8
ATOM      8  N   UNL     1      44.309   3.636   9.136  0.00  0.00    +0.000 N 
ATOM      9  H   UNL     1      43.376   3.287   9.340  0.00  0.00    +0.000 HD
BRANCH   8  10
ATOM     10  C   UNL     1      44.601   3.866   7.726  0.00  0.00    +0.000 C 
BRANCH  10  11
ATOM     11  C   UNL     1      45.486   2.752   7.143  0.00  0.00    +0.000 C 
ATOM     12  C   UNL     1      45.947   1.747   8.211  0.00  0.00    +0.000 C 
ATOM     13  C   UNL     1      46.958   0.763   7.635  0.00  0.00    +0.000 C 
ATOM     14  O   UNL     1      48.070   1.452   7.067  0.00  0.00    +0.000 OA
ATOM     15  C   UNL     1      47.682   2.293   5.983  0.00  0.00    +0.000 C 
ATOM     16  C   UNL     1      46.719   3.371   6.461  0.00  0.00    +0.000 C 
ENDBRANCH  10  11
ENDBRANCH   8  10
ENDBRANCH   5   8
ENDBRANCH   1   2
BRANCH   1  19
ATOM     17  C   UNL     1      48.134   6.904  14.070  0.00  0.00    +0.000 C 
ATOM     18  O   UNL     1      48.862   7.170  13.118  0.00  0.00    +0.000 OA
ATOM     19  N   UNL     1      46.781   7.104  14.006  0.00  0.00    +0.000 N 
ATOM     20  H   UNL     1      46.187   6.788  14.758  0.00  0.00    +0.000 HD
BRANCH  17  28
ATOM     21  C   UNL     1      47.229   4.304  16.131  0.00  0.00    +0.000 A 
ATOM     22  N   UNL     1      47.064   3.408  17.125  0.00  0.00    +0.000 NA
ATOM     23  C   UNL     1      47.900   3.464  18.165  0.00  0.00    +0.000 A 
ATOM     24  N   UNL     1      48.908   4.314  18.341  0.00  0.00    +0.000 NA
ATOM     25  C   UNL     1      49.038   5.187  17.327  0.00  0.00    +0.000 A 
ATOM     26  S   UNL     1      50.283   6.342  17.372  0.00  0.00    +0.000 S 
ATOM     27  C   UNL     1      49.790   7.004  15.887  0.00  0.00    +0.000 A 
ATOM     28  C   UNL     1      48.681   6.376  15.329  0.00  0.00    +0.000 A 
ATOM     29  C   UNL     1      48.248   5.271  16.185  0.00  0.00    +0.000 A 
BRANCH  21  31
ATOM     30  C   UNL     1      47.040   3.492  13.938  0.00  0.00    +0.000 C 
ATOM     31  O   UNL     1      46.423   4.194  15.017  0.00  0.00    +0.000 OA
ENDBRANCH  21  31
ENDBRANCH  17  28
ENDBRANCH   1  19
TORSDOF 7
ENDMDL
MODEL 2
REMARK VINA RESULT:    -7.387      1.958      3.538
REMARK INTER + INTRA:         -11.872
REMARK INTER:                 -10.621
REMARK INTRA:                  -1.250
REMARK UNBOUND:                -1.462
REMARK  Name = 
REMARK  8 active torsions:
REMARK  status: ('A' for Active; 'I' for Inactive)
REMARK    1  A    between atoms: C_1  and  O_2
REMARK    2  A    between atoms: O_2  and  C_3
REMARK    3  A    between atoms: C_10  and  C_11
REMARK    4  A    between atoms: N_13  and  C_14
REMARK    5  A    between atoms: C_14  and  C_15
REMARK    6  A    between atoms: C_18  and  N_19
REMARK    7  A    between atoms: N_19  and  C_20
REMARK    8  A    between atoms: C_20  and  C_21
REMARK                            x       y       z     vdW  Elec       q    Type
REMARK                         _______ _______ _______ _____ _____    ______ ____
ROOT
ATOM      1  C   UNL     1      46.675   4.317  14.507  0.00  0.00    +0.000 C 
ENDROOT
BRANCH   1   2
ATOM      2  C   UNL     1      46.142   4.516  13.112  0.00  0.00    +0.000 A 
ATOM      3  C   UNL     1      46.443   5.677  12.394  0.00  0.00    +0.000 A 
ATOM      4  C   UNL     1      46.004   5.837  11.072  0.00  0.00    +0.000 A 
ATOM      5  C   UNL     1      45.218   4.867  10.441  0.00  0.00    +0.000 A 
ATOM      6  C   UNL     1      44.887   3.725  11.182  0.00  0.00    +0.000 A 
ATOM      7  C   UNL     1      45.336   3.549  12.501  0.00  0.00    +0.000 A 
BRANCH   5   8
ATOM      8  N   UNL     1      44.855   4.918   9.092  0.00  0.00    +0.000 N 
ATOM      9  H   UNL     1      45.305   5.679   8.591  0.00  0.00    +0.000 HD
BRANCH   8  10
ATOM     10  C   UNL     1      44.656   3.690   8.331  0.00  0.00    +0.000 C 
BRANCH  10  11
ATOM     11  C   UNL     1      45.995   3.023   7.974  0.00  0.00    +0.000 C 
ATOM     12  C   UNL     1      46.458   3.359   6.548  0.00  0.00    +0.000 C 
ATOM     13  C   UNL     1      47.690   2.546   6.168  0.00  0.00    +0.000 C 
ATOM     14  O   UNL     1      47.441   1.149   6.311  0.00  0.00    +0.000 OA
ATOM     15  C   UNL     1      47.138   0.793   7.658  0.00  0.00    +0.000 C 
ATOM     16  C   UNL     1      45.871   1.497   8.124  0.00  0.00    +0.000 C 
ENDBRANCH  10  11
ENDBRANCH   8  10
ENDBRANCH   5   8
ENDBRANCH   1   2
BRANCH   1  19
ATOM     17  C   UNL     1      48.319   5.420  15.966  0.00  0.00    +0.000 C 
ATOM     18  O   UNL     1      48.604   4.354  16.505  0.00  0.00    +0.000 OA
ATOM     19  N   UNL     1      47.378   5.485  14.974  0.00  0.00    +0.000 N 
ATOM     20  H   UNL     1      47.084   6.380  14.613  0.00  0.00    +0.000 HD
BRANCH  17  28
ATOM     21  C   UNL     1      50.047   7.811  14.197  0.00  0.00    +0.000 A 
ATOM     22  N   UNL     1      50.802   8.843  13.769  0.00  0.00    +0.000 NA
ATOM     23  C   UNL     1      51.240   9.718  14.678  0.00  0.00    +0.000 A 
ATOM     24  N   UNL     1      51.010   9.699  15.988  0.00  0.00    +0.000 NA
ATOM     25  C   UNL     1      50.252   8.656  16.371  0.00  0.00    +0.000 A 
ATOM     26  S   UNL     1      49.844   8.476  18.009  0.00  0.00    +0.000 S 
ATOM     27  C   UNL     1      48.983   7.047  17.689  0.00  0.00    +0.000 A 
ATOM     28  C   UNL     1      48.987   6.674  16.349  0.00  0.00    +0.000 A 
ATOM     29  C   UNL     1      49.730   7.656  15.558  0.00  0.00    +0.000 A 
BRANCH  21  31
ATOM     30  C   UNL     1      49.626   7.451  11.917  0.00  0.00    +0.000 C 
ATOM     31  O   UNL     1      49.521   6.955  13.252  0.00  0.00    +0.000 OA
ENDBRANCH  21  31
ENDBRANCH  17  28
ENDBRANCH   1  19
TORSDOF 7
ENDMDL
MODEL 3
REMARK VINA RESULT:    -7.122      2.017      2.607
REMARK INTER + INTRA:         -11.499
REMARK INTER:                 -10.354
REMARK INTRA:                  -1.145
REMARK UNBOUND:                -1.462
REMARK  Name = 
REMARK  8 active torsions:
REMARK  status: ('A' for Active; 'I' for Inactive)
REMARK    1  A    between atoms: C_1  and  O_2
REMARK    2  A    between atoms: O_2  and  C_3
REMARK    3  A    between atoms: C_10  and  C_11
REMARK    4  A    between atoms: N_13  and  C_14
REMARK    5  A    between atoms: C_14  and  C_15
REMARK    6  A    between atoms: C_18  and  N_19
REMARK    7  A    between atoms: N_19  and  C_20
REMARK    8  A    between atoms: C_20  and  C_21
REMARK                            x       y       z     vdW  Elec       q    Type
REMARK                         _______ _______ _______ _____ _____    ______ ____
ROOT
ATOM      1  C   UNL     1      48.403   7.120  13.726  0.00  0.00    +0.000 C 
ENDROOT
BRANCH   1   2
ATOM      2  C   UNL     1      47.328   6.329  13.026  0.00  0.00    +0.000 A 
ATOM      3  C   UNL     1      46.839   6.739  11.783  0.00  0.00    +0.000 A 
ATOM      4  C   UNL     1      45.886   5.971  11.099  0.00  0.00    +0.000 A 
ATOM      5  C   UNL     1      45.361   4.797  11.650  0.00  0.00    +0.000 A 
ATOM      6  C   UNL     1      45.826   4.417  12.916  0.00  0.00    +0.000 A 
ATOM      7  C   UNL     1      46.792   5.171  13.600  0.00  0.00    +0.000 A 
BRANCH   5   8
ATOM      8  N   UNL     1      44.503   3.933  10.965  0.00  0.00    +0.000 N 
ATOM      9  H   UNL     1      43.817   3.493  11.573  0.00  0.00    +0.000 HD
BRANCH   8  10
ATOM     10  C   UNL     1      44.038   4.259   9.622  0.00  0.00    +0.000 C 
BRANCH  10  11
ATOM     11  C   UNL     1      44.733   3.393   8.557  0.00  0.00    +0.000 C 
ATOM     12  C   UNL     1      45.244   2.060   9.125  0.00  0.00    +0.000 C 
ATOM     13  C   UNL     1      46.076   1.310   8.092  0.00  0.00    +0.000 C 
ATOM     14  O   UNL     1      47.156   2.116   7.626  0.00  0.00    +0.000 OA
ATOM     15  C   UNL     1      46.699   3.300   6.976  0.00  0.00    +0.000 C 
ATOM     16  C   UNL     1      45.910   4.171   7.943  0.00  0.00    +0.000 C 
ENDBRANCH  10  11
ENDBRANCH   8  10
ENDBRANCH   5   8
ENDBRANCH   1   2
BRANCH   1  19
ATOM     17  C   UNL     1      49.070   6.853  16.078  0.00  0.00    +0.000 C 
ATOM     18  O   UNL     1      50.167   6.408  15.751  0.00  0.00    +0.000 OA
ATOM     19  N   UNL     1      48.145   7.225  15.139  0.00  0.00    +0.000 N 
ATOM     20  H   UNL     1      47.215   7.493  15.424  0.00  0.00    +0.000 HD
BRANCH  17  28
ATOM     21  C   UNL     1      48.956   4.706  18.763  0.00  0.00    +0.000 A 
ATOM     22  N   UNL     1      48.766   4.084  19.944  0.00  0.00    +0.000 NA
ATOM     23  C   UNL     1      48.283   4.803  20.961  0.00  0.00    +0.000 A 
ATOM     24  N   UNL     1      47.965   6.095  20.952  0.00  0.00    +0.000 NA
ATOM     25  C   UNL     1      48.171   6.676  19.757  0.00  0.00    +0.000 A 
ATOM     26  S   UNL     1      47.832   8.328  19.561  0.00  0.00    +0.000 S 
ATOM     27  C   UNL     1      48.291   8.279  17.926  0.00  0.00    +0.000 A 
ATOM     28  C   UNL     1      48.704   7.023  17.493  0.00  0.00    +0.000 A 
ATOM     29  C   UNL     1      48.653   6.069  18.602  0.00  0.00    +0.000 A 
BRANCH  21  31
ATOM     30  C   UNL     1      48.610   3.158  17.034  0.00  0.00    +0.000 C 
ATOM     31  O   UNL     1      49.534   3.989  17.737  0.00  0.00    +0.000 OA
ENDBRANCH  21  31
ENDBRANCH  17  28
ENDBRANCH   1  19
TORSDOF 7
ENDMDL
MODEL 4
REMARK VINA RESULT:    -7.106      2.287      3.311
REMARK INTER + INTRA:         -11.476
REMARK INTER:                 -10.584
REMARK INTRA:                  -0.892
REMARK UNBOUND:                -1.462
REMARK  Name = 
REMARK  8 active torsions:
REMARK  status: ('A' for Active; 'I' for Inactive)
REMARK    1  A    between atoms: C_1  and  O_2
REMARK    2  A    between atoms: O_2  and  C_3
REMARK    3  A    between atoms: C_10  and  C_11
REMARK    4  A    between atoms: N_13  and  C_14
REMARK    5  A    between atoms: C_14  and  C_15
REMARK    6  A    between atoms: C_18  and  N_19
REMARK    7  A    between atoms: N_19  and  C_20
REMARK    8  A    between atoms: C_20  and  C_21
REMARK                            x       y       z     vdW  Elec       q    Type
REMARK                         _______ _______ _______ _____ _____    ______ ____
ROOT
ATOM      1  C   UNL     1      46.521   4.409  14.585  0.00  0.00    +0.000 C 
ENDROOT
BRANCH   1   2
ATOM      2  C   UNL     1      46.068   4.605  13.161  0.00  0.00    +0.000 A 
ATOM      3  C   UNL     1      46.424   5.756  12.453  0.00  0.00    +0.000 A 
ATOM      4  C   UNL     1      46.059   5.911  11.108  0.00  0.00    +0.000 A 
ATOM      5  C   UNL     1      45.294   4.948  10.442  0.00  0.00    +0.000 A 
ATOM      6  C   UNL     1      44.907   3.817  11.172  0.00  0.00    +0.000 A 
ATOM      7  C   UNL     1      45.281   3.645  12.514  0.00  0.00    +0.000 A 
BRANCH   5   8
ATOM      8  N   UNL     1      45.005   4.994   9.076  0.00  0.00    +0.000 N 
ATOM      9  H   UNL     1      45.550   5.695   8.580  0.00  0.00    +0.000 HD
BRANCH   8  10
ATOM     10  C   UNL     1      44.730   3.769   8.334  0.00  0.00    +0.000 C 
BRANCH  10  11
ATOM     11  C   UNL     1      46.028   3.059   7.913  0.00  0.00    +0.000 C 
ATOM     12  C   UNL     1      46.387   3.314   6.441  0.00  0.00    +0.000 C 
ATOM     13  C   UNL     1      47.574   2.459   6.013  0.00  0.00    +0.000 C 
ATOM     14  O   UNL     1      47.315   1.076   6.245  0.00  0.00    +0.000 OA
ATOM     15  C   UNL     1      47.109   0.794   7.628  0.00  0.00    +0.000 C 
ATOM     16  C   UNL     1      45.892   1.544   8.150  0.00  0.00    +0.000 C 
ENDBRANCH  10  11
ENDBRANCH   8  10
ENDBRANCH   5   8
ENDBRANCH   1   2
BRANCH   1  19
ATOM     17  C   UNL     1      48.305   5.399  15.959  0.00  0.00    +0.000 C 
ATOM     18  O   UNL     1      48.610   4.300  16.413  0.00  0.00    +0.000 OA
ATOM     19  N   UNL     1      47.286   5.536  15.054  0.00  0.00    +0.000 N 
ATOM     20  H   UNL     1      46.983   6.455  14.768  0.00  0.00    +0.000 HD
BRANCH  17  28
ATOM     21  C   UNL     1      48.326   7.320  18.812  0.00  0.00    +0.000 A 
ATOM     22  N   UNL     1      48.481   8.263  19.763  0.00  0.00    +0.000 NA
ATOM     23  C   UNL     1      49.289   9.293  19.499  0.00  0.00    +0.000 A 
ATOM     24  N   UNL     1      49.985   9.503  18.385  0.00  0.00    +0.000 NA
ATOM     25  C   UNL     1      49.804   8.539  17.465  0.00  0.00    +0.000 A 
ATOM     26  S   UNL     1      50.624   8.633  15.982  0.00  0.00    +0.000 S 
ATOM     27  C   UNL     1      49.903   7.196  15.435  0.00  0.00    +0.000 A 
ATOM     28  C   UNL     1      49.030   6.618  16.351  0.00  0.00    +0.000 A 
ATOM     29  C   UNL     1      48.992   7.415  17.577  0.00  0.00    +0.000 A 
BRANCH  21  31
ATOM     30  C   UNL     1      47.293   6.072  20.509  0.00  0.00    +0.000 C 
ATOM     31  O   UNL     1      47.560   6.213  19.113  0.00  0.00    +0.000 OA
ENDBRANCH  21  31
ENDBRANCH  17  28
ENDBRANCH   1  19
TORSDOF 7
ENDMDL
MODEL 5
REMARK VINA RESULT:    -7.103      2.690      3.573
REMARK INTER + INTRA:         -11.471
REMARK INTER:                 -10.144
REMARK INTRA:                  -1.327
REMARK UNBOUND:                -1.462
REMARK  Name = 
REMARK  8 active torsions:
REMARK  status: ('A' for Active; 'I' for Inactive)
REMARK    1  A    between atoms: C_1  and  O_2
REMARK    2  A    between atoms: O_2  and  C_3
REMARK    3  A    between atoms: C_10  and  C_11
REMARK    4  A    between atoms: N_13  and  C_14
REMARK    5  A    between atoms: C_14  and  C_15
REMARK    6  A    between atoms: C_18  and  N_19
REMARK    7  A    between atoms: N_19  and  C_20
REMARK    8  A    between atoms: C_20  and  C_21
REMARK                            x       y       z     vdW  Elec       q    Type
REMARK                         _______ _______ _______ _____ _____    ______ ____
ROOT
ATOM      1  C   UNL     1      48.446   6.667  14.090  0.00  0.00    +0.000 C 
ENDROOT
BRANCH   1   2
ATOM      2  C   UNL     1      47.364   5.979  13.296  0.00  0.00    +0.000 A 
ATOM      3  C   UNL     1      46.918   6.519  12.087  0.00  0.00    +0.000 A 
ATOM      4  C   UNL     1      45.959   5.849  11.314  0.00  0.00    +0.000 A 
ATOM      5  C   UNL     1      45.386   4.647  11.740  0.00  0.00    +0.000 A 
ATOM      6  C   UNL     1      45.810   4.134  12.974  0.00  0.00    +0.000 A 
ATOM      7  C   UNL     1      46.781   4.790  13.747  0.00  0.00    +0.000 A 
BRANCH   5   8
ATOM      8  N   UNL     1      44.520   3.878  10.959  0.00  0.00    +0.000 N 
ATOM      9  H   UNL     1      43.775   3.447  11.502  0.00  0.00    +0.000 HD
BRANCH   8  10
ATOM     10  C   UNL     1      44.153   4.309   9.615  0.00  0.00    +0.000 C 
BRANCH  10  11
ATOM     11  C   UNL     1      44.793   3.415   8.540  0.00  0.00    +0.000 C 
ATOM     12  C   UNL     1      45.306   2.084   9.110  0.00  0.00    +0.000 C 
ATOM     13  C   UNL     1      46.087   1.304   8.059  0.00  0.00    +0.000 C 
ATOM     14  O   UNL     1      47.161   2.086   7.541  0.00  0.00    +0.000 OA
ATOM     15  C   UNL     1      46.698   3.266   6.888  0.00  0.00    +0.000 C 
ATOM     16  C   UNL     1      45.959   4.164   7.869  0.00  0.00    +0.000 C 
ENDBRANCH  10  11
ENDBRANCH   8  10
ENDBRANCH   5   8
ENDBRANCH   1   2
BRANCH   1  19
ATOM     17  C   UNL     1      49.040   6.325  16.452  0.00  0.00    +0.000 C 
ATOM     18  O   UNL     1      50.170   5.952  16.147  0.00  0.00    +0.000 OA
ATOM     19  N   UNL     1      48.132   6.693  15.496  0.00  0.00    +0.000 N 
ATOM     20  H   UNL     1      47.179   6.901  15.756  0.00  0.00    +0.000 HD
BRANCH  17  28
ATOM     21  C   UNL     1      47.717   8.856  18.368  0.00  0.00    +0.000 A 
ATOM     22  N   UNL     1      47.257   9.667  19.343  0.00  0.00    +0.000 NA
ATOM     23  C   UNL     1      47.144   9.165  20.575  0.00  0.00    +0.000 A 
ATOM     24  N   UNL     1      47.433   7.928  20.968  0.00  0.00    +0.000 NA
ATOM     25  C   UNL     1      47.886   7.153  19.967  0.00  0.00    +0.000 A 
ATOM     26  S   UNL     1      48.293   5.535  20.280  0.00  0.00    +0.000 S 
ATOM     27  C   UNL     1      48.754   5.286  18.664  0.00  0.00    +0.000 A 
ATOM     28  C   UNL     1      48.616   6.412  17.858  0.00  0.00    +0.000 A 
ATOM     29  C   UNL     1      48.072   7.523  18.639  0.00  0.00    +0.000 A 
BRANCH  21  31
ATOM     30  C   UNL     1      48.706  10.391  16.895  0.00  0.00    +0.000 C 
ATOM     31  O   UNL     1      47.752   9.345  17.079  0.00  0.00    +0.000 OA
ENDBRANCH  21  31
ENDBRANCH  17  28
ENDBRANCH   1  19
TORSDOF 7
ENDMDL
MODEL 6
REMARK VINA RESULT:    -6.560      4.458      9.306
REMARK INTER + INTRA:         -10.707
REMARK INTER:                  -9.695
REMARK INTRA:                  -1.012
REMARK UNBOUND:                -1.462
REMARK  Name = 
REMARK  8 active torsions:
REMARK  status: ('A' for Active; 'I' for Inactive)
REMARK    1  A    between atoms: C_1  and  O_2
REMARK    2  A    between atoms: O_2  and  C_3
REMARK    3  A    between atoms: C_10  and  C_11
REMARK    4  A    between atoms: N_13  and  C_14
REMARK    5  A    between atoms: C_14  and  C_15
REMARK    6  A    between atoms: C_18  and  N_19
REMARK    7  A    between atoms: N_19  and  C_20
REMARK    8  A    between atoms: C_20  and  C_21
REMARK                            x       y       z     vdW  Elec       q    Type
REMARK                         _______ _______ _______ _____ _____    ______ ____
ROOT
ATOM      1  C   UNL     1      47.308   3.255  16.837  0.00  0.00    +0.000 C 
ENDROOT
BRANCH   1   2
ATOM      2  C   UNL     1      48.780   3.219  17.162  0.00  0.00    +0.000 A 
ATOM      3  C   UNL     1      49.427   4.356  17.653  0.00  0.00    +0.000 A 
ATOM      4  C   UNL     1      50.780   4.309  18.019  0.00  0.00    +0.000 A 
ATOM      5  C   UNL     1      51.538   3.143  17.867  0.00  0.00    +0.000 A 
ATOM      6  C   UNL     1      50.890   2.020  17.335  0.00  0.00    +0.000 A 
ATOM      7  C   UNL     1      49.532   2.054  16.981  0.00  0.00    +0.000 A 
BRANCH   5   8
ATOM      8  N   UNL     1      52.851   3.004  18.325  0.00  0.00    +0.000 N 
ATOM      9  H   UNL     1      52.901   2.694  19.292  0.00  0.00    +0.000 HD
BRANCH   8  10
ATOM     10  C   UNL     1      53.894   2.494  17.442  0.00  0.00    +0.000 C 
BRANCH  10  11
ATOM     11  C   UNL     1      54.643   1.311  18.079  0.00  0.00    +0.000 C 
ATOM     12  C   UNL     1      53.845   0.000  18.005  0.00  0.00    +0.000 C 
ATOM     13  C   UNL     1      54.536  -1.105  18.795  0.00  0.00    +0.000 C 
ATOM     14  O   UNL     1      54.744  -0.707  20.149  0.00  0.00    +0.000 OA
ATOM     15  C   UNL     1      55.594   0.434  20.248  0.00  0.00    +0.000 C 
ATOM     16  C   UNL     1      54.964   1.631  19.550  0.00  0.00    +0.000 C 
ENDBRANCH  10  11
ENDBRANCH   8  10
ENDBRANCH   5   8
ENDBRANCH   1   2
BRANCH   1  19
ATOM     17  C   UNL     1      47.013   4.230  14.598  0.00  0.00    +0.000 C 
ATOM     18  O   UNL     1      47.313   3.167  14.061  0.00  0.00    +0.000 OA
ATOM     19  N   UNL     1      46.989   4.354  15.962  0.00  0.00    +0.000 N 
ATOM     20  H   UNL     1      46.839   5.257  16.385  0.00  0.00    +0.000 HD
BRANCH  17  28
ATOM     21  C   UNL     1      44.286   5.026  12.659  0.00  0.00    +0.000 A 
ATOM     22  N   UNL     1      43.386   5.561  11.809  0.00  0.00    +0.000 NA
ATOM     23  C   UNL     1      43.658   6.754  11.276  0.00  0.00    +0.000 A 
ATOM     24  N   UNL     1      44.736   7.504  11.493  0.00  0.00    +0.000 NA
ATOM     25  C   UNL     1      45.605   6.936  12.347  0.00  0.00    +0.000 A 
ATOM     26  S   UNL     1      47.035   7.756  12.753  0.00  0.00    +0.000 S 
ATOM     27  C   UNL     1      47.540   6.481  13.756  0.00  0.00    +0.000 A 
ATOM     28  C   UNL     1      46.649   5.414  13.804  0.00  0.00    +0.000 A 
ATOM     29  C   UNL     1      45.478   5.701  12.975  0.00  0.00    +0.000 A 
BRANCH  21  31
ATOM     30  C   UNL     1      43.534   2.823  12.370  0.00  0.00    +0.000 C 
ATOM     31  O   UNL     1      43.968   3.835  13.278  0.00  0.00    +0.000 OA
ENDBRANCH  21  31
ENDBRANCH  17  28
ENDBRANCH   1  19
TORSDOF 7
ENDMDL
MODEL 7
REMARK VINA RESULT:    -6.430      1.977      2.849
REMARK INTER + INTRA:         -10.524
REMARK INTER:                  -9.039
REMARK INTRA:                  -1.485
REMARK UNBOUND:                -1.462
REMARK  Name = 
REMARK  8 active torsions:
REMARK  status: ('A' for Active; 'I' for Inactive)
REMARK    1  A    between atoms: C_1  and  O_2
REMARK    2  A    between atoms: O_2  and  C_3
REMARK    3  A    between atoms: C_10  and  C_11
REMARK    4  A    between atoms: N_13  and  C_14
REMARK    5  A    between atoms: C_14  and  C_15
REMARK    6  A    between atoms: C_18  and  N_19
REMARK    7  A    between atoms: N_19  and  C_20
REMARK    8  A    between atoms: C_20  and  C_21
REMARK                            x       y       z     vdW  Elec       q    Type
REMARK                         _______ _______ _______ _____ _____    ______ ____
ROOT
ATOM      1  C   UNL     1      48.887   7.314  13.772  0.00  0.00    +0.000 C 
ENDROOT
BRANCH   1   2
ATOM      2  C   UNL     1      47.584   6.665  13.381  0.00  0.00    +0.000 A 
ATOM      3  C   UNL     1      46.532   7.432  12.873  0.00  0.00    +0.000 A 
ATOM      4  C   UNL     1      45.343   6.824  12.446  0.00  0.00    +0.000 A 
ATOM      5  C   UNL     1      45.149   5.443  12.552  0.00  0.00    +0.000 A 
ATOM      6  C   UNL     1      46.194   4.687  13.101  0.00  0.00    +0.000 A 
ATOM      7  C   UNL     1      47.394   5.285  13.516  0.00  0.00    +0.000 A 
BRANCH   5   8
ATOM      8  N   UNL     1      44.038   4.771  12.035  0.00  0.00    +0.000 N 
ATOM      9  H   UNL     1      43.355   4.531  12.749  0.00  0.00    +0.000 HD
BRANCH   8  10
ATOM     10  C   UNL     1      43.490   5.136  10.734  0.00  0.00    +0.000 C 
BRANCH  10  11
ATOM     11  C   UNL     1      43.948   4.163   9.635  0.00  0.00    +0.000 C 
ATOM     12  C   UNL     1      44.170   2.738  10.165  0.00  0.00    +0.000 C 
ATOM     13  C   UNL     1      44.788   1.847   9.095  0.00  0.00    +0.000 C 
ATOM     14  O   UNL     1      46.005   2.408   8.607  0.00  0.00    +0.000 OA
ATOM     15  C   UNL     1      45.801   3.677   7.990  0.00  0.00    +0.000 C 
ATOM     16  C   UNL     1      45.249   4.678   8.995  0.00  0.00    +0.000 C 
ENDBRANCH  10  11
ENDBRANCH   8  10
ENDBRANCH   5   8
ENDBRANCH   1   2
BRANCH   1  19
ATOM     17  C   UNL     1      48.738   7.980  16.135  0.00  0.00    +0.000 C 
ATOM     18  O   UNL     1      48.077   8.973  15.847  0.00  0.00    +0.000 OA
ATOM     19  N   UNL     1      49.176   7.114  15.169  0.00  0.00    +0.000 N 
ATOM     20  H   UNL     1      49.802   6.360  15.412  0.00  0.00    +0.000 HD
BRANCH  17  28
ATOM     21  C   UNL     1      48.484   5.128  18.040  0.00  0.00    +0.000 A 
ATOM     22  N   UNL     1      48.442   4.192  19.010  0.00  0.00    +0.000 NA
ATOM     23  C   UNL     1      48.842   4.539  20.235  0.00  0.00    +0.000 A 
ATOM     24  N   UNL     1      49.296   5.727  20.625  0.00  0.00    +0.000 NA
ATOM     25  C   UNL     1      49.324   6.630  19.629  0.00  0.00    +0.000 A 
ATOM     26  S   UNL     1      49.889   8.200  19.938  0.00  0.00    +0.000 S 
ATOM     27  C   UNL     1      49.605   8.673  18.332  0.00  0.00    +0.000 A 
ATOM     28  C   UNL     1      49.078   7.664  17.531  0.00  0.00    +0.000 A 
ATOM     29  C   UNL     1      48.933   6.433  18.309  0.00  0.00    +0.000 A 
BRANCH  21  31
ATOM     30  C   UNL     1      47.802   3.370  16.645  0.00  0.00    +0.000 C 
ATOM     31  O   UNL     1      48.154   4.748  16.756  0.00  0.00    +0.000 OA
ENDBRANCH  21  31
ENDBRANCH  17  28
ENDBRANCH   1  19
TORSDOF 7
ENDMDL
MODEL 8
REMARK VINA RESULT:    -6.113      3.830      8.094
REMARK INTER + INTRA:         -10.076
REMARK INTER:                  -8.488
REMARK INTRA:                  -1.589
REMARK UNBOUND:                -1.462
REMARK  Name = 
REMARK  8 active torsions:
REMARK  status: ('A' for Active; 'I' for Inactive)
REMARK    1  A    between atoms: C_1  and  O_2
REMARK    2  A    between atoms: O_2  and  C_3
REMARK    3  A    between atoms: C_10  and  C_11
REMARK    4  A    between atoms: N_13  and  C_14
REMARK    5  A    between atoms: C_14  and  C_15
REMARK    6  A    between atoms: C_18  and  N_19
REMARK    7  A    between atoms: N_19  and  C_20
REMARK    8  A    between atoms: C_20  and  C_21
REMARK                            x       y       z     vdW  Elec       q    Type
REMARK                         _______ _______ _______ _____ _____    ______ ____
ROOT
ATOM      1  C   UNL     1      48.332   8.878  15.087  0.00  0.00    +0.000 C 
ENDROOT
BRANCH   1   2
ATOM      2  C   UNL     1      49.353   8.085  15.860  0.00  0.00    +0.000 A 
ATOM      3  C   UNL     1      50.520   7.629  15.239  0.00  0.00    +0.000 A 
ATOM      4  C   UNL     1      51.502   6.948  15.971  0.00  0.00    +0.000 A 
ATOM      5  C   UNL     1      51.335   6.661  17.329  0.00  0.00    +0.000 A 
ATOM      6  C   UNL     1      50.144   7.085  17.934  0.00  0.00    +0.000 A 
ATOM      7  C   UNL     1      49.162   7.783  17.213  0.00  0.00    +0.000 A 
BRANCH   5   8
ATOM      8  N   UNL     1      52.328   6.094  18.133  0.00  0.00    +0.000 N 
ATOM      9  H   UNL     1      52.870   6.788  18.640  0.00  0.00    +0.000 HD
BRANCH   8  10
ATOM     10  C   UNL     1      52.084   4.842  18.840  0.00  0.00    +0.000 C 
BRANCH  10  11
ATOM     11  C   UNL     1      51.873   3.673  17.864  0.00  0.00    +0.000 C 
ATOM     12  C   UNL     1      50.398   3.257  17.755  0.00  0.00    +0.000 C 
ATOM     13  C   UNL     1      50.248   1.990  16.920  0.00  0.00    +0.000 C 
ATOM     14  O   UNL     1      51.041   0.932  17.454  0.00  0.00    +0.000 OA
ATOM     15  C   UNL     1      52.432   1.247  17.442  0.00  0.00    +0.000 C 
ATOM     16  C   UNL     1      52.712   2.464  18.312  0.00  0.00    +0.000 C 
ENDBRANCH  10  11
ENDBRANCH   8  10
ENDBRANCH   5   8
ENDBRANCH   1   2
BRANCH   1  19
ATOM     17  C   UNL     1      46.978   8.169  13.160  0.00  0.00    +0.000 C 
ATOM     18  O   UNL     1      47.460   9.052  12.456  0.00  0.00    +0.000 OA
ATOM     19  N   UNL     1      47.355   8.019  14.468  0.00  0.00    +0.000 N 
ATOM     20  H   UNL     1      46.878   7.355  15.060  0.00  0.00    +0.000 HD
BRANCH  17  28
ATOM     21  C   UNL     1      46.597   4.760  13.414  0.00  0.00    +0.000 A 
ATOM     22  N   UNL     1      46.250   3.462  13.300  0.00  0.00    +0.000 NA
ATOM     23  C   UNL     1      45.197   3.159  12.538  0.00  0.00    +0.000 A 
ATOM     24  N   UNL     1      44.423   4.006  11.865  0.00  0.00    +0.000 NA
ATOM     25  C   UNL     1      44.801   5.288  12.007  0.00  0.00    +0.000 A 
ATOM     26  S   UNL     1      43.919   6.512  11.228  0.00  0.00    +0.000 S 
ATOM     27  C   UNL     1      44.956   7.713  11.834  0.00  0.00    +0.000 A 
ATOM     28  C   UNL     1      45.986   7.221  12.629  0.00  0.00    +0.000 A 
ATOM     29  C   UNL     1      45.875   5.767  12.749  0.00  0.00    +0.000 A 
BRANCH  21  31
ATOM     30  C   UNL     1      47.450   4.581  15.592  0.00  0.00    +0.000 C 
ATOM     31  O   UNL     1      47.630   5.084  14.269  0.00  0.00    +0.000 OA
ENDBRANCH  21  31
ENDBRANCH  17  28
ENDBRANCH   1  19
TORSDOF 7
ENDMDL
MODEL 9
REMARK VINA RESULT:    -5.775      4.117      9.315
REMARK INTER + INTRA:          -9.601
REMARK INTER:                  -8.127
REMARK INTRA:                  -1.474
REMARK UNBOUND:                -1.462
REMARK  Name = 
REMARK  8 active torsions:
REMARK  status: ('A' for Active; 'I' for Inactive)
REMARK    1  A    between atoms: C_1  and  O_2
REMARK    2  A    between atoms: O_2  and  C_3
REMARK    3  A    between atoms: C_10  and  C_11
REMARK    4  A    between atoms: N_13  and  C_14
REMARK    5  A    between atoms: C_14  and  C_15
REMARK    6  A    between atoms: C_18  and  N_19
REMARK    7  A    between atoms: N_19  and  C_20
REMARK    8  A    between atoms: C_20  and  C_21
REMARK                            x       y       z     vdW  Elec       q    Type
REMARK                         _______ _______ _______ _____ _____    ______ ____
ROOT
ATOM      1  C   UNL     1      47.222   3.561  16.934  0.00  0.00    +0.000 C 
ENDROOT
BRANCH   1   2
ATOM      2  C   UNL     1      48.636   3.831  17.380  0.00  0.00    +0.000 A 
ATOM      3  C   UNL     1      49.612   2.834  17.292  0.00  0.00    +0.000 A 
ATOM      4  C   UNL     1      50.943   3.101  17.643  0.00  0.00    +0.000 A 
ATOM      5  C   UNL     1      51.333   4.352  18.133  0.00  0.00    +0.000 A 
ATOM      6  C   UNL     1      50.339   5.333  18.256  0.00  0.00    +0.000 A 
ATOM      7  C   UNL     1      49.008   5.079  17.891  0.00  0.00    +0.000 A 
BRANCH   5   8
ATOM      8  N   UNL     1      52.660   4.710  18.383  0.00  0.00    +0.000 N 
ATOM      9  H   UNL     1      52.869   4.781  19.376  0.00  0.00    +0.000 HD
BRANCH   8  10
ATOM     10  C   UNL     1      53.738   4.195  17.547  0.00  0.00    +0.000 C 
BRANCH  10  11
ATOM     11  C   UNL     1      54.617   3.191  18.312  0.00  0.00    +0.000 C 
ATOM     12  C   UNL     1      54.454   1.753  17.795  0.00  0.00    +0.000 C 
ATOM     13  C   UNL     1      55.201   0.766  18.685  0.00  0.00    +0.000 C 
ATOM     14  O   UNL     1      54.769   0.876  20.040  0.00  0.00    +0.000 OA
ATOM     15  C   UNL     1      55.033   2.168  20.583  0.00  0.00    +0.000 C 
ATOM     16  C   UNL     1      54.273   3.237  19.811  0.00  0.00    +0.000 C 
ENDBRANCH  10  11
ENDBRANCH   8  10
ENDBRANCH   5   8
ENDBRANCH   1   2
BRANCH   1  19
ATOM     17  C   UNL     1      46.959   4.080  14.545  0.00  0.00    +0.000 C 
ATOM     18  O   UNL     1      47.420   2.988  14.224  0.00  0.00    +0.000 OA
ATOM     19  N   UNL     1      46.831   4.438  15.861  0.00  0.00    +0.000 N 
ATOM     20  H   UNL     1      46.545   5.374  16.105  0.00  0.00    +0.000 HD
BRANCH  17  28
ATOM     21  C   UNL     1      47.607   7.416  14.016  0.00  0.00    +0.000 A 
ATOM     22  N   UNL     1      47.637   8.705  13.620  0.00  0.00    +0.000 NA
ATOM     23  C   UNL     1      46.877   9.060  12.581  0.00  0.00    +0.000 A 
ATOM     24  N   UNL     1      46.077   8.274  11.865  0.00  0.00    +0.000 NA
ATOM     25  C   UNL     1      46.079   6.998  12.291  0.00  0.00    +0.000 A 
ATOM     26  S   UNL     1      45.125   5.847  11.487  0.00  0.00    +0.000 S 
ATOM     27  C   UNL     1      45.622   4.620  12.551  0.00  0.00    +0.000 A 
ATOM     28  C   UNL     1      46.509   5.048  13.533  0.00  0.00    +0.000 A 
ATOM     29  C   UNL     1      46.799   6.472  13.359  0.00  0.00    +0.000 A 
BRANCH  21  31
ATOM     30  C   UNL     1      49.831   7.275  14.746  0.00  0.00    +0.000 C 
ATOM     31  O   UNL     1      48.455   7.029  15.032  0.00  0.00    +0.000 OA
ENDBRANCH  21  31
ENDBRANCH  17  28
ENDBRANCH   1  19
TORSDOF 7
ENDMDL
