MODEL 1
REMARK VINA RESULT:    -8.954      0.000      0.000
REMARK INTER + INTRA:         -11.835
REMARK INTER:                 -12.095
REMARK INTRA:                   0.260
REMARK UNBOUND:                 0.260
REMARK  Name = 
REMARK  7 active torsions:
REMARK  status: ('A' for Active; 'I' for Inactive)
REMARK    1  A    between atoms: C_1  and  C_2
REMARK    2  A    between atoms: C_2  and  C_3
REMARK    3  A    between atoms: C_2  and  C_24
REMARK    4  A    between atoms: C_3  and  N_4
REMARK    5  A    between atoms: C_7  and  C_8
REMARK    6  A    between atoms: C_8  and  N_9
REMARK    7  A    between atoms: C_10  and  C_12
REMARK                            x       y       z     vdW  Elec       q    Type
REMARK                         _______ _______ _______ _____ _____    ______ ____
ROOT
ATOM      1  C   UNL     1      45.495   4.642  13.553  0.00  0.00    +0.000 C 
ENDROOT
BRANCH   1   5
ATOM      2  N   UNL     1      43.930   5.111  10.262  0.00  0.00    +0.000 NA
ATOM      3  C   UNL     1      43.271   4.379  11.348  0.00  0.00    +0.000 C 
ATOM      4  C   UNL     1      43.152   5.206  12.631  0.00  0.00    +0.000 C 
ATOM      5  C   UNL     1      44.510   5.741  13.100  0.00  0.00    +0.000 C 
ATOM      6  C   UNL     1      45.107   6.549  11.938  0.00  0.00    +0.000 C 
ATOM      7  C   UNL     1      45.211   5.722  10.651  0.00  0.00    +0.000 C 
BRANCH   2   8
ATOM      8  C   UNL     1      44.090   4.314   9.018  0.00  0.00    +0.000 C 
BRANCH   8  10
ATOM      9  C   UNL     1      45.004   2.549  10.648  0.00  0.00    +0.000 C 
ATOM     10  C   UNL     1      44.542   2.844   9.210  0.00  0.00    +0.000 C 
BRANCH  10  11
ATOM     11  C   UNL     1      45.674   2.460   8.277  0.00  0.00    +0.000 A 
ATOM     12  C   UNL     1      46.125   3.373   7.328  0.00  0.00    +0.000 A 
ATOM     13  C   UNL     1      47.070   2.964   6.398  0.00  0.00    +0.000 A 
ATOM     14  C   UNL     1      47.546   1.659   6.440  0.00  0.00    +0.000 A 
ATOM     15  C   UNL     1      47.060   0.818   7.427  0.00  0.00    +0.000 A 
ATOM     16  N   UNL     1      46.141   1.186   8.342  0.00  0.00    +0.000 NA
ENDBRANCH  10  11
ENDBRANCH   8  10
ENDBRANCH   2   8
ENDBRANCH   1   5
BRANCH   1  17
ATOM     17  N   UNL     1      46.322   5.036  14.670  0.00  0.00    +0.000 N 
ATOM     18  C   UNL     1      47.637   5.389  14.502  0.00  0.00    +0.000 C 
ATOM     19  O   UNL     1      48.175   5.418  13.395  0.00  0.00    +0.000 OA
ATOM     20  H   UNL     1      46.006   4.769  15.600  0.00  0.00    +0.000 HD
BRANCH  18  21
ATOM     21  C   UNL     1      48.364   5.791  15.705  0.00  0.00    +0.000 A 
ATOM     22  C   UNL     1      49.277   6.834  15.642  0.00  0.00    +0.000 A 
ATOM     23  S   UNL     1      50.009   7.187  17.141  0.00  0.00    +0.000 S 
ATOM     24  C   UNL     1      49.166   5.925  17.910  0.00  0.00    +0.000 A 
ATOM     25  N   UNL     1      49.358   5.654  19.228  0.00  0.00    +0.000 NA
ATOM     26  C   UNL     1      48.681   4.646  19.669  0.00  0.00    +0.000 A 
ATOM     27  N   UNL     1      47.820   3.892  18.916  0.00  0.00    +0.000 N 
ATOM     28  C   UNL     1      47.567   4.148  17.589  0.00  0.00    +0.000 A 
ATOM     29  O   UNL     1      46.749   3.492  16.955  0.00  0.00    +0.000 OA
ATOM     30  C   UNL     1      48.320   5.259  17.041  0.00  0.00    +0.000 A 
ATOM     31  H   UNL     1      47.311   3.123  19.326  0.00  0.00    +0.000 HD
ENDBRANCH  18  21
ENDBRANCH   1  17
TORSDOF 6
ENDMDL
MODEL 2
REMARK VINA RESULT:    -8.899      1.280      2.001
REMARK INTER + INTRA:         -11.760
REMARK INTER:                 -11.995
REMARK INTRA:                   0.235
REMARK UNBOUND:                 0.260
REMARK  Name = 
REMARK  7 active torsions:
REMARK  status: ('A' for Active; 'I' for Inactive)
REMARK    1  A    between atoms: C_1  and  C_2
REMARK    2  A    between atoms: C_2  and  C_3
REMARK    3  A    between atoms: C_2  and  C_24
REMARK    4  A    between atoms: C_3  and  N_4
REMARK    5  A    between atoms: C_7  and  C_8
REMARK    6  A    between atoms: C_8  and  N_9
REMARK    7  A    between atoms: C_10  and  C_12
REMARK                            x       y       z     vdW  Elec       q    Type
REMARK                         _______ _______ _______ _____ _____    ______ ____
ROOT
ATOM      1  C   UNL     1      45.691   4.652  13.529  0.00  0.00    +0.000 C 
ENDROOT
BRANCH   1   5
ATOM      2  N   UNL     1      44.114   5.251  10.265  0.00  0.00    +0.000 NA
ATOM      3  C   UNL     1      43.389   4.652  11.390  0.00  0.00    +0.000 C 
ATOM      4  C   UNL     1      43.427   5.523  12.649  0.00  0.00    +0.000 C 
ATOM      5  C   UNL     1      44.861   5.868  13.066  0.00  0.00    +0.000 C 
ATOM      6  C   UNL     1      45.534   6.550  11.865  0.00  0.00    +0.000 C 
ATOM      7  C   UNL     1      45.480   5.681  10.602  0.00  0.00    +0.000 C 
BRANCH   2   8
ATOM      8  C   UNL     1      44.122   4.407   9.042  0.00  0.00    +0.000 C 
BRANCH   8  10
ATOM      9  C   UNL     1      44.927   2.614  10.700  0.00  0.00    +0.000 C 
ATOM     10  C   UNL     1      44.512   2.920   9.250  0.00  0.00    +0.000 C 
BRANCH  10  11
ATOM     11  C   UNL     1      45.651   2.490   8.347  0.00  0.00    +0.000 A 
ATOM     12  C   UNL     1      46.194   3.398   7.441  0.00  0.00    +0.000 A 
ATOM     13  C   UNL     1      47.145   2.954   6.534  0.00  0.00    +0.000 A 
ATOM     14  C   UNL     1      47.535   1.620   6.554  0.00  0.00    +0.000 A 
ATOM     15  C   UNL     1      46.960   0.785   7.497  0.00  0.00    +0.000 A 
ATOM     16  N   UNL     1      46.033   1.187   8.390  0.00  0.00    +0.000 NA
ENDBRANCH  10  11
ENDBRANCH   8  10
ENDBRANCH   2   8
ENDBRANCH   1   5
BRANCH   1  17
ATOM     17  N   UNL     1      46.408   4.880  14.761  0.00  0.00    +0.000 N 
ATOM     18  C   UNL     1      47.291   3.956  15.261  0.00  0.00    +0.000 C 
ATOM     19  O   UNL     1      47.541   2.901  14.677  0.00  0.00    +0.000 OA
ATOM     20  H   UNL     1      46.038   5.587  15.393  0.00  0.00    +0.000 HD
BRANCH  18  21
ATOM     21  C   UNL     1      47.975   4.311  16.504  0.00  0.00    +0.000 A 
ATOM     22  C   UNL     1      47.795   3.530  17.636  0.00  0.00    +0.000 A 
ATOM     23  S   UNL     1      48.690   4.072  18.983  0.00  0.00    +0.000 S 
ATOM     24  C   UNL     1      49.306   5.396  18.109  0.00  0.00    +0.000 A 
ATOM     25  N   UNL     1      50.134   6.301  18.695  0.00  0.00    +0.000 NA
ATOM     26  C   UNL     1      50.493   7.273  17.924  0.00  0.00    +0.000 A 
ATOM     27  N   UNL     1      50.109   7.416  16.617  0.00  0.00    +0.000 N 
ATOM     28  C   UNL     1      49.301   6.511  15.970  0.00  0.00    +0.000 A 
ATOM     29  O   UNL     1      49.021   6.636  14.784  0.00  0.00    +0.000 OA
ATOM     30  C   UNL     1      48.854   5.411  16.801  0.00  0.00    +0.000 A 
ATOM     31  H   UNL     1      50.437   8.195  16.064  0.00  0.00    +0.000 HD
ENDBRANCH  18  21
ENDBRANCH   1  17
TORSDOF 6
ENDMDL
MODEL 3
REMARK VINA RESULT:    -8.295      3.080      8.304
REMARK INTER + INTRA:         -10.944
REMARK INTER:                  -9.734
REMARK INTRA:                  -1.211
REMARK UNBOUND:                 0.260
REMARK  Name = 
REMARK  7 active torsions:
REMARK  status: ('A' for Active; 'I' for Inactive)
REMARK    1  A    between atoms: C_1  and  C_2
REMARK    2  A    between atoms: C_2  and  C_3
REMARK    3  A    between atoms: C_2  and  C_24
REMARK    4  A    between atoms: C_3  and  N_4
REMARK    5  A    between atoms: C_7  and  C_8
REMARK    6  A    between atoms: C_8  and  N_9
REMARK    7  A    between atoms: C_10  and  C_12
REMARK                            x       y       z     vdW  Elec       q    Type
REMARK                         _______ _______ _______ _____ _____    ______ ____
ROOT
ATOM      1  C   UNL     1      46.068   8.126  13.044  0.00  0.00    +0.000 C 
ENDROOT
BRANCH   1   5
ATOM      2  N   UNL     1      49.589   7.766  14.031  0.00  0.00    +0.000 NA
ATOM      3  C   UNL     1      48.931   6.831  13.113  0.00  0.00    +0.000 C 
ATOM      4  C   UNL     1      48.305   7.532  11.903  0.00  0.00    +0.000 C 
ATOM      5  C   UNL     1      47.331   8.640  12.321  0.00  0.00    +0.000 C 
ATOM      6  C   UNL     1      48.106   9.612  13.222  0.00  0.00    +0.000 C 
ATOM      7  C   UNL     1      48.744   8.905  14.424  0.00  0.00    +0.000 C 
BRANCH   2   8
ATOM      8  C   UNL     1      50.172   7.112  15.231  0.00  0.00    +0.000 C 
BRANCH   8  10
ATOM      9  C   UNL     1      49.719   7.472  17.736  0.00  0.00    +0.000 C 
ATOM     10  C   UNL     1      49.198   6.880  16.415  0.00  0.00    +0.000 C 
BRANCH  10  11
ATOM     11  C   UNL     1      48.916   5.409  16.651  0.00  0.00    +0.000 A 
ATOM     12  C   UNL     1      49.768   4.666  17.466  0.00  0.00    +0.000 A 
ATOM     13  C   UNL     1      49.572   3.297  17.569  0.00  0.00    +0.000 A 
ATOM     14  C   UNL     1      48.532   2.702  16.864  0.00  0.00    +0.000 A 
ATOM     15  C   UNL     1      47.719   3.513  16.091  0.00  0.00    +0.000 A 
ATOM     16  N   UNL     1      47.886   4.846  15.970  0.00  0.00    +0.000 NA
ENDBRANCH  10  11
ENDBRANCH   8  10
ENDBRANCH   2   8
ENDBRANCH   1   5
BRANCH   1  17
ATOM     17  N   UNL     1      45.690   6.786  12.661  0.00  0.00    +0.000 N 
ATOM     18  C   UNL     1      44.684   6.553  11.756  0.00  0.00    +0.000 C 
ATOM     19  O   UNL     1      44.072   7.467  11.203  0.00  0.00    +0.000 OA
ATOM     20  H   UNL     1      45.972   6.027  13.278  0.00  0.00    +0.000 HD
BRANCH  18  21
ATOM     21  C   UNL     1      44.410   5.155  11.430  0.00  0.00    +0.000 A 
ATOM     22  C   UNL     1      43.667   4.376  12.305  0.00  0.00    +0.000 A 
ATOM     23  S   UNL     1      43.419   2.782  11.753  0.00  0.00    +0.000 S 
ATOM     24  C   UNL     1      44.339   3.069  10.350  0.00  0.00    +0.000 A 
ATOM     25  N   UNL     1      44.554   2.083   9.439  0.00  0.00    +0.000 NA
ATOM     26  C   UNL     1      45.301   2.432   8.444  0.00  0.00    +0.000 A 
ATOM     27  N   UNL     1      45.842   3.678   8.271  0.00  0.00    +0.000 N 
ATOM     28  C   UNL     1      45.626   4.716   9.147  0.00  0.00    +0.000 A 
ATOM     29  O   UNL     1      46.076   5.836   8.936  0.00  0.00    +0.000 OA
ATOM     30  C   UNL     1      44.809   4.368  10.293  0.00  0.00    +0.000 A 
ATOM     31  H   UNL     1      46.408   3.889   7.462  0.00  0.00    +0.000 HD
ENDBRANCH  18  21
ENDBRANCH   1  17
TORSDOF 6
ENDMDL
MODEL 4
REMARK VINA RESULT:    -8.087      2.620      3.805
REMARK INTER + INTRA:         -10.664
REMARK INTER:                  -9.733
REMARK INTRA:                  -0.932
REMARK UNBOUND:                 0.260
REMARK  Name = 
REMARK  7 active torsions:
REMARK  status: ('A' for Active; 'I' for Inactive)
REMARK    1  A    between atoms: C_1  and  C_2
REMARK    2  A    between atoms: C_2  and  C_3
REMARK    3  A    between atoms: C_2  and  C_24
REMARK    4  A    between atoms: C_3  and  N_4
REMARK    5  A    between atoms: C_7  and  C_8
REMARK    6  A    between atoms: C_8  and  N_9
REMARK    7  A    between atoms: C_10  and  C_12
REMARK                            x       y       z     vdW  Elec       q    Type
REMARK                         _______ _______ _______ _____ _____    ______ ____
ROOT
ATOM      1  C   UNL     1      48.551   7.438  15.229  0.00  0.00    +0.000 C 
ENDROOT
BRANCH   1   5
ATOM      2  N   UNL     1      46.204   6.372  12.611  0.00  0.00    +0.000 NA
ATOM      3  C   UNL     1      46.164   7.713  13.204  0.00  0.00    +0.000 C 
ATOM      4  C   UNL     1      47.504   8.446  13.097  0.00  0.00    +0.000 C 
ATOM      5  C   UNL     1      48.655   7.633  13.702  0.00  0.00    +0.000 C 
ATOM      6  C   UNL     1      48.676   6.273  12.988  0.00  0.00    +0.000 C 
ATOM      7  C   UNL     1      47.328   5.549  13.083  0.00  0.00    +0.000 C 
BRANCH   2   8
ATOM      8  C   UNL     1      44.925   5.627  12.735  0.00  0.00    +0.000 C 
BRANCH   8  10
ATOM      9  C   UNL     1      42.591   5.166  11.761  0.00  0.00    +0.000 C 
ATOM     10  C   UNL     1      44.041   5.585  11.462  0.00  0.00    +0.000 C 
BRANCH  10  11
ATOM     11  C   UNL     1      44.584   4.636  10.411  0.00  0.00    +0.000 A 
ATOM     12  C   UNL     1      45.455   5.114   9.434  0.00  0.00    +0.000 A 
ATOM     13  C   UNL     1      45.840   4.267   8.406  0.00  0.00    +0.000 A 
ATOM     14  C   UNL     1      45.355   2.965   8.378  0.00  0.00    +0.000 A 
ATOM     15  C   UNL     1      44.508   2.561   9.396  0.00  0.00    +0.000 A 
ATOM     16  N   UNL     1      44.114   3.363  10.407  0.00  0.00    +0.000 NA
ENDBRANCH  10  11
ENDBRANCH   8  10
ENDBRANCH   2   8
ENDBRANCH   1   5
BRANCH   1  17
ATOM     17  N   UNL     1      49.629   6.653  15.783  0.00  0.00    +0.000 N 
ATOM     18  C   UNL     1      49.468   5.917  16.930  0.00  0.00    +0.000 C 
ATOM     19  O   UNL     1      48.394   5.861  17.531  0.00  0.00    +0.000 OA
ATOM     20  H   UNL     1      50.575   6.882  15.484  0.00  0.00    +0.000 HD
BRANCH  18  21
ATOM     21  C   UNL     1      50.625   5.145  17.380  0.00  0.00    +0.000 A 
ATOM     22  C   UNL     1      51.739   5.801  17.880  0.00  0.00    +0.000 A 
ATOM     23  S   UNL     1      52.980   4.746  18.384  0.00  0.00    +0.000 S 
ATOM     24  C   UNL     1      52.086   3.380  17.903  0.00  0.00    +0.000 A 
ATOM     25  N   UNL     1      52.596   2.126  18.031  0.00  0.00    +0.000 NA
ATOM     26  C   UNL     1      51.824   1.189  17.591  0.00  0.00    +0.000 A 
ATOM     27  N   UNL     1      50.583   1.390  17.045  0.00  0.00    +0.000 N 
ATOM     28  C   UNL     1      50.011   2.635  16.925  0.00  0.00    +0.000 A 
ATOM     29  O   UNL     1      48.876   2.778  16.485  0.00  0.00    +0.000 OA
ATOM     30  C   UNL     1      50.849   3.723  17.387  0.00  0.00    +0.000 A 
ATOM     31  H   UNL     1      50.024   0.610  16.731  0.00  0.00    +0.000 HD
ENDBRANCH  18  21
ENDBRANCH   1  17
TORSDOF 6
ENDMDL
MODEL 5
REMARK VINA RESULT:    -7.970      3.462      8.918
REMARK INTER + INTRA:         -10.505
REMARK INTER:                  -9.248
REMARK INTRA:                  -1.257
REMARK UNBOUND:                 0.260
REMARK  Name = 
REMARK  7 active torsions:
REMARK  status: ('A' for Active; 'I' for Inactive)
REMARK    1  A    between atoms: C_1  and  C_2
REMARK    2  A    between atoms: C_2  and  C_3
REMARK    3  A    between atoms: C_2  and  C_24
REMARK    4  A    between atoms: C_3  and  N_4
REMARK    5  A    between atoms: C_7  and  C_8
REMARK    6  A    between atoms: C_8  and  N_9
REMARK    7  A    between atoms: C_10  and  C_12
REMARK                            x       y       z     vdW  Elec       q    Type
REMARK                         _______ _______ _______ _____ _____    ______ ____
ROOT
ATOM      1  C   UNL     1      48.612   5.855  15.715  0.00  0.00    +0.000 C 
ENDROOT
BRANCH   1   5
ATOM      2  N   UNL     1      51.461   6.899  17.786  0.00  0.00    +0.000 NA
ATOM      3  C   UNL     1      51.560   6.753  16.330  0.00  0.00    +0.000 C 
ATOM      4  C   UNL     1      50.519   7.589  15.580  0.00  0.00    +0.000 C 
ATOM      5  C   UNL     1      49.091   7.284  16.049  0.00  0.00    +0.000 C 
ATOM      6  C   UNL     1      49.048   7.522  17.566  0.00  0.00    +0.000 C 
ATOM      7  C   UNL     1      50.102   6.695  18.311  0.00  0.00    +0.000 C 
BRANCH   2   8
ATOM      8  C   UNL     1      52.439   6.068  18.536  0.00  0.00    +0.000 C 
BRANCH   8  10
ATOM      9  C   UNL     1      52.500   4.678  20.697  0.00  0.00    +0.000 C 
ATOM     10  C   UNL     1      51.847   4.867  19.317  0.00  0.00    +0.000 C 
BRANCH  10  11
ATOM     11  C   UNL     1      51.985   3.560  18.562  0.00  0.00    +0.000 A 
ATOM     12  C   UNL     1      50.936   3.111  17.763  0.00  0.00    +0.000 A 
ATOM     13  C   UNL     1      51.026   1.854  17.182  0.00  0.00    +0.000 A 
ATOM     14  C   UNL     1      52.158   1.079  17.406  0.00  0.00    +0.000 A 
ATOM     15  C   UNL     1      53.164   1.606  18.197  0.00  0.00    +0.000 A 
ATOM     16  N   UNL     1      53.105   2.823  18.777  0.00  0.00    +0.000 NA
ENDBRANCH  10  11
ENDBRANCH   8  10
ENDBRANCH   2   8
ENDBRANCH   1   5
BRANCH   1  17
ATOM     17  N   UNL     1      47.434   5.823  14.881  0.00  0.00    +0.000 N 
ATOM     18  C   UNL     1      47.509   6.002  13.522  0.00  0.00    +0.000 C 
ATOM     19  O   UNL     1      48.580   6.169  12.938  0.00  0.00    +0.000 OA
ATOM     20  H   UNL     1      46.535   5.959  15.338  0.00  0.00    +0.000 HD
BRANCH  18  21
ATOM     21  C   UNL     1      46.250   5.924  12.782  0.00  0.00    +0.000 A 
ATOM     22  C   UNL     1      45.676   7.080  12.275  0.00  0.00    +0.000 A 
ATOM     23  S   UNL     1      44.230   6.801  11.416  0.00  0.00    +0.000 S 
ATOM     24  C   UNL     1      44.299   5.131  11.738  0.00  0.00    +0.000 A 
ATOM     25  N   UNL     1      43.323   4.291  11.303  0.00  0.00    +0.000 NA
ATOM     26  C   UNL     1      43.486   3.058  11.653  0.00  0.00    +0.000 A 
ATOM     27  N   UNL     1      44.542   2.586  12.386  0.00  0.00    +0.000 N 
ATOM     28  C   UNL     1      45.571   3.390  12.820  0.00  0.00    +0.000 A 
ATOM     29  O   UNL     1      46.531   2.930  13.426  0.00  0.00    +0.000 OA
ATOM     30  C   UNL     1      45.422   4.789  12.470  0.00  0.00    +0.000 A 
ATOM     31  H   UNL     1      44.616   1.606  12.615  0.00  0.00    +0.000 HD
ENDBRANCH  18  21
ENDBRANCH   1  17
TORSDOF 6
ENDMDL
MODEL 6
REMARK VINA RESULT:    -7.919      3.341      8.203
REMARK INTER + INTRA:         -10.437
REMARK INTER:                  -9.343
REMARK INTRA:                  -1.095
REMARK UNBOUND:                 0.260
REMARK  Name = 
REMARK  7 active torsions:
REMARK  status: ('A' for Active; 'I' for Inactive)
REMARK    1  A    between atoms: C_1  and  C_2
REMARK    2  A    between atoms: C_2  and  C_3
REMARK    3  A    between atoms: C_2  and  C_24
REMARK    4  A    between atoms: C_3  and  N_4
REMARK    5  A    between atoms: C_7  and  C_8
REMARK    6  A    between atoms: C_8  and  N_9
REMARK    7  A    between atoms: C_10  and  C_12
REMARK                            x       y       z     vdW  Elec       q    Type
REMARK                         _______ _______ _______ _____ _____    ______ ____
ROOT
ATOM      1  C   UNL     1      49.824   7.408  13.983  0.00  0.00    +0.000 C 
ENDROOT
BRANCH   1   5
ATOM      2  N   UNL     1      49.606   8.250  17.552  0.00  0.00    +0.000 NA
ATOM      3  C   UNL     1      50.888   8.028  16.874  0.00  0.00    +0.000 C 
ATOM      4  C   UNL     1      51.073   8.931  15.650  0.00  0.00    +0.000 C 
ATOM      5  C   UNL     1      49.915   8.794  14.655  0.00  0.00    +0.000 C 
ATOM      6  C   UNL     1      48.618   9.105  15.418  0.00  0.00    +0.000 C 
ATOM      7  C   UNL     1      48.444   8.210  16.651  0.00  0.00    +0.000 C 
BRANCH   2   8
ATOM      8  C   UNL     1      49.389   7.360  18.722  0.00  0.00    +0.000 C 
BRANCH   8  10
ATOM      9  C   UNL     1      47.430   6.515  20.156  0.00  0.00    +0.000 C 
ATOM     10  C   UNL     1      48.041   6.593  18.746  0.00  0.00    +0.000 C 
BRANCH  10  11
ATOM     11  C   UNL     1      48.173   5.176  18.225  0.00  0.00    +0.000 A 
ATOM     12  C   UNL     1      49.439   4.621  18.047  0.00  0.00    +0.000 A 
ATOM     13  C   UNL     1      49.547   3.375  17.448  0.00  0.00    +0.000 A 
ATOM     14  C   UNL     1      48.394   2.709  17.048  0.00  0.00    +0.000 A 
ATOM     15  C   UNL     1      47.174   3.320  17.277  0.00  0.00    +0.000 A 
ATOM     16  N   UNL     1      47.037   4.532  17.854  0.00  0.00    +0.000 NA
ENDBRANCH  10  11
ENDBRANCH   8  10
ENDBRANCH   2   8
ENDBRANCH   1   5
BRANCH   1  17
ATOM     17  N   UNL     1      48.571   7.178  13.303  0.00  0.00    +0.000 N 
ATOM     18  C   UNL     1      47.733   6.154  13.665  0.00  0.00    +0.000 C 
ATOM     19  O   UNL     1      47.986   5.396  14.602  0.00  0.00    +0.000 OA
ATOM     20  H   UNL     1      48.459   7.593  12.380  0.00  0.00    +0.000 HD
BRANCH  18  21
ATOM     21  C   UNL     1      46.482   6.038  12.918  0.00  0.00    +0.000 A 
ATOM     22  C   UNL     1      45.871   7.178  12.415  0.00  0.00    +0.000 A 
ATOM     23  S   UNL     1      44.440   6.854  11.546  0.00  0.00    +0.000 S 
ATOM     24  C   UNL     1      44.565   5.186  11.858  0.00  0.00    +0.000 A 
ATOM     25  N   UNL     1      43.620   4.316  11.412  0.00  0.00    +0.000 NA
ATOM     26  C   UNL     1      43.823   3.087  11.754  0.00  0.00    +0.000 A 
ATOM     27  N   UNL     1      44.891   2.647  12.491  0.00  0.00    +0.000 N 
ATOM     28  C   UNL     1      45.889   3.482  12.936  0.00  0.00    +0.000 A 
ATOM     29  O   UNL     1      46.862   3.051  13.544  0.00  0.00    +0.000 OA
ATOM     30  C   UNL     1      45.695   4.878  12.594  0.00  0.00    +0.000 A 
ATOM     31  H   UNL     1      44.998   1.668  12.714  0.00  0.00    +0.000 HD
ENDBRANCH  18  21
ENDBRANCH   1  17
TORSDOF 6
ENDMDL
MODEL 7
REMARK VINA RESULT:    -7.901      3.150      8.975
REMARK INTER + INTRA:         -10.412
REMARK INTER:                  -9.218
REMARK INTRA:                  -1.194
REMARK UNBOUND:                 0.260
REMARK  Name = 
REMARK  7 active torsions:
REMARK  status: ('A' for Active; 'I' for Inactive)
REMARK    1  A    between atoms: C_1  and  C_2
REMARK    2  A    between atoms: C_2  and  C_3
REMARK    3  A    between atoms: C_2  and  C_24
REMARK    4  A    between atoms: C_3  and  N_4
REMARK    5  A    between atoms: C_7  and  C_8
REMARK    6  A    between atoms: C_8  and  N_9
REMARK    7  A    between atoms: C_10  and  C_12
REMARK                            x       y       z     vdW  Elec       q    Type
REMARK                         _______ _______ _______ _____ _____    ______ ____
ROOT
ATOM      1  C   UNL     1      48.085   5.012  16.027  0.00  0.00    +0.000 C 
ENDROOT
BRANCH   1   5
ATOM      2  N   UNL     1      49.890   4.483  19.183  0.00  0.00    +0.000 NA
ATOM      3  C   UNL     1      49.161   5.722  18.893  0.00  0.00    +0.000 C 
ATOM      4  C   UNL     1      47.693   5.473  18.535  0.00  0.00    +0.000 C 
ATOM      5  C   UNL     1      47.543   4.485  17.372  0.00  0.00    +0.000 C 
ATOM      6  C   UNL     1      48.272   3.194  17.775  0.00  0.00    +0.000 C 
ATOM      7  C   UNL     1      49.738   3.449  18.147  0.00  0.00    +0.000 C 
BRANCH   2   8
ATOM      8  C   UNL     1      51.327   4.697  19.497  0.00  0.00    +0.000 C 
BRANCH   8  10
ATOM      9  C   UNL     1      53.379   3.151  19.431  0.00  0.00    +0.000 C 
ATOM     10  C   UNL     1      52.336   3.925  18.608  0.00  0.00    +0.000 C 
BRANCH  10  11
ATOM     11  C   UNL     1      53.086   4.837  17.658  0.00  0.00    +0.000 A 
ATOM     12  C   UNL     1      52.416   5.890  17.039  0.00  0.00    +0.000 A 
ATOM     13  C   UNL     1      53.081   6.635  16.076  0.00  0.00    +0.000 A 
ATOM     14  C   UNL     1      54.396   6.318  15.757  0.00  0.00    +0.000 A 
ATOM     15  C   UNL     1      54.997   5.268  16.431  0.00  0.00    +0.000 A 
ATOM     16  N   UNL     1      54.376   4.525  17.370  0.00  0.00    +0.000 NA
ENDBRANCH  10  11
ENDBRANCH   8  10
ENDBRANCH   2   8
ENDBRANCH   1   5
BRANCH   1  17
ATOM     17  N   UNL     1      47.056   5.229  15.037  0.00  0.00    +0.000 N 
ATOM     18  C   UNL     1      47.344   5.759  13.804  0.00  0.00    +0.000 C 
ATOM     19  O   UNL     1      48.491   6.050  13.464  0.00  0.00    +0.000 OA
ATOM     20  H   UNL     1      46.093   5.260  15.365  0.00  0.00    +0.000 HD
BRANCH  18  21
ATOM     21  C   UNL     1      46.221   5.909  12.880  0.00  0.00    +0.000 A 
ATOM     22  C   UNL     1      45.831   7.175  12.470  0.00  0.00    +0.000 A 
ATOM     23  S   UNL     1      44.527   7.162  11.370  0.00  0.00    +0.000 S 
ATOM     24  C   UNL     1      44.412   5.465  11.447  0.00  0.00    +0.000 A 
ATOM     25  N   UNL     1      43.457   4.795  10.749  0.00  0.00    +0.000 NA
ATOM     26  C   UNL     1      43.463   3.516  10.932  0.00  0.00    +0.000 A 
ATOM     27  N   UNL     1      44.344   2.845  11.738  0.00  0.00    +0.000 N 
ATOM     28  C   UNL     1      45.348   3.475  12.437  0.00  0.00    +0.000 A 
ATOM     29  O   UNL     1      46.157   2.843  13.106  0.00  0.00    +0.000 OA
ATOM     30  C   UNL     1      45.369   4.916  12.281  0.00  0.00    +0.000 A 
ATOM     31  H   UNL     1      44.303   1.840  11.827  0.00  0.00    +0.000 HD
ENDBRANCH  18  21
ENDBRANCH   1  17
TORSDOF 6
ENDMDL
MODEL 8
REMARK VINA RESULT:    -7.805      3.676      8.280
REMARK INTER + INTRA:         -10.282
REMARK INTER:                  -9.266
REMARK INTRA:                  -1.017
REMARK UNBOUND:                 0.260
REMARK  Name = 
REMARK  7 active torsions:
REMARK  status: ('A' for Active; 'I' for Inactive)
REMARK    1  A    between atoms: C_1  and  C_2
REMARK    2  A    between atoms: C_2  and  C_3
REMARK    3  A    between atoms: C_2  and  C_24
REMARK    4  A    between atoms: C_3  and  N_4
REMARK    5  A    between atoms: C_7  and  C_8
REMARK    6  A    between atoms: C_8  and  N_9
REMARK    7  A    between atoms: C_10  and  C_12
REMARK                            x       y       z     vdW  Elec       q    Type
REMARK                         _______ _______ _______ _____ _____    ______ ____
ROOT
ATOM      1  C   UNL     1      47.644   3.399  16.247  0.00  0.00    +0.000 C 
ENDROOT
BRANCH   1   5
ATOM      2  N   UNL     1      49.614   5.589  18.442  0.00  0.00    +0.000 NA
ATOM      3  C   UNL     1      48.385   6.040  17.781  0.00  0.00    +0.000 C 
ATOM      4  C   UNL     1      47.184   5.143  18.092  0.00  0.00    +0.000 C 
ATOM      5  C   UNL     1      47.460   3.673  17.754  0.00  0.00    +0.000 C 
ATOM      6  C   UNL     1      48.717   3.255  18.532  0.00  0.00    +0.000 C 
ATOM      7  C   UNL     1      49.914   4.165  18.229  0.00  0.00    +0.000 C 
BRANCH   2   8
ATOM      8  C   UNL     1      50.802   6.424  18.125  0.00  0.00    +0.000 C 
BRANCH   8  10
ATOM      9  C   UNL     1      52.977   6.039  16.810  0.00  0.00    +0.000 C 
ATOM     10  C   UNL     1      51.447   6.182  16.736  0.00  0.00    +0.000 C 
BRANCH  10  11
ATOM     11  C   UNL     1      51.138   7.295  15.753  0.00  0.00    +0.000 A 
ATOM     12  C   UNL     1      51.758   8.535  15.898  0.00  0.00    +0.000 A 
ATOM     13  C   UNL     1      51.369   9.580  15.073  0.00  0.00    +0.000 A 
ATOM     14  C   UNL     1      50.379   9.364  14.121  0.00  0.00    +0.000 A 
ATOM     15  C   UNL     1      49.826   8.099  14.029  0.00  0.00    +0.000 A 
ATOM     16  N   UNL     1      50.181   7.064  14.819  0.00  0.00    +0.000 NA
ENDBRANCH  10  11
ENDBRANCH   8  10
ENDBRANCH   2   8
ENDBRANCH   1   5
BRANCH   1  17
ATOM     17  N   UNL     1      47.004   4.379  15.401  0.00  0.00    +0.000 N 
ATOM     18  C   UNL     1      46.690   4.106  14.094  0.00  0.00    +0.000 C 
ATOM     19  O   UNL     1      46.907   3.009  13.579  0.00  0.00    +0.000 OA
ATOM     20  H   UNL     1      47.056   5.353  15.694  0.00  0.00    +0.000 HD
BRANCH  18  21
ATOM     21  C   UNL     1      46.022   5.171  13.346  0.00  0.00    +0.000 A 
ATOM     22  C   UNL     1      46.655   6.392  13.172  0.00  0.00    +0.000 A 
ATOM     23  S   UNL     1      45.746   7.503  12.252  0.00  0.00    +0.000 S 
ATOM     24  C   UNL     1      44.456   6.404  12.101  0.00  0.00    +0.000 A 
ATOM     25  N   UNL     1      43.318   6.744  11.440  0.00  0.00    +0.000 NA
ATOM     26  C   UNL     1      42.409   5.826  11.437  0.00  0.00    +0.000 A 
ATOM     27  N   UNL     1      42.538   4.595  12.024  0.00  0.00    +0.000 N 
ATOM     28  C   UNL     1      43.681   4.193  12.675  0.00  0.00    +0.000 A 
ATOM     29  O   UNL     1      43.789   3.065  13.142  0.00  0.00    +0.000 OA
ATOM     30  C   UNL     1      44.725   5.198  12.723  0.00  0.00    +0.000 A 
ATOM     31  H   UNL     1      41.792   3.916  11.974  0.00  0.00    +0.000 HD
ENDBRANCH  18  21
ENDBRANCH   1  17
TORSDOF 6
ENDMDL
MODEL 9
REMARK VINA RESULT:    -7.692      1.640      2.722
REMARK INTER + INTRA:         -10.131
REMARK INTER:                  -9.489
REMARK INTRA:                  -0.642
REMARK UNBOUND:                 0.260
REMARK  Name = 
REMARK  7 active torsions:
REMARK  status: ('A' for Active; 'I' for Inactive)
REMARK    1  A    between atoms: C_1  and  C_2
REMARK    2  A    between atoms: C_2  and  C_3
REMARK    3  A    between atoms: C_2  and  C_24
REMARK    4  A    between atoms: C_3  and  N_4
REMARK    5  A    between atoms: C_7  and  C_8
REMARK    6  A    between atoms: C_8  and  N_9
REMARK    7  A    between atoms: C_10  and  C_12
REMARK                            x       y       z     vdW  Elec       q    Type
REMARK                         _______ _______ _______ _____ _____    ______ ____
ROOT
ATOM      1  C   UNL     1      47.580   7.641  13.923  0.00  0.00    +0.000 C 
ENDROOT
BRANCH   1   5
ATOM      2  N   UNL     1      45.528   5.487  11.767  0.00  0.00    +0.000 NA
ATOM      3  C   UNL     1      46.171   6.708  11.273  0.00  0.00    +0.000 C 
ATOM      4  C   UNL     1      47.684   6.719  11.515  0.00  0.00    +0.000 C 
ATOM      5  C   UNL     1      48.031   6.496  12.992  0.00  0.00    +0.000 C 
ATOM      6  C   UNL     1      47.382   5.171  13.417  0.00  0.00    +0.000 C 
ATOM      7  C   UNL     1      45.871   5.158  13.159  0.00  0.00    +0.000 C 
BRANCH   2   8
ATOM      8  C   UNL     1      44.054   5.470  11.575  0.00  0.00    +0.000 C 
BRANCH   8  10
ATOM      9  C   UNL     1      43.342   3.036  12.000  0.00  0.00    +0.000 C 
ATOM     10  C   UNL     1      43.467   4.170  10.967  0.00  0.00    +0.000 C 
BRANCH  10  11
ATOM     11  C   UNL     1      44.296   3.647   9.810  0.00  0.00    +0.000 A 
ATOM     12  C   UNL     1      44.635   2.296   9.760  0.00  0.00    +0.000 A 
ATOM     13  C   UNL     1      45.500   1.858   8.768  0.00  0.00    +0.000 A 
ATOM     14  C   UNL     1      46.000   2.772   7.849  0.00  0.00    +0.000 A 
ATOM     15  C   UNL     1      45.601   4.092   7.956  0.00  0.00    +0.000 A 
ATOM     16  N   UNL     1      44.763   4.549   8.910  0.00  0.00    +0.000 NA
ENDBRANCH  10  11
ENDBRANCH   8  10
ENDBRANCH   2   8
ENDBRANCH   1   5
BRANCH   1  17
ATOM     17  N   UNL     1      47.961   7.445  15.302  0.00  0.00    +0.000 N 
ATOM     18  C   UNL     1      49.273   7.276  15.669  0.00  0.00    +0.000 C 
ATOM     19  O   UNL     1      50.195   7.311  14.853  0.00  0.00    +0.000 OA
ATOM     20  H   UNL     1      47.235   7.144  15.949  0.00  0.00    +0.000 HD
BRANCH  18  21
ATOM     21  C   UNL     1      49.536   7.111  17.098  0.00  0.00    +0.000 A 
ATOM     22  C   UNL     1      50.320   8.039  17.766  0.00  0.00    +0.000 A 
ATOM     23  S   UNL     1      50.497   7.707  19.429  0.00  0.00    +0.000 S 
ATOM     24  C   UNL     1      49.572   6.285  19.297  0.00  0.00    +0.000 A 
ATOM     25  N   UNL     1      49.357   5.486  20.376  0.00  0.00    +0.000 NA
ATOM     26  C   UNL     1      48.671   4.421  20.122  0.00  0.00    +0.000 A 
ATOM     27  N   UNL     1      48.170   4.088  18.891  0.00  0.00    +0.000 N 
ATOM     28  C   UNL     1      48.333   4.880  17.778  0.00  0.00    +0.000 A 
ATOM     29  O   UNL     1      47.825   4.586  16.702  0.00  0.00    +0.000 OA
ATOM     30  C   UNL     1      49.116   6.079  18.008  0.00  0.00    +0.000 A 
ATOM     31  H   UNL     1      47.630   3.245  18.762  0.00  0.00    +0.000 HD
ENDBRANCH  18  21
ENDBRANCH   1  17
TORSDOF 6
ENDMDL
