MODEL 1
REMARK VINA RESULT:    -8.486      0.000      0.000
REMARK INTER + INTRA:         -12.469
REMARK INTER:                 -11.959
REMARK INTRA:                  -0.510
REMARK UNBOUND:                -0.510
REMARK  Name = 
REMARK  9 active torsions:
REMARK  status: ('A' for Active; 'I' for Inactive)
REMARK    1  A    between atoms: C_1  and  N_2
REMARK    2  A    between atoms: N_2  and  C_3
REMARK    3  A    between atoms: N_2  and  C_4
REMARK    4  A    between atoms: C_4  and  C_5
REMARK    5  A    between atoms: C_5  and  O_6
REMARK    6  A    between atoms: O_6  and  C_7
REMARK    7  A    between atoms: C_10  and  C_11
REMARK    8  A    between atoms: C_11  and  N_12
REMARK    9  A    between atoms: C_16  and  C_17
REMARK                            x       y       z     vdW  Elec       q    Type
REMARK                         _______ _______ _______ _____ _____    ______ ____
ROOT
ATOM      1  C   UNL     1      43.474   4.140  11.050  0.00  0.00    +0.000 C 
ENDROOT
BRANCH   1   2
ATOM      2  N   UNL     1      43.844   4.790   9.809  0.00  0.00    +0.000 N 
ATOM      3  C   UNL     1      44.731   4.033   9.054  0.00  0.00    +0.000 A 
ATOM      4  N   UNL     1      44.665   2.695   9.097  0.00  0.00    +0.000 NA
ATOM      5  C   UNL     1      45.572   2.003   8.373  0.00  0.00    +0.000 A 
ATOM      6  C   UNL     1      46.534   2.599   7.595  0.00  0.00    +0.000 A 
ATOM      7  C   UNL     1      46.524   3.974   7.616  0.00  0.00    +0.000 A 
ATOM      8  N   UNL     1      45.638   4.709   8.333  0.00  0.00    +0.000 NA
ATOM      9  H   UNL     1      44.246   5.715   9.903  0.00  0.00    +0.000 HD
BRANCH   6  10
ATOM     10  C   UNL     1      47.502   1.767   6.868  0.00  0.00    +0.000 C 
ATOM     11  N   UNL     1      48.475   2.390   6.140  0.00  0.00    +0.000 N 
ATOM     12  O   UNL     1      47.423   0.545   6.894  0.00  0.00    +0.000 OA
ATOM     13  H   UNL     1      48.449   3.368   5.884  0.00  0.00    +0.000 HD
ATOM     14  H   UNL     1      49.059   1.784   5.575  0.00  0.00    +0.000 HD
ENDBRANCH   6  10
ENDBRANCH   1   2
BRANCH   1  18
ATOM     15  C   UNL     1      46.666   4.444  13.827  0.00  0.00    +0.000 A 
ATOM     16  C   UNL     1      46.000   5.612  13.494  0.00  0.00    +0.000 A 
ATOM     17  C   UNL     1      44.938   5.534  12.595  0.00  0.00    +0.000 A 
ATOM     18  C   UNL     1      44.566   4.293  12.069  0.00  0.00    +0.000 A 
ATOM     19  C   UNL     1      45.268   3.177  12.510  0.00  0.00    +0.000 A 
ATOM     20  N   UNL     1      46.311   3.228  13.365  0.00  0.00    +0.000 NA
BRANCH  15  21
ATOM     21  O   UNL     1      47.737   4.548  14.699  0.00  0.00    +0.000 OA
BRANCH  21  22
ATOM     22  C   UNL     1      47.314   4.395  16.062  0.00  0.00    +0.000 C 
BRANCH  22  23
ATOM     23  C   UNL     1      48.030   3.197  16.705  0.00  0.00    +0.000 C 
BRANCH  23  25
ATOM     24  C   UNL     1      49.796   4.350  17.878  0.00  0.00    +0.000 C 
ATOM     25  N   UNL     1      49.494   3.368  16.836  0.00  0.00    +0.000 NA
ATOM     26  C   UNL     1      50.178   2.106  17.131  0.00  0.00    +0.000 C 
ENDBRANCH  23  25
ENDBRANCH  22  23
ENDBRANCH  21  22
ENDBRANCH  15  21
ENDBRANCH   1  18
TORSDOF 7
ENDMDL
MODEL 2
REMARK VINA RESULT:    -8.001      1.125      1.488
REMARK INTER + INTRA:         -11.785
REMARK INTER:                 -11.257
REMARK INTRA:                  -0.528
REMARK UNBOUND:                -0.510
REMARK  Name = 
REMARK  9 active torsions:
REMARK  status: ('A' for Active; 'I' for Inactive)
REMARK    1  A    between atoms: C_1  and  N_2
REMARK    2  A    between atoms: N_2  and  C_3
REMARK    3  A    between atoms: N_2  and  C_4
REMARK    4  A    between atoms: C_4  and  C_5
REMARK    5  A    between atoms: C_5  and  O_6
REMARK    6  A    between atoms: O_6  and  C_7
REMARK    7  A    between atoms: C_10  and  C_11
REMARK    8  A    between atoms: C_11  and  N_12
REMARK    9  A    between atoms: C_16  and  C_17
REMARK                            x       y       z     vdW  Elec       q    Type
REMARK                         _______ _______ _______ _____ _____    ______ ____
ROOT
ATOM      1  C   UNL     1      43.666   4.260  11.223  0.00  0.00    +0.000 C 
ENDROOT
BRANCH   1   2
ATOM      2  N   UNL     1      43.889   4.812   9.902  0.00  0.00    +0.000 N 
ATOM      3  C   UNL     1      44.754   4.036   9.139  0.00  0.00    +0.000 A 
ATOM      4  N   UNL     1      44.773   2.706   9.304  0.00  0.00    +0.000 NA
ATOM      5  C   UNL     1      45.655   2.000   8.565  0.00  0.00    +0.000 A 
ATOM      6  C   UNL     1      46.510   2.572   7.654  0.00  0.00    +0.000 A 
ATOM      7  C   UNL     1      46.418   3.941   7.557  0.00  0.00    +0.000 A 
ATOM      8  N   UNL     1      45.553   4.690   8.284  0.00  0.00    +0.000 NA
ATOM      9  H   UNL     1      44.240   5.761   9.879  0.00  0.00    +0.000 HD
BRANCH   6  10
ATOM     10  C   UNL     1      47.462   1.729   6.918  0.00  0.00    +0.000 C 
ATOM     11  N   UNL     1      48.618   2.299   6.467  0.00  0.00    +0.000 N 
ATOM     12  O   UNL     1      47.213   0.551   6.694  0.00  0.00    +0.000 OA
ATOM     13  H   UNL     1      48.769   3.296   6.406  0.00  0.00    +0.000 HD
ATOM     14  H   UNL     1      49.199   1.710   5.880  0.00  0.00    +0.000 HD
ENDBRANCH   6  10
ENDBRANCH   1   2
BRANCH   1  18
ATOM     15  C   UNL     1      46.906   5.147  13.814  0.00  0.00    +0.000 A 
ATOM     16  C   UNL     1      46.644   3.811  13.559  0.00  0.00    +0.000 A 
ATOM     17  C   UNL     1      45.594   3.496  12.698  0.00  0.00    +0.000 A 
ATOM     18  C   UNL     1      44.849   4.523  12.110  0.00  0.00    +0.000 A 
ATOM     19  C   UNL     1      45.230   5.830  12.393  0.00  0.00    +0.000 A 
ATOM     20  N   UNL     1      46.230   6.161  13.236  0.00  0.00    +0.000 NA
BRANCH  15  21
ATOM     21  O   UNL     1      47.935   5.438  14.694  0.00  0.00    +0.000 OA
BRANCH  21  22
ATOM     22  C   UNL     1      47.744   4.775  15.953  0.00  0.00    +0.000 C 
BRANCH  22  23
ATOM     23  C   UNL     1      48.656   5.401  17.020  0.00  0.00    +0.000 C 
BRANCH  23  25
ATOM     24  C   UNL     1      50.595   6.806  16.722  0.00  0.00    +0.000 C 
ATOM     25  N   UNL     1      50.087   5.436  16.646  0.00  0.00    +0.000 NA
ATOM     26  C   UNL     1      50.905   4.557  17.486  0.00  0.00    +0.000 C 
ENDBRANCH  23  25
ENDBRANCH  22  23
ENDBRANCH  21  22
ENDBRANCH  15  21
ENDBRANCH   1  18
TORSDOF 7
ENDMDL
MODEL 3
REMARK VINA RESULT:    -7.849      2.303      2.866
REMARK INTER + INTRA:         -11.572
REMARK INTER:                 -10.869
REMARK INTRA:                  -0.702
REMARK UNBOUND:                -0.510
REMARK  Name = 
REMARK  9 active torsions:
REMARK  status: ('A' for Active; 'I' for Inactive)
REMARK    1  A    between atoms: C_1  and  N_2
REMARK    2  A    between atoms: N_2  and  C_3
REMARK    3  A    between atoms: N_2  and  C_4
REMARK    4  A    between atoms: C_4  and  C_5
REMARK    5  A    between atoms: C_5  and  O_6
REMARK    6  A    between atoms: O_6  and  C_7
REMARK    7  A    between atoms: C_10  and  C_11
REMARK    8  A    between atoms: C_11  and  N_12
REMARK    9  A    between atoms: C_16  and  C_17
REMARK                            x       y       z     vdW  Elec       q    Type
REMARK                         _______ _______ _______ _____ _____    ______ ____
ROOT
ATOM      1  C   UNL     1      43.543   4.321  11.088  0.00  0.00    +0.000 C 
ENDROOT
BRANCH   1   2
ATOM      2  N   UNL     1      43.796   4.788   9.739  0.00  0.00    +0.000 N 
ATOM      3  C   UNL     1      44.670   3.961   9.044  0.00  0.00    +0.000 A 
ATOM      4  N   UNL     1      44.677   2.644   9.292  0.00  0.00    +0.000 NA
ATOM      5  C   UNL     1      45.569   1.888   8.616  0.00  0.00    +0.000 A 
ATOM      6  C   UNL     1      46.446   2.397   7.689  0.00  0.00    +0.000 A 
ATOM      7  C   UNL     1      46.364   3.758   7.505  0.00  0.00    +0.000 A 
ATOM      8  N   UNL     1      45.491   4.556   8.166  0.00  0.00    +0.000 NA
ATOM      9  H   UNL     1      44.154   5.733   9.664  0.00  0.00    +0.000 HD
BRANCH   6  10
ATOM     10  C   UNL     1      47.405   1.505   7.026  0.00  0.00    +0.000 C 
ATOM     11  N   UNL     1      48.519   2.056   6.459  0.00  0.00    +0.000 N 
ATOM     12  O   UNL     1      47.199   0.300   6.962  0.00  0.00    +0.000 OA
ATOM     13  H   UNL     1      48.624   3.043   6.267  0.00  0.00    +0.000 HD
ATOM     14  H   UNL     1      49.103   1.420   5.928  0.00  0.00    +0.000 HD
ENDBRANCH   6  10
ENDBRANCH   1   2
BRANCH   1  18
ATOM     15  C   UNL     1      46.807   5.319  13.607  0.00  0.00    +0.000 A 
ATOM     16  C   UNL     1      46.137   6.363  12.992  0.00  0.00    +0.000 A 
ATOM     17  C   UNL     1      45.052   6.061  12.171  0.00  0.00    +0.000 A 
ATOM     18  C   UNL     1      44.662   4.728  12.004  0.00  0.00    +0.000 A 
ATOM     19  C   UNL     1      45.371   3.762  12.709  0.00  0.00    +0.000 A 
ATOM     20  N   UNL     1      46.435   4.027  13.494  0.00  0.00    +0.000 NA
BRANCH  15  21
ATOM     21  O   UNL     1      47.900   5.639  14.395  0.00  0.00    +0.000 OA
BRANCH  21  22
ATOM     22  C   UNL     1      48.199   7.041  14.324  0.00  0.00    +0.000 C 
BRANCH  22  23
ATOM     23  C   UNL     1      49.721   7.254  14.287  0.00  0.00    +0.000 C 
BRANCH  23  25
ATOM     24  C   UNL     1      49.074   8.366  12.245  0.00  0.00    +0.000 C 
ATOM     25  N   UNL     1      50.206   7.931  13.064  0.00  0.00    +0.000 NA
ATOM     26  C   UNL     1      51.068   9.075  13.366  0.00  0.00    +0.000 C 
ENDBRANCH  23  25
ENDBRANCH  22  23
ENDBRANCH  21  22
ENDBRANCH  15  21
ENDBRANCH   1  18
TORSDOF 7
ENDMDL
MODEL 4
REMARK VINA RESULT:    -6.706      2.124      8.373
REMARK INTER + INTRA:          -9.960
REMARK INTER:                  -9.461
REMARK INTRA:                  -0.499
REMARK UNBOUND:                -0.510
REMARK  Name = 
REMARK  9 active torsions:
REMARK  status: ('A' for Active; 'I' for Inactive)
REMARK    1  A    between atoms: C_1  and  N_2
REMARK    2  A    between atoms: N_2  and  C_3
REMARK    3  A    between atoms: N_2  and  C_4
REMARK    4  A    between atoms: C_4  and  C_5
REMARK    5  A    between atoms: C_5  and  O_6
REMARK    6  A    between atoms: O_6  and  C_7
REMARK    7  A    between atoms: C_10  and  C_11
REMARK    8  A    between atoms: C_11  and  N_12
REMARK    9  A    between atoms: C_16  and  C_17
REMARK                            x       y       z     vdW  Elec       q    Type
REMARK                         _______ _______ _______ _____ _____    ______ ____
ROOT
ATOM      1  C   UNL     1      46.558   5.300  13.926  0.00  0.00    +0.000 C 
ENDROOT
BRANCH   1   2
ATOM      2  N   UNL     1      46.451   4.143  14.792  0.00  0.00    +0.000 N 
ATOM      3  C   UNL     1      47.499   4.059  15.700  0.00  0.00    +0.000 A 
ATOM      4  N   UNL     1      48.059   5.181  16.173  0.00  0.00    +0.000 NA
ATOM      5  C   UNL     1      49.098   5.046  17.026  0.00  0.00    +0.000 A 
ATOM      6  C   UNL     1      49.589   3.831  17.436  0.00  0.00    +0.000 A 
ATOM      7  C   UNL     1      48.951   2.739  16.896  0.00  0.00    +0.000 A 
ATOM      8  N   UNL     1      47.911   2.827  16.032  0.00  0.00    +0.000 NA
ATOM      9  H   UNL     1      46.391   3.249  14.320  0.00  0.00    +0.000 HD
BRANCH   6  10
ATOM     10  C   UNL     1      50.745   3.780  18.341  0.00  0.00    +0.000 C 
ATOM     11  N   UNL     1      51.629   2.747  18.204  0.00  0.00    +0.000 N 
ATOM     12  O   UNL     1      50.899   4.627  19.210  0.00  0.00    +0.000 OA
ATOM     13  H   UNL     1      51.435   1.904  17.683  0.00  0.00    +0.000 HD
ATOM     14  H   UNL     1      52.357   2.694  18.909  0.00  0.00    +0.000 HD
ENDBRANCH   6  10
ENDBRANCH   1   2
BRANCH   1  18
ATOM     15  C   UNL     1      44.900   4.325  10.145  0.00  0.00    +0.000 A 
ATOM     16  C   UNL     1      45.526   5.555  10.266  0.00  0.00    +0.000 A 
ATOM     17  C   UNL     1      46.091   5.891  11.495  0.00  0.00    +0.000 A 
ATOM     18  C   UNL     1      46.027   4.983  12.557  0.00  0.00    +0.000 A 
ATOM     19  C   UNL     1      45.422   3.756  12.312  0.00  0.00    +0.000 A 
ATOM     20  N   UNL     1      44.851   3.415  11.138  0.00  0.00    +0.000 NA
BRANCH  15  21
ATOM     21  O   UNL     1      44.320   4.024   8.924  0.00  0.00    +0.000 OA
BRANCH  21  22
ATOM     22  C   UNL     1      44.871   2.821   8.369  0.00  0.00    +0.000 C 
BRANCH  22  23
ATOM     23  C   UNL     1      45.963   3.166   7.344  0.00  0.00    +0.000 C 
BRANCH  23  25
ATOM     24  C   UNL     1      46.696   0.900   7.729  0.00  0.00    +0.000 C 
ATOM     25  N   UNL     1      47.126   2.252   7.370  0.00  0.00    +0.000 NA
ATOM     26  C   UNL     1      47.839   2.222   6.091  0.00  0.00    +0.000 C 
ENDBRANCH  23  25
ENDBRANCH  22  23
ENDBRANCH  21  22
ENDBRANCH  15  21
ENDBRANCH   1  18
TORSDOF 7
ENDMDL
MODEL 5
REMARK VINA RESULT:    -6.479      2.373      8.547
REMARK INTER + INTRA:          -9.641
REMARK INTER:                  -9.102
REMARK INTRA:                  -0.539
REMARK UNBOUND:                -0.510
REMARK  Name = 
REMARK  9 active torsions:
REMARK  status: ('A' for Active; 'I' for Inactive)
REMARK    1  A    between atoms: C_1  and  N_2
REMARK    2  A    between atoms: N_2  and  C_3
REMARK    3  A    between atoms: N_2  and  C_4
REMARK    4  A    between atoms: C_4  and  C_5
REMARK    5  A    between atoms: C_5  and  O_6
REMARK    6  A    between atoms: O_6  and  C_7
REMARK    7  A    between atoms: C_10  and  C_11
REMARK    8  A    between atoms: C_11  and  N_12
REMARK    9  A    between atoms: C_16  and  C_17
REMARK                            x       y       z     vdW  Elec       q    Type
REMARK                         _______ _______ _______ _____ _____    ______ ____
ROOT
ATOM      1  C   UNL     1      47.365   4.705  15.430  0.00  0.00    +0.000 C 
ENDROOT
BRANCH   1   2
ATOM      2  N   UNL     1      47.510   3.325  15.848  0.00  0.00    +0.000 N 
ATOM      3  C   UNL     1      48.749   3.069  16.423  0.00  0.00    +0.000 A 
ATOM      4  N   UNL     1      49.369   4.031  17.119  0.00  0.00    +0.000 NA
ATOM      5  C   UNL     1      50.587   3.745  17.628  0.00  0.00    +0.000 A 
ATOM      6  C   UNL     1      51.203   2.526  17.479  0.00  0.00    +0.000 A 
ATOM      7  C   UNL     1      50.489   1.604  16.749  0.00  0.00    +0.000 A 
ATOM      8  N   UNL     1      49.268   1.850  16.214  0.00  0.00    +0.000 NA
ATOM      9  H   UNL     1      47.367   2.632  15.124  0.00  0.00    +0.000 HD
BRANCH   6  10
ATOM     10  C   UNL     1      52.544   2.314  18.038  0.00  0.00    +0.000 C 
ATOM     11  N   UNL     1      52.827   2.845  19.264  0.00  0.00    +0.000 N 
ATOM     12  O   UNL     1      53.395   1.697  17.410  0.00  0.00    +0.000 OA
ATOM     13  H   UNL     1      52.265   3.554  19.715  0.00  0.00    +0.000 HD
ATOM     14  H   UNL     1      53.791   2.761  19.569  0.00  0.00    +0.000 HD
ENDBRANCH   6  10
ENDBRANCH   1   2
BRANCH   1  18
ATOM     15  C   UNL     1      45.603   5.035  11.586  0.00  0.00    +0.000 A 
ATOM     16  C   UNL     1      45.564   3.793  12.199  0.00  0.00    +0.000 A 
ATOM     17  C   UNL     1      46.123   3.664  13.469  0.00  0.00    +0.000 A 
ATOM     18  C   UNL     1      46.690   4.781  14.091  0.00  0.00    +0.000 A 
ATOM     19  C   UNL     1      46.630   5.991  13.409  0.00  0.00    +0.000 A 
ATOM     20  N   UNL     1      46.111   6.138  12.172  0.00  0.00    +0.000 NA
BRANCH  15  21
ATOM     21  O   UNL     1      45.068   5.133  10.312  0.00  0.00    +0.000 OA
BRANCH  21  22
ATOM     22  C   UNL     1      44.355   3.941   9.954  0.00  0.00    +0.000 C 
BRANCH  22  23
ATOM     23  C   UNL     1      44.582   3.617   8.469  0.00  0.00    +0.000 C 
BRANCH  23  25
ATOM     24  C   UNL     1      45.943   1.626   8.385  0.00  0.00    +0.000 C 
ATOM     25  N   UNL     1      45.925   3.073   8.168  0.00  0.00    +0.000 NA
ATOM     26  C   UNL     1      46.355   3.375   6.801  0.00  0.00    +0.000 C 
ENDBRANCH  23  25
ENDBRANCH  22  23
ENDBRANCH  21  22
ENDBRANCH  15  21
ENDBRANCH   1  18
TORSDOF 7
ENDMDL
MODEL 6
REMARK VINA RESULT:    -6.319      3.332      8.216
REMARK INTER + INTRA:          -9.415
REMARK INTER:                  -8.722
REMARK INTRA:                  -0.693
REMARK UNBOUND:                -0.510
REMARK  Name = 
REMARK  9 active torsions:
REMARK  status: ('A' for Active; 'I' for Inactive)
REMARK    1  A    between atoms: C_1  and  N_2
REMARK    2  A    between atoms: N_2  and  C_3
REMARK    3  A    between atoms: N_2  and  C_4
REMARK    4  A    between atoms: C_4  and  C_5
REMARK    5  A    between atoms: C_5  and  O_6
REMARK    6  A    between atoms: O_6  and  C_7
REMARK    7  A    between atoms: C_10  and  C_11
REMARK    8  A    between atoms: C_11  and  N_12
REMARK    9  A    between atoms: C_16  and  C_17
REMARK                            x       y       z     vdW  Elec       q    Type
REMARK                         _______ _______ _______ _____ _____    ______ ____
ROOT
ATOM      1  C   UNL     1      48.309   6.257  15.603  0.00  0.00    +0.000 C 
ENDROOT
BRANCH   1   2
ATOM      2  N   UNL     1      47.844   5.127  16.382  0.00  0.00    +0.000 N 
ATOM      3  C   UNL     1      48.876   4.273  16.750  0.00  0.00    +0.000 A 
ATOM      4  N   UNL     1      50.098   4.770  16.985  0.00  0.00    +0.000 NA
ATOM      5  C   UNL     1      51.075   3.895  17.305  0.00  0.00    +0.000 A 
ATOM      6  C   UNL     1      50.874   2.541  17.415  0.00  0.00    +0.000 A 
ATOM      7  C   UNL     1      49.589   2.125  17.154  0.00  0.00    +0.000 A 
ATOM      8  N   UNL     1      48.579   2.966  16.822  0.00  0.00    +0.000 NA
ATOM      9  H   UNL     1      47.128   4.560  15.945  0.00  0.00    +0.000 HD
BRANCH   6  10
ATOM     10  C   UNL     1      52.005   1.659  17.734  0.00  0.00    +0.000 C 
ATOM     11  N   UNL     1      51.740   0.364  18.076  0.00  0.00    +0.000 N 
ATOM     12  O   UNL     1      53.154   2.082  17.718  0.00  0.00    +0.000 OA
ATOM     13  H   UNL     1      50.825   0.026  18.340  0.00  0.00    +0.000 HD
ATOM     14  H   UNL     1      52.537  -0.182  18.385  0.00  0.00    +0.000 HD
ENDBRANCH   6  10
ENDBRANCH   1   2
BRANCH   1  18
ATOM     15  C   UNL     1      46.400   6.121  11.817  0.00  0.00    +0.000 A 
ATOM     16  C   UNL     1      47.022   7.307  12.173  0.00  0.00    +0.000 A 
ATOM     17  C   UNL     1      47.669   7.370  13.405  0.00  0.00    +0.000 A 
ATOM     18  C   UNL     1      47.686   6.244  14.236  0.00  0.00    +0.000 A 
ATOM     19  C   UNL     1      47.076   5.090  13.759  0.00  0.00    +0.000 A 
ATOM     20  N   UNL     1      46.428   5.009  12.579  0.00  0.00    +0.000 NA
BRANCH  15  21
ATOM     21  O   UNL     1      45.739   6.090  10.600  0.00  0.00    +0.000 OA
BRANCH  21  22
ATOM     22  C   UNL     1      45.004   4.868  10.440  0.00  0.00    +0.000 C 
BRANCH  22  23
ATOM     23  C   UNL     1      43.497   5.138  10.574  0.00  0.00    +0.000 C 
BRANCH  23  25
ATOM     24  C   UNL     1      43.414   3.022  11.730  0.00  0.00    +0.000 C 
ATOM     25  N   UNL     1      42.838   4.365  11.649  0.00  0.00    +0.000 NA
ATOM     26  C   UNL     1      42.938   5.026  12.952  0.00  0.00    +0.000 C 
ENDBRANCH  23  25
ENDBRANCH  22  23
ENDBRANCH  21  22
ENDBRANCH  15  21
ENDBRANCH   1  18
TORSDOF 7
ENDMDL
MODEL 7
REMARK VINA RESULT:    -5.754      2.226      8.450
REMARK INTER + INTRA:          -8.619
REMARK INTER:                  -8.117
REMARK INTRA:                  -0.502
REMARK UNBOUND:                -0.510
REMARK  Name = 
REMARK  9 active torsions:
REMARK  status: ('A' for Active; 'I' for Inactive)
REMARK    1  A    between atoms: C_1  and  N_2
REMARK    2  A    between atoms: N_2  and  C_3
REMARK    3  A    between atoms: N_2  and  C_4
REMARK    4  A    between atoms: C_4  and  C_5
REMARK    5  A    between atoms: C_5  and  O_6
REMARK    6  A    between atoms: O_6  and  C_7
REMARK    7  A    between atoms: C_10  and  C_11
REMARK    8  A    between atoms: C_11  and  N_12
REMARK    9  A    between atoms: C_16  and  C_17
REMARK                            x       y       z     vdW  Elec       q    Type
REMARK                         _______ _______ _______ _____ _____    ______ ____
ROOT
ATOM      1  C   UNL     1      45.840   5.018  13.430  0.00  0.00    +0.000 C 
ENDROOT
BRANCH   1   2
ATOM      2  N   UNL     1      47.137   5.659  13.513  0.00  0.00    +0.000 N 
ATOM      3  C   UNL     1      47.728   5.505  14.760  0.00  0.00    +0.000 A 
ATOM      4  N   UNL     1      47.504   4.390  15.469  0.00  0.00    +0.000 NA
ATOM      5  C   UNL     1      48.073   4.302  16.690  0.00  0.00    +0.000 A 
ATOM      6  C   UNL     1      48.872   5.283  17.226  0.00  0.00    +0.000 A 
ATOM      7  C   UNL     1      49.043   6.389  16.426  0.00  0.00    +0.000 A 
ATOM      8  N   UNL     1      48.485   6.523  15.198  0.00  0.00    +0.000 NA
ATOM      9  H   UNL     1      47.149   6.649  13.296  0.00  0.00    +0.000 HD
BRANCH   6  10
ATOM     10  C   UNL     1      49.422   5.118  18.577  0.00  0.00    +0.000 C 
ATOM     11  N   UNL     1      50.066   6.178  19.149  0.00  0.00    +0.000 N 
ATOM     12  O   UNL     1      49.326   4.049  19.167  0.00  0.00    +0.000 OA
ATOM     13  H   UNL     1      50.386   6.987  18.635  0.00  0.00    +0.000 HD
ATOM     14  H   UNL     1      50.516   5.992  20.039  0.00  0.00    +0.000 HD
ENDBRANCH   6  10
ENDBRANCH   1   2
BRANCH   1  18
ATOM     15  C   UNL     1      45.117   4.070   9.359  0.00  0.00    +0.000 A 
ATOM     16  C   UNL     1      44.763   3.122  10.305  0.00  0.00    +0.000 A 
ATOM     17  C   UNL     1      44.976   3.418  11.650  0.00  0.00    +0.000 A 
ATOM     18  C   UNL     1      45.523   4.654  12.008  0.00  0.00    +0.000 A 
ATOM     19  C   UNL     1      45.794   5.553  10.982  0.00  0.00    +0.000 A 
ATOM     20  N   UNL     1      45.614   5.284   9.673  0.00  0.00    +0.000 NA
BRANCH  15  21
ATOM     21  O   UNL     1      44.923   3.744   8.027  0.00  0.00    +0.000 OA
BRANCH  21  22
ATOM     22  C   UNL     1      46.167   3.714   7.312  0.00  0.00    +0.000 C 
BRANCH  22  23
ATOM     23  C   UNL     1      46.141   2.597   6.257  0.00  0.00    +0.000 C 
BRANCH  23  25
ATOM     24  C   UNL     1      48.473   2.152   6.691  0.00  0.00    +0.000 C 
ATOM     25  N   UNL     1      47.160   1.545   6.466  0.00  0.00    +0.000 NA
ATOM     26  C   UNL     1      46.825   0.659   7.583  0.00  0.00    +0.000 C 
ENDBRANCH  23  25
ENDBRANCH  22  23
ENDBRANCH  21  22
ENDBRANCH  15  21
ENDBRANCH   1  18
TORSDOF 7
ENDMDL
MODEL 8
REMARK VINA RESULT:    -5.682      3.974      7.203
REMARK INTER + INTRA:          -8.517
REMARK INTER:                  -8.008
REMARK INTRA:                  -0.509
REMARK UNBOUND:                -0.510
REMARK  Name = 
REMARK  9 active torsions:
REMARK  status: ('A' for Active; 'I' for Inactive)
REMARK    1  A    between atoms: C_1  and  N_2
REMARK    2  A    between atoms: N_2  and  C_3
REMARK    3  A    between atoms: N_2  and  C_4
REMARK    4  A    between atoms: C_4  and  C_5
REMARK    5  A    between atoms: C_5  and  O_6
REMARK    6  A    between atoms: O_6  and  C_7
REMARK    7  A    between atoms: C_10  and  C_11
REMARK    8  A    between atoms: C_11  and  N_12
REMARK    9  A    between atoms: C_16  and  C_17
REMARK                            x       y       z     vdW  Elec       q    Type
REMARK                         _______ _______ _______ _____ _____    ______ ____
ROOT
ATOM      1  C   UNL     1      45.663   7.018  13.180  0.00  0.00    +0.000 C 
ENDROOT
BRANCH   1   2
ATOM      2  N   UNL     1      46.008   8.074  12.250  0.00  0.00    +0.000 N 
ATOM      3  C   UNL     1      47.380   8.203  12.075  0.00  0.00    +0.000 A 
ATOM      4  N   UNL     1      48.164   7.119  12.153  0.00  0.00    +0.000 NA
ATOM      5  C   UNL     1      49.495   7.302  12.010  0.00  0.00    +0.000 A 
ATOM      6  C   UNL     1      50.071   8.527  11.777  0.00  0.00    +0.000 A 
ATOM      7  C   UNL     1      49.186   9.578  11.715  0.00  0.00    +0.000 A 
ATOM      8  N   UNL     1      47.845   9.443  11.859  0.00  0.00    +0.000 NA
ATOM      9  H   UNL     1      45.647   8.993  12.479  0.00  0.00    +0.000 HD
BRANCH   6  10
ATOM     10  C   UNL     1      51.531   8.637  11.670  0.00  0.00    +0.000 C 
ATOM     11  N   UNL     1      52.232   7.551  11.229  0.00  0.00    +0.000 N 
ATOM     12  O   UNL     1      52.108   9.669  11.990  0.00  0.00    +0.000 OA
ATOM     13  H   UNL     1      51.853   6.615  11.184  0.00  0.00    +0.000 HD
ATOM     14  H   UNL     1      53.243   7.635  11.264  0.00  0.00    +0.000 HD
ENDBRANCH   6  10
ENDBRANCH   1   2
BRANCH   1  18
ATOM     15  C   UNL     1      44.296   3.695  10.925  0.00  0.00    +0.000 A 
ATOM     16  C   UNL     1      45.097   3.431  12.024  0.00  0.00    +0.000 A 
ATOM     17  C   UNL     1      45.545   4.506  12.789  0.00  0.00    +0.000 A 
ATOM     18  C   UNL     1      45.169   5.807  12.441  0.00  0.00    +0.000 A 
ATOM     19  C   UNL     1      44.320   5.956  11.350  0.00  0.00    +0.000 A 
ATOM     20  N   UNL     1      43.887   4.934  10.583  0.00  0.00    +0.000 NA
BRANCH  15  21
ATOM     21  O   UNL     1      43.886   2.615  10.162  0.00  0.00    +0.000 OA
BRANCH  21  22
ATOM     22  C   UNL     1      44.418   2.686   8.831  0.00  0.00    +0.000 C 
BRANCH  22  23
ATOM     23  C   UNL     1      45.656   1.783   8.710  0.00  0.00    +0.000 C 
BRANCH  23  25
ATOM     24  C   UNL     1      47.186   1.164   6.949  0.00  0.00    +0.000 C 
ATOM     25  N   UNL     1      46.669   2.274   7.750  0.00  0.00    +0.000 NA
ATOM     26  C   UNL     1      46.142   3.318   6.868  0.00  0.00    +0.000 C 
ENDBRANCH  23  25
ENDBRANCH  22  23
ENDBRANCH  21  22
ENDBRANCH  15  21
ENDBRANCH   1  18
TORSDOF 7
ENDMDL
MODEL 9
REMARK VINA RESULT:    -5.555      2.676      4.882
REMARK INTER + INTRA:          -8.339
REMARK INTER:                  -7.789
REMARK INTRA:                  -0.550
REMARK UNBOUND:                -0.510
REMARK  Name = 
REMARK  9 active torsions:
REMARK  status: ('A' for Active; 'I' for Inactive)
REMARK    1  A    between atoms: C_1  and  N_2
REMARK    2  A    between atoms: N_2  and  C_3
REMARK    3  A    between atoms: N_2  and  C_4
REMARK    4  A    between atoms: C_4  and  C_5
REMARK    5  A    between atoms: C_5  and  O_6
REMARK    6  A    between atoms: O_6  and  C_7
REMARK    7  A    between atoms: C_10  and  C_11
REMARK    8  A    between atoms: C_11  and  N_12
REMARK    9  A    between atoms: C_16  and  C_17
REMARK                            x       y       z     vdW  Elec       q    Type
REMARK                         _______ _______ _______ _____ _____    ______ ____
ROOT
ATOM      1  C   UNL     1      47.155   4.254  15.203  0.00  0.00    +0.000 C 
ENDROOT
BRANCH   1   2
ATOM      2  N   UNL     1      46.573   5.330  14.426  0.00  0.00    +0.000 N 
ATOM      3  C   UNL     1      45.986   4.880  13.250  0.00  0.00    +0.000 A 
ATOM      4  N   UNL     1      45.421   3.665  13.211  0.00  0.00    +0.000 NA
ATOM      5  C   UNL     1      44.895   3.260  12.035  0.00  0.00    +0.000 A 
ATOM      6  C   UNL     1      44.899   4.030  10.898  0.00  0.00    +0.000 A 
ATOM      7  C   UNL     1      45.502   5.259  11.035  0.00  0.00    +0.000 A 
ATOM      8  N   UNL     1      46.049   5.703  12.193  0.00  0.00    +0.000 NA
ATOM      9  H   UNL     1      47.204   6.081  14.177  0.00  0.00    +0.000 HD
BRANCH   6  10
ATOM     10  C   UNL     1      44.335   3.494   9.652  0.00  0.00    +0.000 C 
ATOM     11  N   UNL     1      44.082   4.362   8.629  0.00  0.00    +0.000 N 
ATOM     12  O   UNL     1      44.075   2.302   9.544  0.00  0.00    +0.000 OA
ATOM     13  H   UNL     1      44.045   5.366   8.737  0.00  0.00    +0.000 HD
ATOM     14  H   UNL     1      43.602   3.969   7.826  0.00  0.00    +0.000 HD
ENDBRANCH   6  10
ENDBRANCH   1   2
BRANCH   1  18
ATOM     15  C   UNL     1      49.188   5.613  18.669  0.00  0.00    +0.000 A 
ATOM     16  C   UNL     1      49.373   6.334  17.501  0.00  0.00    +0.000 A 
ATOM     17  C   UNL     1      48.703   5.915  16.353  0.00  0.00    +0.000 A 
ATOM     18  C   UNL     1      47.860   4.800  16.411  0.00  0.00    +0.000 A 
ATOM     19  C   UNL     1      47.706   4.182  17.646  0.00  0.00    +0.000 A 
ATOM     20  N   UNL     1      48.357   4.556  18.767  0.00  0.00    +0.000 NA
BRANCH  15  21
ATOM     21  O   UNL     1      49.886   6.029  19.791  0.00  0.00    +0.000 OA
BRANCH  21  22
ATOM     22  C   UNL     1      51.300   6.042  19.548  0.00  0.00    +0.000 C 
BRANCH  22  23
ATOM     23  C   UNL     1      51.873   4.623  19.696  0.00  0.00    +0.000 C 
BRANCH  23  25
ATOM     24  C   UNL     1      52.646   2.864  18.237  0.00  0.00    +0.000 C 
ATOM     25  N   UNL     1      52.848   4.254  18.647  0.00  0.00    +0.000 NA
ATOM     26  C   UNL     1      52.768   5.132  17.478  0.00  0.00    +0.000 C 
ENDBRANCH  23  25
ENDBRANCH  22  23
ENDBRANCH  21  22
ENDBRANCH  15  21
ENDBRANCH   1  18
TORSDOF 7
ENDMDL
