MODEL 1
REMARK VINA RESULT:    -8.309      0.000      0.000
REMARK INTER + INTRA:         -13.315
REMARK INTER:                 -11.710
REMARK INTRA:                  -1.605
REMARK UNBOUND:                -1.605
REMARK  Name = 
REMARK  8 active torsions:
REMARK  status: ('A' for Active; 'I' for Inactive)
REMARK    1  A    between atoms: C_1  and  C_2
REMARK    2  A    between atoms: C_5  and  C_6
REMARK    3  A    between atoms: C_8  and  N_9
REMARK    4  A    between atoms: N_9  and  C_10
REMARK    5  A    between atoms: C_10  and  C_11
REMARK    6  A    between atoms: C_11  and  C_14
REMARK    7  A    between atoms: C_17  and  C_18
REMARK    8  A    between atoms: C_24  and  C_25
REMARK                            x       y       z     vdW  Elec       q    Type
REMARK                         _______ _______ _______ _____ _____    ______ ____
ROOT
ATOM      1  N   UNL     1      45.705   3.322  12.569  0.00  0.00    +0.000 N 
ATOM      2  H   UNL     1      46.244   3.062  11.742  0.00  0.00    +0.000 HD
ENDROOT
BRANCH   1   5
ATOM      3  C   UNL     1      47.558   6.363  13.650  0.00  0.00    +0.000 A 
ATOM      4  C   UNL     1      46.818   5.451  12.878  0.00  0.00    +0.000 A 
ATOM      5  C   UNL     1      46.398   4.217  13.398  0.00  0.00    +0.000 A 
ATOM      6  C   UNL     1      46.793   3.891  14.702  0.00  0.00    +0.000 A 
ATOM      7  C   UNL     1      47.537   4.772  15.493  0.00  0.00    +0.000 A 
ATOM      8  C   UNL     1      47.923   6.001  14.951  0.00  0.00    +0.000 A 
BRANCH   3  13
ATOM      9  C   UNL     1      45.081  11.193  11.744  0.00  0.00    +0.000 C 
ATOM     10  C   UNL     1      45.925   9.934  11.646  0.00  0.00    +0.000 C 
ATOM     11  C   UNL     1      45.640   8.871  12.731  0.00  0.00    +0.000 C 
ATOM     12  C   UNL     1      47.144   8.666  12.716  0.00  0.00    +0.000 C 
ATOM     13  C   UNL     1      47.956   7.659  13.075  0.00  0.00    +0.000 C 
ATOM     14  C   UNL     1      47.401  10.038  12.115  0.00  0.00    +0.000 C 
ENDBRANCH   3  13
BRANCH   7  15
ATOM     15  C   UNL     1      47.914   4.411  16.905  0.00  0.00    +0.000 C 
ATOM     16  F   UNL     1      49.163   3.877  17.016  0.00  0.00    +0.000 F 
ATOM     17  F   UNL     1      47.892   5.482  17.744  0.00  0.00    +0.000 F 
ATOM     18  F   UNL     1      47.069   3.491  17.448  0.00  0.00    +0.000 F 
ENDBRANCH   7  15
ENDBRANCH   1   5
BRANCH   1  19
ATOM     19  C   UNL     1      44.277   3.600  12.284  0.00  0.00    +0.000 C 
BRANCH  19  20
ATOM     20  C   UNL     1      44.002   4.389  10.986  0.00  0.00    +0.000 C 
ATOM     21  F   UNL     1      42.663   4.320  10.712  0.00  0.00    +0.000 F 
ATOM     22  F   UNL     1      44.254   5.715  11.211  0.00  0.00    +0.000 F 
BRANCH  20  23
ATOM     23  C   UNL     1      44.852   3.828   9.843  0.00  0.00    +0.000 A 
ATOM     24  C   UNL     1      45.528   4.702   8.995  0.00  0.00    +0.000 A 
ATOM     25  C   UNL     1      46.298   4.180   7.954  0.00  0.00    +0.000 A 
ATOM     26  C   UNL     1      46.380   2.798   7.763  0.00  0.00    +0.000 A 
ATOM     27  C   UNL     1      45.675   1.998   8.647  0.00  0.00    +0.000 A 
ATOM     28  N   UNL     1      44.917   2.476   9.668  0.00  0.00    +0.000 NA
BRANCH  26  29
ATOM     29  C   UNL     1      47.201   2.272   6.648  0.00  0.00    +0.000 C 
ATOM     30  N   UNL     1      47.149   2.887   5.428  0.00  0.00    +0.000 N 
ATOM     31  O   UNL     1      47.920   1.293   6.801  0.00  0.00    +0.000 OA
ATOM     32  H   UNL     1      46.602   3.700   5.187  0.00  0.00    +0.000 HD
ATOM     33  H   UNL     1      47.731   2.491   4.701  0.00  0.00    +0.000 HD
ENDBRANCH  26  29
ENDBRANCH  20  23
ENDBRANCH  19  20
ENDBRANCH   1  19
TORSDOF 7
ENDMDL
MODEL 2
REMARK VINA RESULT:    -8.126      1.708      2.323
REMARK INTER + INTRA:         -13.056
REMARK INTER:                 -12.017
REMARK INTRA:                  -1.039
REMARK UNBOUND:                -1.605
REMARK  Name = 
REMARK  8 active torsions:
REMARK  status: ('A' for Active; 'I' for Inactive)
REMARK    1  A    between atoms: C_1  and  C_2
REMARK    2  A    between atoms: C_5  and  C_6
REMARK    3  A    between atoms: C_8  and  N_9
REMARK    4  A    between atoms: N_9  and  C_10
REMARK    5  A    between atoms: C_10  and  C_11
REMARK    6  A    between atoms: C_11  and  C_14
REMARK    7  A    between atoms: C_17  and  C_18
REMARK    8  A    between atoms: C_24  and  C_25
REMARK                            x       y       z     vdW  Elec       q    Type
REMARK                         _______ _______ _______ _____ _____    ______ ____
ROOT
ATOM      1  N   UNL     1      45.250   5.366  12.088  0.00  0.00    +0.000 N 
ATOM      2  H   UNL     1      44.521   6.080  12.044  0.00  0.00    +0.000 HD
ENDROOT
BRANCH   1   5
ATOM      3  C   UNL     1      48.057   7.089  13.820  0.00  0.00    +0.000 A 
ATOM      4  C   UNL     1      47.037   6.783  12.902  0.00  0.00    +0.000 A 
ATOM      5  C   UNL     1      46.219   5.653  13.060  0.00  0.00    +0.000 A 
ATOM      6  C   UNL     1      46.489   4.799  14.137  0.00  0.00    +0.000 A 
ATOM      7  C   UNL     1      47.501   5.071  15.064  0.00  0.00    +0.000 A 
ATOM      8  C   UNL     1      48.285   6.214  14.887  0.00  0.00    +0.000 A 
BRANCH   3  13
ATOM      9  C   UNL     1      52.126   9.047  10.255  0.00  0.00    +0.000 C 
ATOM     10  C   UNL     1      51.534   8.631  11.590  0.00  0.00    +0.000 C 
ATOM     11  C   UNL     1      50.302   7.701  11.497  0.00  0.00    +0.000 C 
ATOM     12  C   UNL     1      49.781   8.518  12.665  0.00  0.00    +0.000 C 
ATOM     13  C   UNL     1      48.875   8.299  13.632  0.00  0.00    +0.000 C 
ATOM     14  C   UNL     1      50.692   9.692  12.349  0.00  0.00    +0.000 C 
ENDBRANCH   3  13
BRANCH   7  15
ATOM     15  C   UNL     1      47.743   4.156  16.234  0.00  0.00    +0.000 C 
ATOM     16  F   UNL     1      47.876   2.845  15.882  0.00  0.00    +0.000 F 
ATOM     17  F   UNL     1      48.873   4.472  16.924  0.00  0.00    +0.000 F 
ATOM     18  F   UNL     1      46.727   4.193  17.141  0.00  0.00    +0.000 F 
ENDBRANCH   7  15
ENDBRANCH   1   5
BRANCH   1  19
ATOM     19  C   UNL     1      44.730   3.980  12.010  0.00  0.00    +0.000 C 
BRANCH  19  20
ATOM     20  C   UNL     1      43.879   3.662  10.762  0.00  0.00    +0.000 C 
ATOM     21  F   UNL     1      43.013   2.648  11.074  0.00  0.00    +0.000 F 
ATOM     22  F   UNL     1      43.083   4.739  10.480  0.00  0.00    +0.000 F 
BRANCH  20  23
ATOM     23  C   UNL     1      44.790   3.297   9.587  0.00  0.00    +0.000 A 
ATOM     24  C   UNL     1      45.231   4.295   8.723  0.00  0.00    +0.000 A 
ATOM     25  C   UNL     1      46.060   3.952   7.653  0.00  0.00    +0.000 A 
ATOM     26  C   UNL     1      46.432   2.620   7.451  0.00  0.00    +0.000 A 
ATOM     27  C   UNL     1      45.948   1.688   8.353  0.00  0.00    +0.000 A 
ATOM     28  N   UNL     1      45.140   1.991   9.402  0.00  0.00    +0.000 NA
BRANCH  26  29
ATOM     29  C   UNL     1      47.309   2.283   6.305  0.00  0.00    +0.000 C 
ATOM     30  N   UNL     1      47.371   3.131   5.234  0.00  0.00    +0.000 N 
ATOM     31  O   UNL     1      47.974   1.255   6.301  0.00  0.00    +0.000 OA
ATOM     32  H   UNL     1      46.877   4.005   5.130  0.00  0.00    +0.000 HD
ATOM     33  H   UNL     1      47.987   2.857   4.480  0.00  0.00    +0.000 HD
ENDBRANCH  26  29
ENDBRANCH  20  23
ENDBRANCH  19  20
ENDBRANCH   1  19
TORSDOF 7
ENDMDL
MODEL 3
REMARK VINA RESULT:    -7.964      2.762      4.583
REMARK INTER + INTRA:         -12.828
REMARK INTER:                 -11.426
REMARK INTRA:                  -1.402
REMARK UNBOUND:                -1.605
REMARK  Name = 
REMARK  8 active torsions:
REMARK  status: ('A' for Active; 'I' for Inactive)
REMARK    1  A    between atoms: C_1  and  C_2
REMARK    2  A    between atoms: C_5  and  C_6
REMARK    3  A    between atoms: C_8  and  N_9
REMARK    4  A    between atoms: N_9  and  C_10
REMARK    5  A    between atoms: C_10  and  C_11
REMARK    6  A    between atoms: C_11  and  C_14
REMARK    7  A    between atoms: C_17  and  C_18
REMARK    8  A    between atoms: C_24  and  C_25
REMARK                            x       y       z     vdW  Elec       q    Type
REMARK                         _______ _______ _______ _____ _____    ______ ____
ROOT
ATOM      1  N   UNL     1      45.935   4.419  12.054  0.00  0.00    +0.000 N 
ATOM      2  H   UNL     1      46.313   4.098  11.161  0.00  0.00    +0.000 HD
ENDROOT
BRANCH   1   5
ATOM      3  C   UNL     1      47.883   7.172  13.627  0.00  0.00    +0.000 A 
ATOM      4  C   UNL     1      47.451   5.893  13.235  0.00  0.00    +0.000 A 
ATOM      5  C   UNL     1      46.357   5.718  12.374  0.00  0.00    +0.000 A 
ATOM      6  C   UNL     1      45.664   6.863  11.960  0.00  0.00    +0.000 A 
ATOM      7  C   UNL     1      46.064   8.149  12.338  0.00  0.00    +0.000 A 
ATOM      8  C   UNL     1      47.169   8.289  13.182  0.00  0.00    +0.000 A 
BRANCH   3  13
ATOM      9  C   UNL     1      49.798   5.080  18.633  0.00  0.00    +0.000 C 
ATOM     10  C   UNL     1      49.343   6.155  17.661  0.00  0.00    +0.000 C 
ATOM     11  C   UNL     1      48.492   5.645  16.476  0.00  0.00    +0.000 C 
ATOM     12  C   UNL     1      49.272   6.667  15.668  0.00  0.00    +0.000 C 
ATOM     13  C   UNL     1      49.053   7.313  14.512  0.00  0.00    +0.000 C 
ATOM     14  C   UNL     1      50.408   6.709  16.676  0.00  0.00    +0.000 C 
ENDBRANCH   3  13
BRANCH   7  15
ATOM     15  C   UNL     1      45.324   9.363  11.846  0.00  0.00    +0.000 C 
ATOM     16  F   UNL     1      46.143  10.366  11.418  0.00  0.00    +0.000 F 
ATOM     17  F   UNL     1      44.499   9.087  10.799  0.00  0.00    +0.000 F 
ATOM     18  F   UNL     1      44.535   9.917  12.809  0.00  0.00    +0.000 F 
ENDBRANCH   7  15
ENDBRANCH   1   5
BRANCH   1  19
ATOM     19  C   UNL     1      44.506   4.082  12.250  0.00  0.00    +0.000 C 
BRANCH  19  20
ATOM     20  C   UNL     1      43.700   3.838  10.956  0.00  0.00    +0.000 C 
ATOM     21  F   UNL     1      42.780   2.853  11.197  0.00  0.00    +0.000 F 
ATOM     22  F   UNL     1      42.962   4.956  10.675  0.00  0.00    +0.000 F 
BRANCH  20  23
ATOM     23  C   UNL     1      44.647   3.472   9.811  0.00  0.00    +0.000 A 
ATOM     24  C   UNL     1      44.898   2.132   9.528  0.00  0.00    +0.000 A 
ATOM     25  C   UNL     1      45.766   1.808   8.482  0.00  0.00    +0.000 A 
ATOM     26  C   UNL     1      46.378   2.819   7.738  0.00  0.00    +0.000 A 
ATOM     27  C   UNL     1      46.079   4.126   8.085  0.00  0.00    +0.000 A 
ATOM     28  N   UNL     1      45.240   4.472   9.097  0.00  0.00    +0.000 NA
BRANCH  26  29
ATOM     29  C   UNL     1      47.298   2.447   6.637  0.00  0.00    +0.000 C 
ATOM     30  N   UNL     1      47.222   3.112   5.445  0.00  0.00    +0.000 N 
ATOM     31  O   UNL     1      48.121   1.552   6.778  0.00  0.00    +0.000 OA
ATOM     32  H   UNL     1      46.593   3.867   5.217  0.00  0.00    +0.000 HD
ATOM     33  H   UNL     1      47.874   2.823   4.728  0.00  0.00    +0.000 HD
ENDBRANCH  26  29
ENDBRANCH  20  23
ENDBRANCH  19  20
ENDBRANCH   1  19
TORSDOF 7
ENDMDL
MODEL 4
REMARK VINA RESULT:    -7.936      3.128      4.597
REMARK INTER + INTRA:         -12.789
REMARK INTER:                 -11.270
REMARK INTRA:                  -1.519
REMARK UNBOUND:                -1.605
REMARK  Name = 
REMARK  8 active torsions:
REMARK  status: ('A' for Active; 'I' for Inactive)
REMARK    1  A    between atoms: C_1  and  C_2
REMARK    2  A    between atoms: C_5  and  C_6
REMARK    3  A    between atoms: C_8  and  N_9
REMARK    4  A    between atoms: N_9  and  C_10
REMARK    5  A    between atoms: C_10  and  C_11
REMARK    6  A    between atoms: C_11  and  C_14
REMARK    7  A    between atoms: C_17  and  C_18
REMARK    8  A    between atoms: C_24  and  C_25
REMARK                            x       y       z     vdW  Elec       q    Type
REMARK                         _______ _______ _______ _____ _____    ______ ____
ROOT
ATOM      1  N   UNL     1      45.866   5.029  11.771  0.00  0.00    +0.000 N 
ATOM      2  H   UNL     1      46.293   4.740  10.890  0.00  0.00    +0.000 HD
ENDROOT
BRANCH   1   5
ATOM      3  C   UNL     1      46.900   8.382  13.010  0.00  0.00    +0.000 A 
ATOM      4  C   UNL     1      46.865   6.998  12.765  0.00  0.00    +0.000 A 
ATOM      5  C   UNL     1      45.886   6.421  11.942  0.00  0.00    +0.000 A 
ATOM      6  C   UNL     1      44.899   7.263  11.414  0.00  0.00    +0.000 A 
ATOM      7  C   UNL     1      44.901   8.643  11.644  0.00  0.00    +0.000 A 
ATOM      8  C   UNL     1      45.901   9.188  12.454  0.00  0.00    +0.000 A 
BRANCH   3  13
ATOM      9  C   UNL     1      52.520   9.572  12.696  0.00  0.00    +0.000 C 
ATOM     10  C   UNL     1      51.272   8.903  13.245  0.00  0.00    +0.000 C 
ATOM     11  C   UNL     1      50.068   8.875  12.276  0.00  0.00    +0.000 C 
ATOM     12  C   UNL     1      49.246   9.144  13.523  0.00  0.00    +0.000 C 
ATOM     13  C   UNL     1      47.960   8.952  13.859  0.00  0.00    +0.000 C 
ATOM     14  C   UNL     1      50.438   9.707  14.279  0.00  0.00    +0.000 C 
ENDBRANCH   3  13
BRANCH   7  15
ATOM     15  C   UNL     1      43.851   9.529  11.031  0.00  0.00    +0.000 C 
ATOM     16  F   UNL     1      43.446  10.542  11.849  0.00  0.00    +0.000 F 
ATOM     17  F   UNL     1      44.272  10.125   9.882  0.00  0.00    +0.000 F 
ATOM     18  F   UNL     1      42.719   8.844  10.706  0.00  0.00    +0.000 F 
ENDBRANCH   7  15
ENDBRANCH   1   5
BRANCH   1  19
ATOM     19  C   UNL     1      44.613   4.305  12.089  0.00  0.00    +0.000 C 
BRANCH  19  20
ATOM     20  C   UNL     1      43.775   3.866  10.868  0.00  0.00    +0.000 C 
ATOM     21  F   UNL     1      42.961   2.833  11.251  0.00  0.00    +0.000 F 
ATOM     22  F   UNL     1      42.927   4.882  10.522  0.00  0.00    +0.000 F 
BRANCH  20  23
ATOM     23  C   UNL     1      44.699   3.470   9.715  0.00  0.00    +0.000 A 
ATOM     24  C   UNL     1      44.997   2.127   9.501  0.00  0.00    +0.000 A 
ATOM     25  C   UNL     1      45.843   1.776   8.447  0.00  0.00    +0.000 A 
ATOM     26  C   UNL     1      46.389   2.765   7.625  0.00  0.00    +0.000 A 
ATOM     27  C   UNL     1      46.047   4.077   7.906  0.00  0.00    +0.000 A 
ATOM     28  N   UNL     1      45.228   4.449   8.924  0.00  0.00    +0.000 NA
BRANCH  26  29
ATOM     29  C   UNL     1      47.288   2.365   6.516  0.00  0.00    +0.000 C 
ATOM     30  N   UNL     1      47.388   3.164   5.411  0.00  0.00    +0.000 N 
ATOM     31  O   UNL     1      47.938   1.329   6.574  0.00  0.00    +0.000 OA
ATOM     32  H   UNL     1      46.909   4.039   5.257  0.00  0.00    +0.000 HD
ATOM     33  H   UNL     1      48.017   2.849   4.685  0.00  0.00    +0.000 HD
ENDBRANCH  26  29
ENDBRANCH  20  23
ENDBRANCH  19  20
ENDBRANCH   1  19
TORSDOF 7
ENDMDL
MODEL 5
REMARK VINA RESULT:    -7.837      2.804      4.423
REMARK INTER + INTRA:         -12.649
REMARK INTER:                 -11.361
REMARK INTRA:                  -1.288
REMARK UNBOUND:                -1.605
REMARK  Name = 
REMARK  8 active torsions:
REMARK  status: ('A' for Active; 'I' for Inactive)
REMARK    1  A    between atoms: C_1  and  C_2
REMARK    2  A    between atoms: C_5  and  C_6
REMARK    3  A    between atoms: C_8  and  N_9
REMARK    4  A    between atoms: N_9  and  C_10
REMARK    5  A    between atoms: C_10  and  C_11
REMARK    6  A    between atoms: C_11  and  C_14
REMARK    7  A    between atoms: C_17  and  C_18
REMARK    8  A    between atoms: C_24  and  C_25
REMARK                            x       y       z     vdW  Elec       q    Type
REMARK                         _______ _______ _______ _____ _____    ______ ____
ROOT
ATOM      1  N   UNL     1      45.370   6.040  11.689  0.00  0.00    +0.000 N 
ATOM      2  H   UNL     1      44.711   6.814  11.784  0.00  0.00    +0.000 HD
ENDROOT
BRANCH   1   5
ATOM      3  C   UNL     1      48.000   6.110  14.321  0.00  0.00    +0.000 A 
ATOM      4  C   UNL     1      46.810   5.833  13.625  0.00  0.00    +0.000 A 
ATOM      5  C   UNL     1      46.595   6.303  12.320  0.00  0.00    +0.000 A 
ATOM      6  C   UNL     1      47.585   7.113  11.747  0.00  0.00    +0.000 A 
ATOM      7  C   UNL     1      48.776   7.413  12.417  0.00  0.00    +0.000 A 
ATOM      8  C   UNL     1      48.966   6.915  13.708  0.00  0.00    +0.000 A 
BRANCH   3  13
ATOM      9  C   UNL     1      49.211   8.053  19.599  0.00  0.00    +0.000 C 
ATOM     10  C   UNL     1      49.431   7.240  18.335  0.00  0.00    +0.000 C 
ATOM     11  C   UNL     1      48.672   7.753  17.090  0.00  0.00    +0.000 C 
ATOM     12  C   UNL     1      48.465   6.279  16.792  0.00  0.00    +0.000 C 
ATOM     13  C   UNL     1      48.197   5.576  15.679  0.00  0.00    +0.000 C 
ATOM     14  C   UNL     1      48.696   5.876  18.238  0.00  0.00    +0.000 C 
ENDBRANCH   3  13
BRANCH   7  15
ATOM     15  C   UNL     1      49.838   8.254  11.761  0.00  0.00    +0.000 C 
ATOM     16  F   UNL     1      49.341   9.315  11.064  0.00  0.00    +0.000 F 
ATOM     17  F   UNL     1      50.720   8.778  12.656  0.00  0.00    +0.000 F 
ATOM     18  F   UNL     1      50.585   7.545  10.870  0.00  0.00    +0.000 F 
ENDBRANCH   7  15
ENDBRANCH   1   5
BRANCH   1  19
ATOM     19  C   UNL     1      44.754   4.707  11.888  0.00  0.00    +0.000 C 
BRANCH  19  20
ATOM     20  C   UNL     1      43.928   4.176  10.697  0.00  0.00    +0.000 C 
ATOM     21  F   UNL     1      43.114   3.171  11.149  0.00  0.00    +0.000 F 
ATOM     22  F   UNL     1      43.078   5.161  10.271  0.00  0.00    +0.000 F 
BRANCH  20  23
ATOM     23  C   UNL     1      44.862   3.701   9.582  0.00  0.00    +0.000 A 
ATOM     24  C   UNL     1      45.094   2.338   9.413  0.00  0.00    +0.000 A 
ATOM     25  C   UNL     1      45.949   1.914   8.394  0.00  0.00    +0.000 A 
ATOM     26  C   UNL     1      46.571   2.850   7.563  0.00  0.00    +0.000 A 
ATOM     27  C   UNL     1      46.291   4.185   7.800  0.00  0.00    +0.000 A 
ATOM     28  N   UNL     1      45.464   4.628   8.782  0.00  0.00    +0.000 NA
BRANCH  26  29
ATOM     29  C   UNL     1      47.478   2.373   6.493  0.00  0.00    +0.000 C 
ATOM     30  N   UNL     1      47.413   2.945   5.253  0.00  0.00    +0.000 N 
ATOM     31  O   UNL     1      48.281   1.472   6.701  0.00  0.00    +0.000 OA
ATOM     32  H   UNL     1      46.801   3.695   4.969  0.00  0.00    +0.000 HD
ATOM     33  H   UNL     1      48.056   2.587   4.559  0.00  0.00    +0.000 HD
ENDBRANCH  26  29
ENDBRANCH  20  23
ENDBRANCH  19  20
ENDBRANCH   1  19
TORSDOF 7
ENDMDL
MODEL 6
REMARK VINA RESULT:    -7.499      3.930      7.704
REMARK INTER + INTRA:         -12.174
REMARK INTER:                 -11.178
REMARK INTRA:                  -0.995
REMARK UNBOUND:                -1.605
REMARK  Name = 
REMARK  8 active torsions:
REMARK  status: ('A' for Active; 'I' for Inactive)
REMARK    1  A    between atoms: C_1  and  C_2
REMARK    2  A    between atoms: C_5  and  C_6
REMARK    3  A    between atoms: C_8  and  N_9
REMARK    4  A    between atoms: N_9  and  C_10
REMARK    5  A    between atoms: C_10  and  C_11
REMARK    6  A    between atoms: C_11  and  C_14
REMARK    7  A    between atoms: C_17  and  C_18
REMARK    8  A    between atoms: C_24  and  C_25
REMARK                            x       y       z     vdW  Elec       q    Type
REMARK                         _______ _______ _______ _____ _____    ______ ____
ROOT
ATOM      1  N   UNL     1      46.941   3.695  14.835  0.00  0.00    +0.000 N 
ATOM      2  H   UNL     1      46.283   2.976  15.139  0.00  0.00    +0.000 HD
ENDROOT
BRANCH   1   5
ATOM      3  C   UNL     1      46.495   6.353  12.269  0.00  0.00    +0.000 A 
ATOM      4  C   UNL     1      46.920   5.655  13.414  0.00  0.00    +0.000 A 
ATOM      5  C   UNL     1      46.530   4.329  13.653  0.00  0.00    +0.000 A 
ATOM      6  C   UNL     1      45.649   3.733  12.741  0.00  0.00    +0.000 A 
ATOM      7  C   UNL     1      45.202   4.403  11.597  0.00  0.00    +0.000 A 
ATOM      8  C   UNL     1      45.624   5.717  11.379  0.00  0.00    +0.000 A 
BRANCH   3  13
ATOM      9  C   UNL     1      51.406   9.190  11.302  0.00  0.00    +0.000 C 
ATOM     10  C   UNL     1      50.133   8.835  12.050  0.00  0.00    +0.000 C 
ATOM     11  C   UNL     1      49.550   7.442  11.720  0.00  0.00    +0.000 C 
ATOM     12  C   UNL     1      48.207   8.144  11.814  0.00  0.00    +0.000 C 
ATOM     13  C   UNL     1      46.949   7.736  12.042  0.00  0.00    +0.000 C 
ATOM     14  C   UNL     1      48.821   9.512  11.570  0.00  0.00    +0.000 C 
ENDBRANCH   3  13
BRANCH   7  15
ATOM     15  C   UNL     1      44.286   3.724  10.615  0.00  0.00    +0.000 C 
ATOM     16  F   UNL     1      43.883   4.535   9.595  0.00  0.00    +0.000 F 
ATOM     17  F   UNL     1      44.861   2.641  10.023  0.00  0.00    +0.000 F 
ATOM     18  F   UNL     1      43.142   3.270  11.199  0.00  0.00    +0.000 F 
ENDBRANCH   7  15
ENDBRANCH   1   5
BRANCH   1  19
ATOM     19  C   UNL     1      47.448   4.542  15.941  0.00  0.00    +0.000 C 
BRANCH  19  20
ATOM     20  C   UNL     1      47.640   3.820  17.292  0.00  0.00    +0.000 C 
ATOM     21  F   UNL     1      47.237   4.663  18.294  0.00  0.00    +0.000 F 
ATOM     22  F   UNL     1      46.783   2.755  17.353  0.00  0.00    +0.000 F 
BRANCH  20  23
ATOM     23  C   UNL     1      49.101   3.394  17.455  0.00  0.00    +0.000 A 
ATOM     24  C   UNL     1      49.505   2.140  17.003  0.00  0.00    +0.000 A 
ATOM     25  C   UNL     1      50.840   1.759  17.158  0.00  0.00    +0.000 A 
ATOM     26  C   UNL     1      51.752   2.624  17.767  0.00  0.00    +0.000 A 
ATOM     27  C   UNL     1      51.269   3.850  18.192  0.00  0.00    +0.000 A 
ATOM     28  N   UNL     1      49.978   4.249  18.057  0.00  0.00    +0.000 NA
BRANCH  26  29
ATOM     29  C   UNL     1      53.161   2.192  17.923  0.00  0.00    +0.000 C 
ATOM     30  N   UNL     1      53.434   0.986  18.507  0.00  0.00    +0.000 N 
ATOM     31  O   UNL     1      54.084   2.901  17.542  0.00  0.00    +0.000 OA
ATOM     32  H   UNL     1      52.759   0.319  18.850  0.00  0.00    +0.000 HD
ATOM     33  H   UNL     1      54.410   0.737  18.586  0.00  0.00    +0.000 HD
ENDBRANCH  26  29
ENDBRANCH  20  23
ENDBRANCH  19  20
ENDBRANCH   1  19
TORSDOF 7
ENDMDL
MODEL 7
REMARK VINA RESULT:    -7.331      3.886      7.259
REMARK INTER + INTRA:         -11.936
REMARK INTER:                 -10.495
REMARK INTRA:                  -1.441
REMARK UNBOUND:                -1.605
REMARK  Name = 
REMARK  8 active torsions:
REMARK  status: ('A' for Active; 'I' for Inactive)
REMARK    1  A    between atoms: C_1  and  C_2
REMARK    2  A    between atoms: C_5  and  C_6
REMARK    3  A    between atoms: C_8  and  N_9
REMARK    4  A    between atoms: N_9  and  C_10
REMARK    5  A    between atoms: C_10  and  C_11
REMARK    6  A    between atoms: C_11  and  C_14
REMARK    7  A    between atoms: C_17  and  C_18
REMARK    8  A    between atoms: C_24  and  C_25
REMARK                            x       y       z     vdW  Elec       q    Type
REMARK                         _______ _______ _______ _____ _____    ______ ____
ROOT
ATOM      1  N   UNL     1      47.135   3.676  14.779  0.00  0.00    +0.000 N 
ATOM      2  H   UNL     1      47.047   2.671  14.622  0.00  0.00    +0.000 HD
ENDROOT
BRANCH   1   5
ATOM      3  C   UNL     1      46.828   6.276  12.134  0.00  0.00    +0.000 A 
ATOM      4  C   UNL     1      47.346   5.459  13.154  0.00  0.00    +0.000 A 
ATOM      5  C   UNL     1      46.587   4.429  13.730  0.00  0.00    +0.000 A 
ATOM      6  C   UNL     1      45.264   4.275  13.296  0.00  0.00    +0.000 A 
ATOM      7  C   UNL     1      44.715   5.075  12.289  0.00  0.00    +0.000 A 
ATOM      8  C   UNL     1      45.505   6.080  11.724  0.00  0.00    +0.000 A 
BRANCH   3  13
ATOM      9  C   UNL     1      48.855  11.483  13.502  0.00  0.00    +0.000 C 
ATOM     10  C   UNL     1      48.072  10.469  12.687  0.00  0.00    +0.000 C 
ATOM     11  C   UNL     1      47.723   9.161  13.433  0.00  0.00    +0.000 C 
ATOM     12  C   UNL     1      48.019   8.496  12.101  0.00  0.00    +0.000 C 
ATOM     13  C   UNL     1      47.668   7.329  11.538  0.00  0.00    +0.000 C 
ATOM     14  C   UNL     1      48.860   9.665  11.618  0.00  0.00    +0.000 C 
ENDBRANCH   3  13
BRANCH   7  15
ATOM     15  C   UNL     1      43.303   4.861  11.816  0.00  0.00    +0.000 C 
ATOM     16  F   UNL     1      42.971   3.547  11.667  0.00  0.00    +0.000 F 
ATOM     17  F   UNL     1      42.379   5.383  12.668  0.00  0.00    +0.000 F 
ATOM     18  F   UNL     1      43.067   5.440  10.606  0.00  0.00    +0.000 F 
ENDBRANCH   7  15
ENDBRANCH   1   5
BRANCH   1  19
ATOM     19  C   UNL     1      46.826   4.089  16.168  0.00  0.00    +0.000 C 
BRANCH  19  20
ATOM     20  C   UNL     1      47.952   4.856  16.895  0.00  0.00    +0.000 C 
ATOM     21  F   UNL     1      48.277   5.958  16.150  0.00  0.00    +0.000 F 
ATOM     22  F   UNL     1      47.463   5.352  18.073  0.00  0.00    +0.000 F 
BRANCH  20  23
ATOM     23  C   UNL     1      49.155   3.936  17.114  0.00  0.00    +0.000 A 
ATOM     24  C   UNL     1      50.324   4.453  17.667  0.00  0.00    +0.000 A 
ATOM     25  C   UNL     1      51.418   3.606  17.861  0.00  0.00    +0.000 A 
ATOM     26  C   UNL     1      51.339   2.260  17.493  0.00  0.00    +0.000 A 
ATOM     27  C   UNL     1      50.143   1.826  16.946  0.00  0.00    +0.000 A 
ATOM     28  N   UNL     1      49.063   2.626  16.745  0.00  0.00    +0.000 NA
BRANCH  26  29
ATOM     29  C   UNL     1      52.516   1.385  17.705  0.00  0.00    +0.000 C 
ATOM     30  N   UNL     1      52.338   0.138  18.238  0.00  0.00    +0.000 N 
ATOM     31  O   UNL     1      53.643   1.762  17.414  0.00  0.00    +0.000 OA
ATOM     32  H   UNL     1      51.460  -0.281  18.507  0.00  0.00    +0.000 HD
ATOM     33  H   UNL     1      53.172  -0.421  18.358  0.00  0.00    +0.000 HD
ENDBRANCH  26  29
ENDBRANCH  20  23
ENDBRANCH  19  20
ENDBRANCH   1  19
TORSDOF 7
ENDMDL
MODEL 8
REMARK VINA RESULT:    -7.308      1.827      2.358
REMARK INTER + INTRA:         -11.904
REMARK INTER:                 -11.030
REMARK INTRA:                  -0.874
REMARK UNBOUND:                -1.605
REMARK  Name = 
REMARK  8 active torsions:
REMARK  status: ('A' for Active; 'I' for Inactive)
REMARK    1  A    between atoms: C_1  and  C_2
REMARK    2  A    between atoms: C_5  and  C_6
REMARK    3  A    between atoms: C_8  and  N_9
REMARK    4  A    between atoms: N_9  and  C_10
REMARK    5  A    between atoms: C_10  and  C_11
REMARK    6  A    between atoms: C_11  and  C_14
REMARK    7  A    between atoms: C_17  and  C_18
REMARK    8  A    between atoms: C_24  and  C_25
REMARK                            x       y       z     vdW  Elec       q    Type
REMARK                         _______ _______ _______ _____ _____    ______ ____
ROOT
ATOM      1  N   UNL     1      45.917   4.208  12.244  0.00  0.00    +0.000 N 
ATOM      2  H   UNL     1      46.202   4.708  11.401  0.00  0.00    +0.000 HD
ENDROOT
BRANCH   1   5
ATOM      3  C   UNL     1      47.945   6.381  14.484  0.00  0.00    +0.000 A 
ATOM      4  C   UNL     1      47.191   5.919  13.391  0.00  0.00    +0.000 A 
ATOM      5  C   UNL     1      46.618   4.638  13.381  0.00  0.00    +0.000 A 
ATOM      6  C   UNL     1      46.871   3.802  14.476  0.00  0.00    +0.000 A 
ATOM      7  C   UNL     1      47.624   4.228  15.576  0.00  0.00    +0.000 A 
ATOM      8  C   UNL     1      48.165   5.516  15.562  0.00  0.00    +0.000 A 
BRANCH   3  13
ATOM      9  C   UNL     1      48.902  10.713  18.147  0.00  0.00    +0.000 C 
ATOM     10  C   UNL     1      48.305  10.033  16.927  0.00  0.00    +0.000 C 
ATOM     11  C   UNL     1      48.284   8.489  16.986  0.00  0.00    +0.000 C 
ATOM     12  C   UNL     1      48.636   8.575  15.512  0.00  0.00    +0.000 C 
ATOM     13  C   UNL     1      48.507   7.742  14.466  0.00  0.00    +0.000 C 
ATOM     14  C   UNL     1      49.182   9.986  15.647  0.00  0.00    +0.000 C 
ENDBRANCH   3  13
BRANCH   7  15
ATOM     15  C   UNL     1      47.847   3.321  16.756  0.00  0.00    +0.000 C 
ATOM     16  F   UNL     1      48.502   3.922  17.790  0.00  0.00    +0.000 F 
ATOM     17  F   UNL     1      46.684   2.846  17.280  0.00  0.00    +0.000 F 
ATOM     18  F   UNL     1      48.590   2.225  16.436  0.00  0.00    +0.000 F 
ENDBRANCH   7  15
ENDBRANCH   1   5
BRANCH   1  19
ATOM     19  C   UNL     1      44.452   4.021  12.358  0.00  0.00    +0.000 C 
BRANCH  19  20
ATOM     20  C   UNL     1      43.688   3.945  11.018  0.00  0.00    +0.000 C 
ATOM     21  F   UNL     1      42.651   3.062  11.160  0.00  0.00    +0.000 F 
ATOM     22  F   UNL     1      43.098   5.155  10.774  0.00  0.00    +0.000 F 
BRANCH  20  23
ATOM     23  C   UNL     1      44.643   3.534   9.895  0.00  0.00    +0.000 A 
ATOM     24  C   UNL     1      45.195   4.510   9.070  0.00  0.00    +0.000 A 
ATOM     25  C   UNL     1      46.064   4.125   8.046  0.00  0.00    +0.000 A 
ATOM     26  C   UNL     1      46.364   2.774   7.850  0.00  0.00    +0.000 A 
ATOM     27  C   UNL     1      45.770   1.866   8.711  0.00  0.00    +0.000 A 
ATOM     28  N   UNL     1      44.921   2.210   9.714  0.00  0.00    +0.000 NA
BRANCH  26  29
ATOM     29  C   UNL     1      47.284   2.392   6.753  0.00  0.00    +0.000 C 
ATOM     30  N   UNL     1      47.283   3.116   5.593  0.00  0.00    +0.000 N 
ATOM     31  O   UNL     1      48.042   1.438   6.869  0.00  0.00    +0.000 OA
ATOM     32  H   UNL     1      46.711   3.922   5.388  0.00  0.00    +0.000 HD
ATOM     33  H   UNL     1      47.932   2.817   4.878  0.00  0.00    +0.000 HD
ENDBRANCH  26  29
ENDBRANCH  20  23
ENDBRANCH  19  20
ENDBRANCH   1  19
TORSDOF 7
ENDMDL
MODEL 9
REMARK VINA RESULT:    -7.192      2.332      4.557
REMARK INTER + INTRA:         -11.740
REMARK INTER:                 -10.951
REMARK INTRA:                  -0.789
REMARK UNBOUND:                -1.605
REMARK  Name = 
REMARK  8 active torsions:
REMARK  status: ('A' for Active; 'I' for Inactive)
REMARK    1  A    between atoms: C_1  and  C_2
REMARK    2  A    between atoms: C_5  and  C_6
REMARK    3  A    between atoms: C_8  and  N_9
REMARK    4  A    between atoms: N_9  and  C_10
REMARK    5  A    between atoms: C_10  and  C_11
REMARK    6  A    between atoms: C_11  and  C_14
REMARK    7  A    between atoms: C_17  and  C_18
REMARK    8  A    between atoms: C_24  and  C_25
REMARK                            x       y       z     vdW  Elec       q    Type
REMARK                         _______ _______ _______ _____ _____    ______ ____
ROOT
ATOM      1  N   UNL     1      46.031   4.235  12.070  0.00  0.00    +0.000 N 
ATOM      2  H   UNL     1      46.281   4.540  11.129  0.00  0.00    +0.000 HD
ENDROOT
BRANCH   1   5
ATOM      3  C   UNL     1      47.505   5.009  15.399  0.00  0.00    +0.000 A 
ATOM      4  C   UNL     1      46.814   4.364  14.359  0.00  0.00    +0.000 A 
ATOM      5  C   UNL     1      46.777   4.893  13.060  0.00  0.00    +0.000 A 
ATOM      6  C   UNL     1      47.405   6.126  12.841  0.00  0.00    +0.000 A 
ATOM      7  C   UNL     1      48.094   6.798  13.856  0.00  0.00    +0.000 A 
ATOM      8  C   UNL     1      48.127   6.234  15.134  0.00  0.00    +0.000 A 
BRANCH   3  13
ATOM      9  C   UNL     1      50.949   4.917  20.006  0.00  0.00    +0.000 C 
ATOM     10  C   UNL     1      50.176   4.327  18.840  0.00  0.00    +0.000 C 
ATOM     11  C   UNL     1      49.805   5.334  17.727  0.00  0.00    +0.000 C 
ATOM     12  C   UNL     1      48.497   4.566  17.672  0.00  0.00    +0.000 C 
ATOM     13  C   UNL     1      47.542   4.406  16.742  0.00  0.00    +0.000 C 
ATOM     14  C   UNL     1      48.673   4.015  19.077  0.00  0.00    +0.000 C 
ENDBRANCH   3  13
BRANCH   7  15
ATOM     15  C   UNL     1      48.792   8.103  13.581  0.00  0.00    +0.000 C 
ATOM     16  F   UNL     1      49.743   8.418  14.506  0.00  0.00    +0.000 F 
ATOM     17  F   UNL     1      49.426   8.116  12.377  0.00  0.00    +0.000 F 
ATOM     18  F   UNL     1      47.931   9.159  13.563  0.00  0.00    +0.000 F 
ENDBRANCH   7  15
ENDBRANCH   1   5
BRANCH   1  19
ATOM     19  C   UNL     1      44.572   4.088  12.280  0.00  0.00    +0.000 C 
BRANCH  19  20
ATOM     20  C   UNL     1      43.741   3.845  11.001  0.00  0.00    +0.000 C 
ATOM     21  F   UNL     1      42.807   2.880  11.268  0.00  0.00    +0.000 F 
ATOM     22  F   UNL     1      43.020   4.973  10.717  0.00  0.00    +0.000 F 
BRANCH  20  23
ATOM     23  C   UNL     1      44.663   3.447   9.846  0.00  0.00    +0.000 A 
ATOM     24  C   UNL     1      45.172   4.430   9.002  0.00  0.00    +0.000 A 
ATOM     25  C   UNL     1      46.011   4.056   7.950  0.00  0.00    +0.000 A 
ATOM     26  C   UNL     1      46.326   2.711   7.745  0.00  0.00    +0.000 A 
ATOM     27  C   UNL     1      45.776   1.795   8.626  0.00  0.00    +0.000 A 
ATOM     28  N   UNL     1      44.957   2.127   9.658  0.00  0.00    +0.000 NA
BRANCH  26  29
ATOM     29  C   UNL     1      47.214   2.341   6.618  0.00  0.00    +0.000 C 
ATOM     30  N   UNL     1      47.195   3.090   5.474  0.00  0.00    +0.000 N 
ATOM     31  O   UNL     1      47.961   1.375   6.694  0.00  0.00    +0.000 OA
ATOM     32  H   UNL     1      46.630   3.908   5.301  0.00  0.00    +0.000 HD
ATOM     33  H   UNL     1      47.823   2.799   4.737  0.00  0.00    +0.000 HD
ENDBRANCH  26  29
ENDBRANCH  20  23
ENDBRANCH  19  20
ENDBRANCH   1  19
TORSDOF 7
ENDMDL
