MODEL 1
REMARK VINA RESULT:    -8.793      0.000      0.000
REMARK INTER + INTRA:         -11.390
REMARK INTER:                 -10.849
REMARK INTRA:                  -0.541
REMARK UNBOUND:                -0.541
REMARK  Name = 
REMARK  4 active torsions:
REMARK  status: ('A' for Active; 'I' for Inactive)
REMARK    1  A    between atoms: C_2  and  C_4
REMARK    2  A    between atoms: N_8  and  C_9
REMARK    3  A    between atoms: C_9  and  C_10
REMARK    4  A    between atoms: C_14  and  C_15
REMARK                            x       y       z     vdW  Elec       q    Type
REMARK                         _______ _______ _______ _____ _____    ______ ____
ROOT
ATOM      1  C   UNL     1      43.615   3.728  11.203  0.00  0.00    +0.000 C 
ENDROOT
BRANCH   1   6
ATOM      2  C   UNL     1      46.606   2.494   7.183  0.00  0.00    +0.000 A 
ATOM      3  C   UNL     1      45.973   3.688   7.503  0.00  0.00    +0.000 A 
ATOM      4  C   UNL     1      45.182   3.750   8.649  0.00  0.00    +0.000 A 
ATOM      5  C   UNL     1      45.030   2.624   9.449  0.00  0.00    +0.000 A 
ATOM      6  N   UNL     1      44.340   2.623  10.628  0.00  0.00    +0.000 N 
ATOM      7  N   UNL     1      45.605   1.450   9.123  0.00  0.00    +0.000 NA
ATOM      8  C   UNL     1      46.373   1.401   8.001  0.00  0.00    +0.000 A 
ATOM      9  H   UNL     1      44.255   1.701  11.036  0.00  0.00    +0.000 HD
BRANCH   2  11
ATOM     10  N   UNL     1      47.423   3.331   5.057  0.00  0.00    +0.000 N 
ATOM     11  C   UNL     1      47.506   2.362   6.021  0.00  0.00    +0.000 C 
ATOM     12  O   UNL     1      48.321   1.453   5.940  0.00  0.00    +0.000 OA
ATOM     13  H   UNL     1      48.119   3.293   4.323  0.00  0.00    +0.000 HD
ATOM     14  H   UNL     1      46.962   4.216   5.214  0.00  0.00    +0.000 HD
ENDBRANCH   2  11
ENDBRANCH   1   6
BRANCH   1  15
ATOM     15  C   UNL     1      44.557   4.757  11.768  0.00  0.00    +0.000 A 
ATOM     16  C   UNL     1      44.655   6.039  11.223  0.00  0.00    +0.000 A 
ATOM     17  C   UNL     1      45.525   6.940  11.813  0.00  0.00    +0.000 A 
ATOM     18  N   UNL     1      46.300   6.651  12.880  0.00  0.00    +0.000 NA
ATOM     19  C   UNL     1      46.220   5.402  13.403  0.00  0.00    +0.000 A 
ATOM     20  C   UNL     1      45.357   4.444  12.871  0.00  0.00    +0.000 A 
BRANCH  19  21
ATOM     21  C   UNL     1      47.086   5.127  14.558  0.00  0.00    +0.000 A 
ATOM     22  C   UNL     1      48.135   5.985  14.902  0.00  0.00    +0.000 A 
ATOM     23  N   UNL     1      48.964   5.817  15.968  0.00  0.00    +0.000 NA
ATOM     24  C   UNL     1      48.746   4.724  16.731  0.00  0.00    +0.000 A 
ATOM     25  C   UNL     1      47.749   3.805  16.472  0.00  0.00    +0.000 A 
ATOM     26  F   UNL     1      47.579   2.735  17.258  0.00  0.00    +0.000 F 
ATOM     27  C   UNL     1      46.914   4.002  15.380  0.00  0.00    +0.000 A 
ENDBRANCH  19  21
ENDBRANCH   1  15
TORSDOF 4
ENDMDL
MODEL 2
REMARK VINA RESULT:    -8.587      2.535      4.094
REMARK INTER + INTRA:         -11.136
REMARK INTER:                 -10.533
REMARK INTRA:                  -0.603
REMARK UNBOUND:                -0.541
REMARK  Name = 
REMARK  4 active torsions:
REMARK  status: ('A' for Active; 'I' for Inactive)
REMARK    1  A    between atoms: C_2  and  C_4
REMARK    2  A    between atoms: N_8  and  C_9
REMARK    3  A    between atoms: C_9  and  C_10
REMARK    4  A    between atoms: C_14  and  C_15
REMARK                            x       y       z     vdW  Elec       q    Type
REMARK                         _______ _______ _______ _____ _____    ______ ____
ROOT
ATOM      1  C   UNL     1      43.424   3.713  11.219  0.00  0.00    +0.000 C 
ENDROOT
BRANCH   1   6
ATOM      2  C   UNL     1      46.551   2.497   7.298  0.00  0.00    +0.000 A 
ATOM      3  C   UNL     1      46.011   3.720   7.676  0.00  0.00    +0.000 A 
ATOM      4  C   UNL     1      45.154   3.773   8.773  0.00  0.00    +0.000 A 
ATOM      5  C   UNL     1      44.845   2.610   9.470  0.00  0.00    +0.000 A 
ATOM      6  N   UNL     1      44.080   2.588  10.601  0.00  0.00    +0.000 N 
ATOM      7  N   UNL     1      45.329   1.413   9.084  0.00  0.00    +0.000 NA
ATOM      8  C   UNL     1      46.162   1.374   8.010  0.00  0.00    +0.000 A 
ATOM      9  H   UNL     1      43.882   1.651  10.927  0.00  0.00    +0.000 HD
BRANCH   2  11
ATOM     10  N   UNL     1      47.411   3.276   5.167  0.00  0.00    +0.000 N 
ATOM     11  C   UNL     1      47.510   2.365   6.185  0.00  0.00    +0.000 C 
ATOM     12  O   UNL     1      48.384   1.509   6.188  0.00  0.00    +0.000 OA
ATOM     13  H   UNL     1      48.141   3.246   4.467  0.00  0.00    +0.000 HD
ATOM     14  H   UNL     1      46.888   4.136   5.257  0.00  0.00    +0.000 HD
ENDBRANCH   2  11
ENDBRANCH   1   6
BRANCH   1  15
ATOM     15  C   UNL     1      44.415   4.591  11.933  0.00  0.00    +0.000 A 
ATOM     16  C   UNL     1      45.292   4.078  12.891  0.00  0.00    +0.000 A 
ATOM     17  C   UNL     1      46.193   4.943  13.489  0.00  0.00    +0.000 A 
ATOM     18  N   UNL     1      46.270   6.262  13.210  0.00  0.00    +0.000 NA
ATOM     19  C   UNL     1      45.411   6.767  12.292  0.00  0.00    +0.000 A 
ATOM     20  C   UNL     1      44.483   5.957  11.639  0.00  0.00    +0.000 A 
BRANCH  19  21
ATOM     21  C   UNL     1      45.522   8.208  12.024  0.00  0.00    +0.000 A 
ATOM     22  C   UNL     1      44.483   8.918  11.413  0.00  0.00    +0.000 A 
ATOM     23  N   UNL     1      44.496  10.254  11.156  0.00  0.00    +0.000 NA
ATOM     24  C   UNL     1      45.613  10.923  11.515  0.00  0.00    +0.000 A 
ATOM     25  C   UNL     1      46.702  10.318  12.109  0.00  0.00    +0.000 A 
ATOM     26  F   UNL     1      47.788  11.028  12.440  0.00  0.00    +0.000 F 
ATOM     27  C   UNL     1      46.662   8.953  12.365  0.00  0.00    +0.000 A 
ENDBRANCH  19  21
ENDBRANCH   1  15
TORSDOF 4
ENDMDL
MODEL 3
REMARK VINA RESULT:    -8.178      3.468      7.184
REMARK INTER + INTRA:         -10.631
REMARK INTER:                  -9.946
REMARK INTRA:                  -0.685
REMARK UNBOUND:                -0.541
REMARK  Name = 
REMARK  4 active torsions:
REMARK  status: ('A' for Active; 'I' for Inactive)
REMARK    1  A    between atoms: C_2  and  C_4
REMARK    2  A    between atoms: N_8  and  C_9
REMARK    3  A    between atoms: C_9  and  C_10
REMARK    4  A    between atoms: C_14  and  C_15
REMARK                            x       y       z     vdW  Elec       q    Type
REMARK                         _______ _______ _______ _____ _____    ______ ____
ROOT
ATOM      1  C   UNL     1      44.503   5.959  12.823  0.00  0.00    +0.000 C 
ENDROOT
BRANCH   1   6
ATOM      2  C   UNL     1      49.374   7.637  12.538  0.00  0.00    +0.000 A 
ATOM      3  C   UNL     1      48.314   7.792  11.655  0.00  0.00    +0.000 A 
ATOM      4  C   UNL     1      47.088   7.203  11.957  0.00  0.00    +0.000 A 
ATOM      5  C   UNL     1      46.942   6.464  13.125  0.00  0.00    +0.000 A 
ATOM      6  N   UNL     1      45.756   5.923  13.533  0.00  0.00    +0.000 N 
ATOM      7  N   UNL     1      47.977   6.271  13.965  0.00  0.00    +0.000 NA
ATOM      8  C   UNL     1      49.169   6.850  13.659  0.00  0.00    +0.000 A 
ATOM      9  H   UNL     1      45.848   5.344  14.358  0.00  0.00    +0.000 HD
BRANCH   2  11
ATOM     10  N   UNL     1      51.673   7.996  13.228  0.00  0.00    +0.000 N 
ATOM     11  C   UNL     1      50.686   8.277  12.321  0.00  0.00    +0.000 C 
ATOM     12  O   UNL     1      50.899   8.992  11.352  0.00  0.00    +0.000 OA
ATOM     13  H   UNL     1      52.596   8.349  13.009  0.00  0.00    +0.000 HD
ATOM     14  H   UNL     1      51.612   7.221  13.874  0.00  0.00    +0.000 HD
ENDBRANCH   2  11
ENDBRANCH   1   6
BRANCH   1  15
ATOM     15  C   UNL     1      44.287   4.692  12.042  0.00  0.00    +0.000 A 
ATOM     16  C   UNL     1      43.384   3.715  12.466  0.00  0.00    +0.000 A 
ATOM     17  C   UNL     1      43.220   2.585  11.682  0.00  0.00    +0.000 A 
ATOM     18  N   UNL     1      43.891   2.362  10.532  0.00  0.00    +0.000 NA
ATOM     19  C   UNL     1      44.780   3.302  10.124  0.00  0.00    +0.000 A 
ATOM     20  C   UNL     1      44.991   4.471  10.854  0.00  0.00    +0.000 A 
BRANCH  19  21
ATOM     21  C   UNL     1      45.495   3.016   8.872  0.00  0.00    +0.000 A 
ATOM     22  C   UNL     1      45.791   4.030   7.955  0.00  0.00    +0.000 A 
ATOM     23  N   UNL     1      46.472   3.854   6.789  0.00  0.00    +0.000 NA
ATOM     24  C   UNL     1      46.869   2.594   6.511  0.00  0.00    +0.000 A 
ATOM     25  C   UNL     1      46.615   1.519   7.338  0.00  0.00    +0.000 A 
ATOM     26  F   UNL     1      47.028   0.287   7.012  0.00  0.00    +0.000 F 
ATOM     27  C   UNL     1      45.923   1.725   8.524  0.00  0.00    +0.000 A 
ENDBRANCH  19  21
ENDBRANCH   1  15
TORSDOF 4
ENDMDL
MODEL 4
REMARK VINA RESULT:    -8.130      2.882      4.020
REMARK INTER + INTRA:         -10.573
REMARK INTER:                  -9.922
REMARK INTRA:                  -0.650
REMARK UNBOUND:                -0.541
REMARK  Name = 
REMARK  4 active torsions:
REMARK  status: ('A' for Active; 'I' for Inactive)
REMARK    1  A    between atoms: C_2  and  C_4
REMARK    2  A    between atoms: N_8  and  C_9
REMARK    3  A    between atoms: C_9  and  C_10
REMARK    4  A    between atoms: C_14  and  C_15
REMARK                            x       y       z     vdW  Elec       q    Type
REMARK                         _______ _______ _______ _____ _____    ______ ____
ROOT
ATOM      1  C   UNL     1      43.806   4.941  11.200  0.00  0.00    +0.000 C 
ENDROOT
BRANCH   1   6
ATOM      2  C   UNL     1      46.545   2.702   7.444  0.00  0.00    +0.000 A 
ATOM      3  C   UNL     1      46.341   4.045   7.733  0.00  0.00    +0.000 A 
ATOM      4  C   UNL     1      45.517   4.390   8.803  0.00  0.00    +0.000 A 
ATOM      5  C   UNL     1      44.906   3.396   9.558  0.00  0.00    +0.000 A 
ATOM      6  N   UNL     1      44.150   3.647  10.667  0.00  0.00    +0.000 N 
ATOM      7  N   UNL     1      45.063   2.092   9.257  0.00  0.00    +0.000 NA
ATOM      8  C   UNL     1      45.867   1.767   8.210  0.00  0.00    +0.000 A 
ATOM      9  H   UNL     1      43.710   2.817  11.043  0.00  0.00    +0.000 HD
BRANCH   2  11
ATOM     10  N   UNL     1      47.523   3.040   5.249  0.00  0.00    +0.000 N 
ATOM     11  C   UNL     1      47.448   2.252   6.367  0.00  0.00    +0.000 C 
ATOM     12  O   UNL     1      48.132   1.246   6.481  0.00  0.00    +0.000 OA
ATOM     13  H   UNL     1      48.225   2.784   4.567  0.00  0.00    +0.000 HD
ATOM     14  H   UNL     1      47.183   3.992   5.231  0.00  0.00    +0.000 HD
ENDBRANCH   2  11
ENDBRANCH   1   6
BRANCH   1  15
ATOM     15  C   UNL     1      44.936   5.508  12.016  0.00  0.00    +0.000 A 
ATOM     16  C   UNL     1      45.479   4.813  13.098  0.00  0.00    +0.000 A 
ATOM     17  C   UNL     1      46.535   5.387  13.786  0.00  0.00    +0.000 A 
ATOM     18  N   UNL     1      47.067   6.590  13.483  0.00  0.00    +0.000 NA
ATOM     19  C   UNL     1      46.533   7.276  12.442  0.00  0.00    +0.000 A 
ATOM     20  C   UNL     1      45.477   6.757  11.694  0.00  0.00    +0.000 A 
BRANCH  19  21
ATOM     21  C   UNL     1      47.135   8.584  12.151  0.00  0.00    +0.000 A 
ATOM     22  C   UNL     1      46.375   9.758  12.175  0.00  0.00    +0.000 A 
ATOM     23  N   UNL     1      46.861  11.008  11.945  0.00  0.00    +0.000 NA
ATOM     24  C   UNL     1      48.178  11.097  11.659  0.00  0.00    +0.000 A 
ATOM     25  C   UNL     1      49.015  10.001  11.594  0.00  0.00    +0.000 A 
ATOM     26  F   UNL     1      50.313  10.144  11.301  0.00  0.00    +0.000 F 
ATOM     27  C   UNL     1      48.495   8.736  11.837  0.00  0.00    +0.000 A 
ENDBRANCH  19  21
ENDBRANCH   1  15
TORSDOF 4
ENDMDL
MODEL 5
REMARK VINA RESULT:    -7.574      3.942      8.398
REMARK INTER + INTRA:          -9.886
REMARK INTER:                  -9.456
REMARK INTRA:                  -0.431
REMARK UNBOUND:                -0.541
REMARK  Name = 
REMARK  4 active torsions:
REMARK  status: ('A' for Active; 'I' for Inactive)
REMARK    1  A    between atoms: C_2  and  C_4
REMARK    2  A    between atoms: N_8  and  C_9
REMARK    3  A    between atoms: C_9  and  C_10
REMARK    4  A    between atoms: C_14  and  C_15
REMARK                            x       y       z     vdW  Elec       q    Type
REMARK                         _______ _______ _______ _____ _____    ______ ____
ROOT
ATOM      1  C   UNL     1      45.865   5.318  13.664  0.00  0.00    +0.000 C 
ENDROOT
BRANCH   1   6
ATOM      2  C   UNL     1      48.973   4.428  17.687  0.00  0.00    +0.000 A 
ATOM      3  C   UNL     1      48.937   5.489  16.791  0.00  0.00    +0.000 A 
ATOM      4  C   UNL     1      48.005   5.472  15.756  0.00  0.00    +0.000 A 
ATOM      5  C   UNL     1      47.131   4.399  15.626  0.00  0.00    +0.000 A 
ATOM      6  N   UNL     1      46.138   4.343  14.691  0.00  0.00    +0.000 N 
ATOM      7  N   UNL     1      47.188   3.345  16.463  0.00  0.00    +0.000 NA
ATOM      8  C   UNL     1      48.103   3.372  17.468  0.00  0.00    +0.000 A 
ATOM      9  H   UNL     1      45.654   3.454  14.680  0.00  0.00    +0.000 HD
BRANCH   2  11
ATOM     10  N   UNL     1      51.088   3.759  18.668  0.00  0.00    +0.000 N 
ATOM     11  C   UNL     1      49.889   4.397  18.843  0.00  0.00    +0.000 C 
ATOM     12  O   UNL     1      49.613   4.952  19.897  0.00  0.00    +0.000 OA
ATOM     13  H   UNL     1      51.753   3.840  19.427  0.00  0.00    +0.000 HD
ATOM     14  H   UNL     1      51.452   3.526  17.755  0.00  0.00    +0.000 HD
ENDBRANCH   2  11
ENDBRANCH   1   6
BRANCH   1  15
ATOM     15  C   UNL     1      45.045   4.719  12.555  0.00  0.00    +0.000 A 
ATOM     16  C   UNL     1      43.661   4.568  12.666  0.00  0.00    +0.000 A 
ATOM     17  C   UNL     1      42.970   4.031  11.593  0.00  0.00    +0.000 A 
ATOM     18  N   UNL     1      43.554   3.631  10.443  0.00  0.00    +0.000 NA
ATOM     19  C   UNL     1      44.900   3.762  10.337  0.00  0.00    +0.000 A 
ATOM     20  C   UNL     1      45.662   4.304  11.370  0.00  0.00    +0.000 A 
BRANCH  19  21
ATOM     21  C   UNL     1      45.497   3.307   9.074  0.00  0.00    +0.000 A 
ATOM     22  C   UNL     1      45.809   4.207   8.050  0.00  0.00    +0.000 A 
ATOM     23  N   UNL     1      46.386   3.871   6.864  0.00  0.00    +0.000 NA
ATOM     24  C   UNL     1      46.658   2.561   6.678  0.00  0.00    +0.000 A 
ATOM     25  C   UNL     1      46.376   1.589   7.616  0.00  0.00    +0.000 A 
ATOM     26  F   UNL     1      46.661   0.302   7.379  0.00  0.00    +0.000 F 
ATOM     27  C   UNL     1      45.790   1.957   8.820  0.00  0.00    +0.000 A 
ENDBRANCH  19  21
ENDBRANCH   1  15
TORSDOF 4
ENDMDL
MODEL 6
REMARK VINA RESULT:    -6.923      4.353      8.500
REMARK INTER + INTRA:          -9.083
REMARK INTER:                  -8.406
REMARK INTRA:                  -0.677
REMARK UNBOUND:                -0.541
REMARK  Name = 
REMARK  4 active torsions:
REMARK  status: ('A' for Active; 'I' for Inactive)
REMARK    1  A    between atoms: C_2  and  C_4
REMARK    2  A    between atoms: N_8  and  C_9
REMARK    3  A    between atoms: C_9  and  C_10
REMARK    4  A    between atoms: C_14  and  C_15
REMARK                            x       y       z     vdW  Elec       q    Type
REMARK                         _______ _______ _______ _____ _____    ______ ____
ROOT
ATOM      1  C   UNL     1      47.606   3.994  17.023  0.00  0.00    +0.000 C 
ENDROOT
BRANCH   1   6
ATOM      2  C   UNL     1      52.409   2.337  17.929  0.00  0.00    +0.000 A 
ATOM      3  C   UNL     1      51.829   3.581  18.140  0.00  0.00    +0.000 A 
ATOM      4  C   UNL     1      50.500   3.781  17.772  0.00  0.00    +0.000 A 
ATOM      5  C   UNL     1      49.775   2.745  17.195  0.00  0.00    +0.000 A 
ATOM      6  N   UNL     1      48.449   2.834  16.881  0.00  0.00    +0.000 N 
ATOM      7  N   UNL     1      50.343   1.548  16.946  0.00  0.00    +0.000 NA
ATOM      8  C   UNL     1      51.641   1.366  17.307  0.00  0.00    +0.000 A 
ATOM      9  H   UNL     1      48.103   2.020  16.389  0.00  0.00    +0.000 HD
BRANCH   2  11
ATOM     10  N   UNL     1      54.797   2.705  17.707  0.00  0.00    +0.000 N 
ATOM     11  C   UNL     1      53.791   2.027  18.342  0.00  0.00    +0.000 C 
ATOM     12  O   UNL     1      54.029   1.233  19.241  0.00  0.00    +0.000 OA
ATOM     13  H   UNL     1      55.730   2.568  18.074  0.00  0.00    +0.000 HD
ATOM     14  H   UNL     1      54.630   3.539  17.162  0.00  0.00    +0.000 HD
ENDBRANCH   2  11
ENDBRANCH   1   6
BRANCH   1  15
ATOM     15  C   UNL     1      47.529   4.766  15.735  0.00  0.00    +0.000 A 
ATOM     16  C   UNL     1      48.329   5.887  15.502  0.00  0.00    +0.000 A 
ATOM     17  C   UNL     1      48.219   6.532  14.281  0.00  0.00    +0.000 A 
ATOM     18  N   UNL     1      47.373   6.151  13.301  0.00  0.00    +0.000 NA
ATOM     19  C   UNL     1      46.583   5.072  13.528  0.00  0.00    +0.000 A 
ATOM     20  C   UNL     1      46.645   4.364  14.727  0.00  0.00    +0.000 A 
BRANCH  19  21
ATOM     21  C   UNL     1      45.672   4.696  12.439  0.00  0.00    +0.000 A 
ATOM     22  C   UNL     1      45.652   5.400  11.230  0.00  0.00    +0.000 A 
ATOM     23  N   UNL     1      44.859   5.101  10.165  0.00  0.00    +0.000 NA
ATOM     24  C   UNL     1      44.027   4.048  10.313  0.00  0.00    +0.000 A 
ATOM     25  C   UNL     1      43.955   3.296  11.468  0.00  0.00    +0.000 A 
ATOM     26  F   UNL     1      43.107   2.264  11.565  0.00  0.00    +0.000 F 
ATOM     27  C   UNL     1      44.777   3.619  12.540  0.00  0.00    +0.000 A 
ENDBRANCH  19  21
ENDBRANCH   1  15
TORSDOF 4
ENDMDL
MODEL 7
REMARK VINA RESULT:    -6.698      4.364      8.765
REMARK INTER + INTRA:          -8.805
REMARK INTER:                  -8.327
REMARK INTRA:                  -0.478
REMARK UNBOUND:                -0.541
REMARK  Name = 
REMARK  4 active torsions:
REMARK  status: ('A' for Active; 'I' for Inactive)
REMARK    1  A    between atoms: C_2  and  C_4
REMARK    2  A    between atoms: N_8  and  C_9
REMARK    3  A    between atoms: C_9  and  C_10
REMARK    4  A    between atoms: C_14  and  C_15
REMARK                            x       y       z     vdW  Elec       q    Type
REMARK                         _______ _______ _______ _____ _____    ______ ____
ROOT
ATOM      1  C   UNL     1      47.919   7.485  13.849  0.00  0.00    +0.000 C 
ENDROOT
BRANCH   1   6
ATOM      2  C   UNL     1      49.420   5.691  18.449  0.00  0.00    +0.000 A 
ATOM      3  C   UNL     1      49.464   6.976  17.924  0.00  0.00    +0.000 A 
ATOM      4  C   UNL     1      49.018   7.192  16.621  0.00  0.00    +0.000 A 
ATOM      5  C   UNL     1      48.546   6.127  15.863  0.00  0.00    +0.000 A 
ATOM      6  N   UNL     1      48.018   6.267  14.611  0.00  0.00    +0.000 N 
ATOM      7  N   UNL     1      48.540   4.870  16.349  0.00  0.00    +0.000 NA
ATOM      8  C   UNL     1      48.979   4.672  17.621  0.00  0.00    +0.000 A 
ATOM      9  H   UNL     1      47.804   5.380  14.171  0.00  0.00    +0.000 HD
BRANCH   2  11
ATOM     10  N   UNL     1      50.713   4.369  20.019  0.00  0.00    +0.000 N 
ATOM     11  C   UNL     1      49.817   5.389  19.837  0.00  0.00    +0.000 C 
ATOM     12  O   UNL     1      49.402   6.045  20.782  0.00  0.00    +0.000 OA
ATOM     13  H   UNL     1      51.064   4.244  20.960  0.00  0.00    +0.000 HD
ATOM     14  H   UNL     1      51.266   3.990  19.263  0.00  0.00    +0.000 HD
ENDBRANCH   2  11
ENDBRANCH   1   6
BRANCH   1  15
ATOM     15  C   UNL     1      46.757   7.434  12.895  0.00  0.00    +0.000 A 
ATOM     16  C   UNL     1      45.912   8.530  12.709  0.00  0.00    +0.000 A 
ATOM     17  C   UNL     1      44.878   8.416  11.795  0.00  0.00    +0.000 A 
ATOM     18  N   UNL     1      44.626   7.300  11.077  0.00  0.00    +0.000 NA
ATOM     19  C   UNL     1      45.434   6.228  11.267  0.00  0.00    +0.000 A 
ATOM     20  C   UNL     1      46.503   6.271  12.160  0.00  0.00    +0.000 A 
BRANCH  19  21
ATOM     21  C   UNL     1      45.119   5.032  10.473  0.00  0.00    +0.000 A 
ATOM     22  C   UNL     1      44.356   3.987  11.002  0.00  0.00    +0.000 A 
ATOM     23  N   UNL     1      43.998   2.861  10.327  0.00  0.00    +0.000 NA
ATOM     24  C   UNL     1      44.437   2.760   9.054  0.00  0.00    +0.000 A 
ATOM     25  C   UNL     1      45.208   3.725   8.439  0.00  0.00    +0.000 A 
ATOM     26  F   UNL     1      45.621   3.574   7.175  0.00  0.00    +0.000 F 
ATOM     27  C   UNL     1      45.556   4.868   9.149  0.00  0.00    +0.000 A 
ENDBRANCH  19  21
ENDBRANCH   1  15
TORSDOF 4
ENDMDL
MODEL 8
REMARK VINA RESULT:    -6.605      3.197      4.732
REMARK INTER + INTRA:          -8.691
REMARK INTER:                  -7.970
REMARK INTRA:                  -0.720
REMARK UNBOUND:                -0.541
REMARK  Name = 
REMARK  4 active torsions:
REMARK  status: ('A' for Active; 'I' for Inactive)
REMARK    1  A    between atoms: C_2  and  C_4
REMARK    2  A    between atoms: N_8  and  C_9
REMARK    3  A    between atoms: C_9  and  C_10
REMARK    4  A    between atoms: C_14  and  C_15
REMARK                            x       y       z     vdW  Elec       q    Type
REMARK                         _______ _______ _______ _____ _____    ______ ____
ROOT
ATOM      1  C   UNL     1      46.198   8.842  12.493  0.00  0.00    +0.000 C 
ENDROOT
BRANCH   1   6
ATOM      2  C   UNL     1      44.247   4.189  11.409  0.00  0.00    +0.000 A 
ATOM      3  C   UNL     1      45.070   5.020  10.659  0.00  0.00    +0.000 A 
ATOM      4  C   UNL     1      45.433   6.261  11.176  0.00  0.00    +0.000 A 
ATOM      5  C   UNL     1      44.966   6.657  12.424  0.00  0.00    +0.000 A 
ATOM      6  N   UNL     1      45.339   7.820  13.036  0.00  0.00    +0.000 N 
ATOM      7  N   UNL     1      44.132   5.877  13.139  0.00  0.00    +0.000 NA
ATOM      8  C   UNL     1      43.782   4.669  12.623  0.00  0.00    +0.000 A 
ATOM      9  H   UNL     1      44.837   7.992  13.898  0.00  0.00    +0.000 HD
BRANCH   2  11
ATOM     10  N   UNL     1      44.603   2.286   9.947  0.00  0.00    +0.000 N 
ATOM     11  C   UNL     1      43.864   2.837  10.959  0.00  0.00    +0.000 C 
ATOM     12  O   UNL     1      42.955   2.216  11.492  0.00  0.00    +0.000 OA
ATOM     13  H   UNL     1      44.405   1.319   9.723  0.00  0.00    +0.000 HD
ATOM     14  H   UNL     1      45.504   2.652   9.671  0.00  0.00    +0.000 HD
ENDBRANCH   2  11
ENDBRANCH   1   6
BRANCH   1  15
ATOM     15  C   UNL     1      47.646   8.515  12.738  0.00  0.00    +0.000 A 
ATOM     16  C   UNL     1      48.637   8.837  11.808  0.00  0.00    +0.000 A 
ATOM     17  C   UNL     1      49.952   8.527  12.114  0.00  0.00    +0.000 A 
ATOM     18  N   UNL     1      50.337   7.920  13.256  0.00  0.00    +0.000 NA
ATOM     19  C   UNL     1      49.377   7.592  14.155  0.00  0.00    +0.000 A 
ATOM     20  C   UNL     1      48.033   7.882  13.924  0.00  0.00    +0.000 A 
BRANCH  19  21
ATOM     21  C   UNL     1      49.838   6.925  15.381  0.00  0.00    +0.000 A 
ATOM     22  C   UNL     1      51.169   7.012  15.801  0.00  0.00    +0.000 A 
ATOM     23  N   UNL     1      51.669   6.448  16.933  0.00  0.00    +0.000 NA
ATOM     24  C   UNL     1      50.798   5.743  17.688  0.00  0.00    +0.000 A 
ATOM     25  C   UNL     1      49.468   5.581  17.358  0.00  0.00    +0.000 A 
ATOM     26  F   UNL     1      48.648   4.867  18.139  0.00  0.00    +0.000 F 
ATOM     27  C   UNL     1      48.981   6.170  16.198  0.00  0.00    +0.000 A 
ENDBRANCH  19  21
ENDBRANCH   1  15
TORSDOF 4
ENDMDL
MODEL 9
REMARK VINA RESULT:    -6.558      4.425      8.864
REMARK INTER + INTRA:          -8.632
REMARK INTER:                  -7.985
REMARK INTRA:                  -0.647
REMARK UNBOUND:                -0.541
REMARK  Name = 
REMARK  4 active torsions:
REMARK  status: ('A' for Active; 'I' for Inactive)
REMARK    1  A    between atoms: C_2  and  C_4
REMARK    2  A    between atoms: N_8  and  C_9
REMARK    3  A    between atoms: C_9  and  C_10
REMARK    4  A    between atoms: C_14  and  C_15
REMARK                            x       y       z     vdW  Elec       q    Type
REMARK                         _______ _______ _______ _____ _____    ______ ____
ROOT
ATOM      1  C   UNL     1      49.004   7.281  13.791  0.00  0.00    +0.000 C 
ENDROOT
BRANCH   1   6
ATOM      2  C   UNL     1      48.378   5.684  18.658  0.00  0.00    +0.000 A 
ATOM      3  C   UNL     1      48.337   4.976  17.464  0.00  0.00    +0.000 A 
ATOM      4  C   UNL     1      48.508   5.661  16.263  0.00  0.00    +0.000 A 
ATOM      5  C   UNL     1      48.707   7.036  16.270  0.00  0.00    +0.000 A 
ATOM      6  N   UNL     1      48.962   7.769  15.146  0.00  0.00    +0.000 N 
ATOM      7  N   UNL     1      48.704   7.738  17.421  0.00  0.00    +0.000 NA
ATOM      8  C   UNL     1      48.534   7.058  18.587  0.00  0.00    +0.000 A 
ATOM      9  H   UNL     1      48.994   8.766  15.322  0.00  0.00    +0.000 HD
BRANCH   2  11
ATOM     10  N   UNL     1      48.571   3.692  20.030  0.00  0.00    +0.000 N 
ATOM     11  C   UNL     1      48.264   5.025  19.973  0.00  0.00    +0.000 C 
ATOM     12  O   UNL     1      47.952   5.648  20.978  0.00  0.00    +0.000 OA
ATOM     13  H   UNL     1      48.598   3.278  20.953  0.00  0.00    +0.000 HD
ATOM     14  H   UNL     1      49.075   3.219  19.293  0.00  0.00    +0.000 HD
ENDBRANCH   2  11
ENDBRANCH   1   6
BRANCH   1  15
ATOM     15  C   UNL     1      47.643   7.343  13.152  0.00  0.00    +0.000 A 
ATOM     16  C   UNL     1      46.816   8.459  13.297  0.00  0.00    +0.000 A 
ATOM     17  C   UNL     1      45.587   8.454  12.659  0.00  0.00    +0.000 A 
ATOM     18  N   UNL     1      45.130   7.427  11.911  0.00  0.00    +0.000 NA
ATOM     19  C   UNL     1      45.924   6.336  11.779  0.00  0.00    +0.000 A 
ATOM     20  C   UNL     1      47.179   6.272  12.382  0.00  0.00    +0.000 A 
BRANCH  19  21
ATOM     21  C   UNL     1      45.386   5.238  10.964  0.00  0.00    +0.000 A 
ATOM     22  C   UNL     1      44.598   4.230  11.529  0.00  0.00    +0.000 A 
ATOM     23  N   UNL     1      44.041   3.196  10.842  0.00  0.00    +0.000 NA
ATOM     24  C   UNL     1      44.291   3.154   9.515  0.00  0.00    +0.000 A 
ATOM     25  C   UNL     1      45.067   4.088   8.860  0.00  0.00    +0.000 A 
ATOM     26  F   UNL     1      45.289   3.996   7.543  0.00  0.00    +0.000 F 
ATOM     27  C   UNL     1      45.622   5.136   9.584  0.00  0.00    +0.000 A 
ENDBRANCH  19  21
ENDBRANCH   1  15
TORSDOF 4
ENDMDL
