MODEL 1
REMARK VINA RESULT:    -9.914      0.000      0.000
REMARK INTER + INTRA:         -13.280
REMARK INTER:                 -13.101
REMARK INTRA:                  -0.178
REMARK UNBOUND:                -0.178
REMARK  Name = 
REMARK  6 active torsions:
REMARK  status: ('A' for Active; 'I' for Inactive)
REMARK    1  A    between atoms: C_2  and  C_4
REMARK    2  A    between atoms: C_7  and  O_8
REMARK    3  A    between atoms: O_8  and  C_9
REMARK    4  A    between atoms: C_9  and  C_10
REMARK    5  A    between atoms: C_14  and  C_15
REMARK    6  A    between atoms: C_19  and  O_20
REMARK                            x       y       z     vdW  Elec       q    Type
REMARK                         _______ _______ _______ _____ _____    ______ ____
ROOT
ATOM      1  C   UNL     1      44.024   4.856  11.525  0.00  0.00    +0.000 C 
ATOM      2  C   UNL     1      43.368   3.674  12.223  0.00  0.00    +0.000 C 
ATOM      3  C   UNL     1      42.809   5.046  12.413  0.00  0.00    +0.000 C 
ENDROOT
BRANCH   1   4
ATOM      4  C   UNL     1      45.392   5.327  11.987  0.00  0.00    +0.000 A 
ATOM      5  C   UNL     1      46.087   6.326  11.294  0.00  0.00    +0.000 A 
ATOM      6  C   UNL     1      47.278   6.852  11.790  0.00  0.00    +0.000 A 
ATOM      7  C   UNL     1      47.790   6.404  13.010  0.00  0.00    +0.000 A 
ATOM      8  C   UNL     1      47.128   5.416  13.756  0.00  0.00    +0.000 A 
ATOM      9  C   UNL     1      45.960   4.867  13.193  0.00  0.00    +0.000 A 
BRANCH   8  10
ATOM     10  C   UNL     1      47.545   5.050  15.132  0.00  0.00    +0.000 A 
ATOM     11  C   UNL     1      48.458   5.858  15.842  0.00  0.00    +0.000 A 
ATOM     12  C   UNL     1      48.765   5.606  17.184  0.00  0.00    +0.000 A 
ATOM     13  C   UNL     1      48.159   4.550  17.854  0.00  0.00    +0.000 A 
ATOM     14  C   UNL     1      47.266   3.738  17.167  0.00  0.00    +0.000 A 
ATOM     15  C   UNL     1      46.978   3.964  15.820  0.00  0.00    +0.000 A 
BRANCH  14  16
ATOM     16  O   UNL     1      46.620   2.712  17.790  0.00  0.00    +0.000 OA
ATOM     17  H   UNL     1      47.013   1.874  17.495  0.00  0.00    +0.000 HD
ENDBRANCH  14  16
ENDBRANCH   8  10
ENDBRANCH   1   4
BRANCH   1  18
ATOM     18  O   UNL     1      43.841   4.760  10.091  0.00  0.00    +0.000 OA
BRANCH  18  22
ATOM     19  C   UNL     1      46.307   2.261   7.844  0.00  0.00    +0.000 A 
ATOM     20  C   UNL     1      45.438   1.680   8.774  0.00  0.00    +0.000 A 
ATOM     21  C   UNL     1      44.575   2.483   9.527  0.00  0.00    +0.000 A 
ATOM     22  C   UNL     1      44.575   3.865   9.360  0.00  0.00    +0.000 A 
ATOM     23  C   UNL     1      45.418   4.440   8.405  0.00  0.00    +0.000 A 
ATOM     24  C   UNL     1      46.288   3.645   7.655  0.00  0.00    +0.000 A 
BRANCH  19  26
ATOM     25  N   UNL     1      48.400   2.100   6.610  0.00  0.00    +0.000 N 
ATOM     26  C   UNL     1      47.302   1.447   7.100  0.00  0.00    +0.000 C 
ATOM     27  O   UNL     1      47.155   0.242   6.936  0.00  0.00    +0.000 OA
ATOM     28  H   UNL     1      49.096   1.523   6.150  0.00  0.00    +0.000 HD
ATOM     29  H   UNL     1      48.666   3.024   6.903  0.00  0.00    +0.000 HD
ENDBRANCH  19  26
ENDBRANCH  18  22
ENDBRANCH   1  18
TORSDOF 6
ENDMDL
MODEL 2
REMARK VINA RESULT:    -9.685      2.325      3.859
REMARK INTER + INTRA:         -12.977
REMARK INTER:                 -11.637
REMARK INTRA:                  -1.340
REMARK UNBOUND:                -0.178
REMARK  Name = 
REMARK  6 active torsions:
REMARK  status: ('A' for Active; 'I' for Inactive)
REMARK    1  A    between atoms: C_2  and  C_4
REMARK    2  A    between atoms: C_7  and  O_8
REMARK    3  A    between atoms: O_8  and  C_9
REMARK    4  A    between atoms: C_9  and  C_10
REMARK    5  A    between atoms: C_14  and  C_15
REMARK    6  A    between atoms: C_19  and  O_20
REMARK                            x       y       z     vdW  Elec       q    Type
REMARK                         _______ _______ _______ _____ _____    ______ ____
ROOT
ATOM      1  C   UNL     1      43.800   4.956  11.379  0.00  0.00    +0.000 C 
ATOM      2  C   UNL     1      42.466   5.239  12.052  0.00  0.00    +0.000 C 
ATOM      3  C   UNL     1      42.989   6.188  11.026  0.00  0.00    +0.000 C 
ENDROOT
BRANCH   1   4
ATOM      4  C   UNL     1      45.082   5.086  12.183  0.00  0.00    +0.000 A 
ATOM      5  C   UNL     1      45.528   4.047  13.009  0.00  0.00    +0.000 A 
ATOM      6  C   UNL     1      46.767   4.112  13.643  0.00  0.00    +0.000 A 
ATOM      7  C   UNL     1      47.602   5.214  13.443  0.00  0.00    +0.000 A 
ATOM      8  C   UNL     1      47.215   6.277  12.613  0.00  0.00    +0.000 A 
ATOM      9  C   UNL     1      45.932   6.203  12.038  0.00  0.00    +0.000 A 
BRANCH   8  10
ATOM     10  C   UNL     1      48.146   7.369  12.237  0.00  0.00    +0.000 A 
ATOM     11  C   UNL     1      47.663   8.675  12.010  0.00  0.00    +0.000 A 
ATOM     12  C   UNL     1      48.535   9.746  11.782  0.00  0.00    +0.000 A 
ATOM     13  C   UNL     1      49.910   9.542  11.789  0.00  0.00    +0.000 A 
ATOM     14  C   UNL     1      50.401   8.261  11.999  0.00  0.00    +0.000 A 
ATOM     15  C   UNL     1      49.538   7.183  12.196  0.00  0.00    +0.000 A 
BRANCH  14  16
ATOM     16  O   UNL     1      51.742   8.018  12.051  0.00  0.00    +0.000 OA
ATOM     17  H   UNL     1      52.049   8.169  12.960  0.00  0.00    +0.000 HD
ENDBRANCH  14  16
ENDBRANCH   8  10
ENDBRANCH   1   4
BRANCH   1  18
ATOM     18  O   UNL     1      43.701   3.781  10.535  0.00  0.00    +0.000 OA
BRANCH  18  22
ATOM     19  C   UNL     1      46.466   2.735   7.597  0.00  0.00    +0.000 A 
ATOM     20  C   UNL     1      46.170   4.089   7.782  0.00  0.00    +0.000 A 
ATOM     21  C   UNL     1      45.269   4.483   8.777  0.00  0.00    +0.000 A 
ATOM     22  C   UNL     1      44.656   3.531   9.587  0.00  0.00    +0.000 A 
ATOM     23  C   UNL     1      44.981   2.182   9.425  0.00  0.00    +0.000 A 
ATOM     24  C   UNL     1      45.874   1.780   8.429  0.00  0.00    +0.000 A 
BRANCH  19  26
ATOM     25  N   UNL     1      47.379   3.051   5.361  0.00  0.00    +0.000 N 
ATOM     26  C   UNL     1      47.343   2.277   6.489  0.00  0.00    +0.000 C 
ATOM     27  O   UNL     1      48.012   1.254   6.578  0.00  0.00    +0.000 OA
ATOM     28  H   UNL     1      48.021   2.755   4.635  0.00  0.00    +0.000 HD
ATOM     29  H   UNL     1      47.026   3.992   5.330  0.00  0.00    +0.000 HD
ENDBRANCH  19  26
ENDBRANCH  18  22
ENDBRANCH   1  18
TORSDOF 6
ENDMDL
MODEL 3
REMARK VINA RESULT:    -8.844      2.880      7.716
REMARK INTER + INTRA:         -11.866
REMARK INTER:                 -10.750
REMARK INTRA:                  -1.116
REMARK UNBOUND:                -0.178
REMARK  Name = 
REMARK  6 active torsions:
REMARK  status: ('A' for Active; 'I' for Inactive)
REMARK    1  A    between atoms: C_2  and  C_4
REMARK    2  A    between atoms: C_7  and  O_8
REMARK    3  A    between atoms: O_8  and  C_9
REMARK    4  A    between atoms: C_9  and  C_10
REMARK    5  A    between atoms: C_14  and  C_15
REMARK    6  A    between atoms: C_19  and  O_20
REMARK                            x       y       z     vdW  Elec       q    Type
REMARK                         _______ _______ _______ _____ _____    ______ ____
ROOT
ATOM      1  C   UNL     1      46.147   7.111  12.276  0.00  0.00    +0.000 C 
ATOM      2  C   UNL     1      46.250   8.507  11.679  0.00  0.00    +0.000 C 
ATOM      3  C   UNL     1      45.540   8.312  12.978  0.00  0.00    +0.000 C 
ENDROOT
BRANCH   1   4
ATOM      4  C   UNL     1      45.253   6.082  11.609  0.00  0.00    +0.000 A 
ATOM      5  C   UNL     1      43.865   6.094  11.800  0.00  0.00    +0.000 A 
ATOM      6  C   UNL     1      43.031   5.235  11.087  0.00  0.00    +0.000 A 
ATOM      7  C   UNL     1      43.570   4.357  10.143  0.00  0.00    +0.000 A 
ATOM      8  C   UNL     1      44.950   4.313   9.897  0.00  0.00    +0.000 A 
ATOM      9  C   UNL     1      45.765   5.152  10.680  0.00  0.00    +0.000 A 
BRANCH   8  10
ATOM     10  C   UNL     1      45.532   3.527   8.780  0.00  0.00    +0.000 A 
ATOM     11  C   UNL     1      46.073   4.180   7.652  0.00  0.00    +0.000 A 
ATOM     12  C   UNL     1      46.742   3.469   6.650  0.00  0.00    +0.000 A 
ATOM     13  C   UNL     1      46.899   2.092   6.754  0.00  0.00    +0.000 A 
ATOM     14  C   UNL     1      46.363   1.433   7.852  0.00  0.00    +0.000 A 
ATOM     15  C   UNL     1      45.668   2.130   8.840  0.00  0.00    +0.000 A 
BRANCH  14  16
ATOM     16  O   UNL     1      46.522   0.089   8.016  0.00  0.00    +0.000 OA
ATOM     17  H   UNL     1      45.772  -0.365   7.597  0.00  0.00    +0.000 HD
ENDBRANCH  14  16
ENDBRANCH   8  10
ENDBRANCH   1   4
BRANCH   1  18
ATOM     18  O   UNL     1      47.455   6.641  12.688  0.00  0.00    +0.000 OA
BRANCH  18  22
ATOM     19  C   UNL     1      47.940   4.840  16.416  0.00  0.00    +0.000 A 
ATOM     20  C   UNL     1      47.133   4.204  15.468  0.00  0.00    +0.000 A 
ATOM     21  C   UNL     1      46.967   4.761  14.196  0.00  0.00    +0.000 A 
ATOM     22  C   UNL     1      47.601   5.956  13.864  0.00  0.00    +0.000 A 
ATOM     23  C   UNL     1      48.437   6.571  14.800  0.00  0.00    +0.000 A 
ATOM     24  C   UNL     1      48.600   6.024  16.075  0.00  0.00    +0.000 A 
BRANCH  19  26
ATOM     25  N   UNL     1      47.194   4.835  18.734  0.00  0.00    +0.000 N 
ATOM     26  C   UNL     1      48.058   4.326  17.804  0.00  0.00    +0.000 C 
ATOM     27  O   UNL     1      48.889   3.477  18.108  0.00  0.00    +0.000 OA
ATOM     28  H   UNL     1      47.251   4.437  19.665  0.00  0.00    +0.000 HD
ATOM     29  H   UNL     1      46.371   5.358  18.490  0.00  0.00    +0.000 HD
ENDBRANCH  19  26
ENDBRANCH  18  22
ENDBRANCH   1  18
TORSDOF 6
ENDMDL
MODEL 4
REMARK VINA RESULT:    -8.483      2.439      3.119
REMARK INTER + INTRA:         -11.389
REMARK INTER:                 -11.223
REMARK INTRA:                  -0.166
REMARK UNBOUND:                -0.178
REMARK  Name = 
REMARK  6 active torsions:
REMARK  status: ('A' for Active; 'I' for Inactive)
REMARK    1  A    between atoms: C_2  and  C_4
REMARK    2  A    between atoms: C_7  and  O_8
REMARK    3  A    between atoms: O_8  and  C_9
REMARK    4  A    between atoms: C_9  and  C_10
REMARK    5  A    between atoms: C_14  and  C_15
REMARK    6  A    between atoms: C_19  and  O_20
REMARK                            x       y       z     vdW  Elec       q    Type
REMARK                         _______ _______ _______ _____ _____    ______ ____
ROOT
ATOM      1  C   UNL     1      44.270   4.590  11.678  0.00  0.00    +0.000 C 
ATOM      2  C   UNL     1      45.050   3.525  12.435  0.00  0.00    +0.000 C 
ATOM      3  C   UNL     1      43.777   4.054  13.009  0.00  0.00    +0.000 C 
ENDROOT
BRANCH   1   4
ATOM      4  C   UNL     1      44.835   5.997  11.581  0.00  0.00    +0.000 A 
ATOM      5  C   UNL     1      43.997   7.101  11.378  0.00  0.00    +0.000 A 
ATOM      6  C   UNL     1      44.496   8.402  11.421  0.00  0.00    +0.000 A 
ATOM      7  C   UNL     1      45.847   8.627  11.695  0.00  0.00    +0.000 A 
ATOM      8  C   UNL     1      46.729   7.560  11.923  0.00  0.00    +0.000 A 
ATOM      9  C   UNL     1      46.201   6.260  11.812  0.00  0.00    +0.000 A 
BRANCH   8  10
ATOM     10  C   UNL     1      48.122   7.769  12.393  0.00  0.00    +0.000 A 
ATOM     11  C   UNL     1      48.929   8.771  11.815  0.00  0.00    +0.000 A 
ATOM     12  C   UNL     1      50.196   9.073  12.328  0.00  0.00    +0.000 A 
ATOM     13  C   UNL     1      50.682   8.392  13.438  0.00  0.00    +0.000 A 
ATOM     14  C   UNL     1      49.905   7.394  14.011  0.00  0.00    +0.000 A 
ATOM     15  C   UNL     1      48.654   7.066  13.488  0.00  0.00    +0.000 A 
BRANCH  14  16
ATOM     16  O   UNL     1      50.323   6.723  15.122  0.00  0.00    +0.000 OA
ATOM     17  H   UNL     1      50.925   6.012  14.845  0.00  0.00    +0.000 HD
ENDBRANCH  14  16
ENDBRANCH   8  10
ENDBRANCH   1   4
BRANCH   1  18
ATOM     18  O   UNL     1      43.727   4.042  10.452  0.00  0.00    +0.000 OA
BRANCH  18  22
ATOM     19  C   UNL     1      46.440   2.572   7.649  0.00  0.00    +0.000 A 
ATOM     20  C   UNL     1      45.755   1.658   8.457  0.00  0.00    +0.000 A 
ATOM     21  C   UNL     1      44.816   2.110   9.390  0.00  0.00    +0.000 A 
ATOM     22  C   UNL     1      44.558   3.472   9.525  0.00  0.00    +0.000 A 
ATOM     23  C   UNL     1      45.216   4.380   8.691  0.00  0.00    +0.000 A 
ATOM     24  C   UNL     1      46.161   3.937   7.763  0.00  0.00    +0.000 A 
BRANCH  19  26
ATOM     25  N   UNL     1      47.923   3.031   5.772  0.00  0.00    +0.000 N 
ATOM     26  C   UNL     1      47.511   2.133   6.718  0.00  0.00    +0.000 C 
ATOM     27  O   UNL     1      48.013   1.017   6.794  0.00  0.00    +0.000 OA
ATOM     28  H   UNL     1      48.690   2.736   5.178  0.00  0.00    +0.000 HD
ATOM     29  H   UNL     1      47.700   4.010   5.811  0.00  0.00    +0.000 HD
ENDBRANCH  19  26
ENDBRANCH  18  22
ENDBRANCH   1  18
TORSDOF 6
ENDMDL
MODEL 5
REMARK VINA RESULT:    -8.121      2.158      3.089
REMARK INTER + INTRA:         -10.911
REMARK INTER:                  -9.915
REMARK INTRA:                  -0.996
REMARK UNBOUND:                -0.178
REMARK  Name = 
REMARK  6 active torsions:
REMARK  status: ('A' for Active; 'I' for Inactive)
REMARK    1  A    between atoms: C_2  and  C_4
REMARK    2  A    between atoms: C_7  and  O_8
REMARK    3  A    between atoms: O_8  and  C_9
REMARK    4  A    between atoms: C_9  and  C_10
REMARK    5  A    between atoms: C_14  and  C_15
REMARK    6  A    between atoms: C_19  and  O_20
REMARK                            x       y       z     vdW  Elec       q    Type
REMARK                         _______ _______ _______ _____ _____    ______ ____
ROOT
ATOM      1  C   UNL     1      44.299   5.458  11.096  0.00  0.00    +0.000 C 
ATOM      2  C   UNL     1      43.064   6.267  11.460  0.00  0.00    +0.000 C 
ATOM      3  C   UNL     1      44.192   6.929  10.741  0.00  0.00    +0.000 C 
ENDROOT
BRANCH   1   4
ATOM      4  C   UNL     1      45.241   5.001  12.197  0.00  0.00    +0.000 A 
ATOM      5  C   UNL     1      45.422   3.641  12.477  0.00  0.00    +0.000 A 
ATOM      6  C   UNL     1      46.382   3.216  13.394  0.00  0.00    +0.000 A 
ATOM      7  C   UNL     1      47.202   4.148  14.035  0.00  0.00    +0.000 A 
ATOM      8  C   UNL     1      47.076   5.522  13.781  0.00  0.00    +0.000 A 
ATOM      9  C   UNL     1      46.056   5.916  12.895  0.00  0.00    +0.000 A 
BRANCH   8  10
ATOM     10  C   UNL     1      48.045   6.517  14.304  0.00  0.00    +0.000 A 
ATOM     11  C   UNL     1      48.622   6.352  15.581  0.00  0.00    +0.000 A 
ATOM     12  C   UNL     1      49.632   7.203  16.041  0.00  0.00    +0.000 A 
ATOM     13  C   UNL     1      50.102   8.232  15.233  0.00  0.00    +0.000 A 
ATOM     14  C   UNL     1      49.537   8.416  13.978  0.00  0.00    +0.000 A 
ATOM     15  C   UNL     1      48.508   7.590  13.525  0.00  0.00    +0.000 A 
BRANCH  14  16
ATOM     16  O   UNL     1      49.988   9.389  13.135  0.00  0.00    +0.000 OA
ATOM     17  H   UNL     1      49.776   9.130  12.223  0.00  0.00    +0.000 HD
ENDBRANCH  14  16
ENDBRANCH   8  10
ENDBRANCH   1   4
BRANCH   1  18
ATOM     18  O   UNL     1      43.974   4.465  10.091  0.00  0.00    +0.000 OA
BRANCH  18  22
ATOM     19  C   UNL     1      46.729   2.813   7.434  0.00  0.00    +0.000 A 
ATOM     20  C   UNL     1      46.676   4.206   7.560  0.00  0.00    +0.000 A 
ATOM     21  C   UNL     1      45.785   4.797   8.462  0.00  0.00    +0.000 A 
ATOM     22  C   UNL     1      44.941   4.007   9.238  0.00  0.00    +0.000 A 
ATOM     23  C   UNL     1      45.021   2.615   9.137  0.00  0.00    +0.000 A 
ATOM     24  C   UNL     1      45.903   2.017   8.233  0.00  0.00    +0.000 A 
BRANCH  19  26
ATOM     25  N   UNL     1      47.930   2.897   5.317  0.00  0.00    +0.000 N 
ATOM     26  C   UNL     1      47.593   2.159   6.419  0.00  0.00    +0.000 C 
ATOM     27  O   UNL     1      47.995   1.011   6.560  0.00  0.00    +0.000 OA
ATOM     28  H   UNL     1      48.563   2.456   4.659  0.00  0.00    +0.000 HD
ATOM     29  H   UNL     1      47.808   3.893   5.266  0.00  0.00    +0.000 HD
ENDBRANCH  19  26
ENDBRANCH  18  22
ENDBRANCH   1  18
TORSDOF 6
ENDMDL
MODEL 6
REMARK VINA RESULT:    -8.041      3.136      7.357
REMARK INTER + INTRA:         -10.805
REMARK INTER:                  -9.574
REMARK INTRA:                  -1.231
REMARK UNBOUND:                -0.178
REMARK  Name = 
REMARK  6 active torsions:
REMARK  status: ('A' for Active; 'I' for Inactive)
REMARK    1  A    between atoms: C_2  and  C_4
REMARK    2  A    between atoms: C_7  and  O_8
REMARK    3  A    between atoms: O_8  and  C_9
REMARK    4  A    between atoms: C_9  and  C_10
REMARK    5  A    between atoms: C_14  and  C_15
REMARK    6  A    between atoms: C_19  and  O_20
REMARK                            x       y       z     vdW  Elec       q    Type
REMARK                         _______ _______ _______ _____ _____    ______ ____
ROOT
ATOM      1  C   UNL     1      46.205   5.070  13.369  0.00  0.00    +0.000 C 
ATOM      2  C   UNL     1      45.998   4.332  14.683  0.00  0.00    +0.000 C 
ATOM      3  C   UNL     1      47.190   4.018  13.842  0.00  0.00    +0.000 C 
ENDROOT
BRANCH   1   4
ATOM      4  C   UNL     1      45.279   4.782  12.201  0.00  0.00    +0.000 A 
ATOM      5  C   UNL     1      44.036   5.419  12.087  0.00  0.00    +0.000 A 
ATOM      6  C   UNL     1      43.244   5.257  10.952  0.00  0.00    +0.000 A 
ATOM      7  C   UNL     1      43.693   4.469   9.889  0.00  0.00    +0.000 A 
ATOM      8  C   UNL     1      44.936   3.821   9.940  0.00  0.00    +0.000 A 
ATOM      9  C   UNL     1      45.680   3.960  11.128  0.00  0.00    +0.000 A 
BRANCH   8  10
ATOM     10  C   UNL     1      45.519   3.130   8.763  0.00  0.00    +0.000 A 
ATOM     11  C   UNL     1      45.928   3.866   7.631  0.00  0.00    +0.000 A 
ATOM     12  C   UNL     1      46.598   3.254   6.566  0.00  0.00    +0.000 A 
ATOM     13  C   UNL     1      46.888   1.895   6.610  0.00  0.00    +0.000 A 
ATOM     14  C   UNL     1      46.482   1.154   7.712  0.00  0.00    +0.000 A 
ATOM     15  C   UNL     1      45.787   1.751   8.764  0.00  0.00    +0.000 A 
BRANCH  14  16
ATOM     16  O   UNL     1      46.775  -0.174   7.817  0.00  0.00    +0.000 OA
ATOM     17  H   UNL     1      46.860  -0.398   8.759  0.00  0.00    +0.000 HD
ENDBRANCH  14  16
ENDBRANCH   8  10
ENDBRANCH   1   4
BRANCH   1  18
ATOM     18  O   UNL     1      46.495   6.468  13.616  0.00  0.00    +0.000 OA
BRANCH  18  22
ATOM     19  C   UNL     1      50.141   8.034  12.340  0.00  0.00    +0.000 A 
ATOM     20  C   UNL     1      49.139   7.817  11.389  0.00  0.00    +0.000 A 
ATOM     21  C   UNL     1      47.892   7.320  11.781  0.00  0.00    +0.000 A 
ATOM     22  C   UNL     1      47.639   7.033  13.120  0.00  0.00    +0.000 A 
ATOM     23  C   UNL     1      48.629   7.284  14.074  0.00  0.00    +0.000 A 
ATOM     24  C   UNL     1      49.880   7.773  13.688  0.00  0.00    +0.000 A 
BRANCH  19  26
ATOM     25  N   UNL     1      52.533   8.141  12.786  0.00  0.00    +0.000 N 
ATOM     26  C   UNL     1      51.505   8.468  11.944  0.00  0.00    +0.000 C 
ATOM     27  O   UNL     1      51.708   9.088  10.907  0.00  0.00    +0.000 OA
ATOM     28  H   UNL     1      53.464   8.398  12.477  0.00  0.00    +0.000 HD
ATOM     29  H   UNL     1      52.447   7.459  13.519  0.00  0.00    +0.000 HD
ENDBRANCH  19  26
ENDBRANCH  18  22
ENDBRANCH   1  18
TORSDOF 6
ENDMDL
MODEL 7
REMARK VINA RESULT:    -7.993      2.751      4.568
REMARK INTER + INTRA:         -10.741
REMARK INTER:                  -9.610
REMARK INTRA:                  -1.131
REMARK UNBOUND:                -0.178
REMARK  Name = 
REMARK  6 active torsions:
REMARK  status: ('A' for Active; 'I' for Inactive)
REMARK    1  A    between atoms: C_2  and  C_4
REMARK    2  A    between atoms: C_7  and  O_8
REMARK    3  A    between atoms: O_8  and  C_9
REMARK    4  A    between atoms: C_9  and  C_10
REMARK    5  A    between atoms: C_14  and  C_15
REMARK    6  A    between atoms: C_19  and  O_20
REMARK                            x       y       z     vdW  Elec       q    Type
REMARK                         _______ _______ _______ _____ _____    ______ ____
ROOT
ATOM      1  C   UNL     1      48.105   8.149  12.561  0.00  0.00    +0.000 C 
ATOM      2  C   UNL     1      48.810   9.175  11.687  0.00  0.00    +0.000 C 
ATOM      3  C   UNL     1      49.155   7.730  11.550  0.00  0.00    +0.000 C 
ENDROOT
BRANCH   1   4
ATOM      4  C   UNL     1      48.412   8.103  14.048  0.00  0.00    +0.000 A 
ATOM      5  C   UNL     1      48.334   9.256  14.840  0.00  0.00    +0.000 A 
ATOM      6  C   UNL     1      48.484   9.191  16.224  0.00  0.00    +0.000 A 
ATOM      7  C   UNL     1      48.694   7.960  16.851  0.00  0.00    +0.000 A 
ATOM      8  C   UNL     1      48.765   6.771  16.109  0.00  0.00    +0.000 A 
ATOM      9  C   UNL     1      48.668   6.884  14.710  0.00  0.00    +0.000 A 
BRANCH   8  10
ATOM     10  C   UNL     1      48.804   5.435  16.756  0.00  0.00    +0.000 A 
ATOM     11  C   UNL     1      49.982   4.977  17.383  0.00  0.00    +0.000 A 
ATOM     12  C   UNL     1      50.005   3.782  18.109  0.00  0.00    +0.000 A 
ATOM     13  C   UNL     1      48.850   3.019  18.238  0.00  0.00    +0.000 A 
ATOM     14  C   UNL     1      47.685   3.450  17.617  0.00  0.00    +0.000 A 
ATOM     15  C   UNL     1      47.662   4.625  16.866  0.00  0.00    +0.000 A 
BRANCH  14  16
ATOM     16  O   UNL     1      46.518   2.755  17.745  0.00  0.00    +0.000 OA
ATOM     17  H   UNL     1      46.638   1.875  17.349  0.00  0.00    +0.000 HD
ENDBRANCH  14  16
ENDBRANCH   8  10
ENDBRANCH   1   4
BRANCH   1  18
ATOM     18  O   UNL     1      46.704   8.057  12.202  0.00  0.00    +0.000 OA
BRANCH  18  22
ATOM     19  C   UNL     1      44.820   4.391  11.580  0.00  0.00    +0.000 A 
ATOM     20  C   UNL     1      45.286   5.099  10.467  0.00  0.00    +0.000 A 
ATOM     21  C   UNL     1      45.948   6.319  10.636  0.00  0.00    +0.000 A 
ATOM     22  C   UNL     1      46.146   6.841  11.911  0.00  0.00    +0.000 A 
ATOM     23  C   UNL     1      45.713   6.115  13.024  0.00  0.00    +0.000 A 
ATOM     24  C   UNL     1      45.043   4.899  12.862  0.00  0.00    +0.000 A 
BRANCH  19  26
ATOM     25  N   UNL     1      43.683   2.481  12.576  0.00  0.00    +0.000 N 
ATOM     26  C   UNL     1      44.029   3.143  11.429  0.00  0.00    +0.000 C 
ATOM     27  O   UNL     1      43.693   2.723  10.328  0.00  0.00    +0.000 OA
ATOM     28  H   UNL     1      43.099   1.660  12.460  0.00  0.00    +0.000 HD
ATOM     29  H   UNL     1      43.746   2.895  13.489  0.00  0.00    +0.000 HD
ENDBRANCH  19  26
ENDBRANCH  18  22
ENDBRANCH   1  18
TORSDOF 6
ENDMDL
MODEL 8
REMARK VINA RESULT:    -7.503      3.461      8.281
REMARK INTER + INTRA:         -10.094
REMARK INTER:                  -8.861
REMARK INTRA:                  -1.234
REMARK UNBOUND:                -0.178
REMARK  Name = 
REMARK  6 active torsions:
REMARK  status: ('A' for Active; 'I' for Inactive)
REMARK    1  A    between atoms: C_2  and  C_4
REMARK    2  A    between atoms: C_7  and  O_8
REMARK    3  A    between atoms: O_8  and  C_9
REMARK    4  A    between atoms: C_9  and  C_10
REMARK    5  A    between atoms: C_14  and  C_15
REMARK    6  A    between atoms: C_19  and  O_20
REMARK                            x       y       z     vdW  Elec       q    Type
REMARK                         _______ _______ _______ _____ _____    ______ ____
ROOT
ATOM      1  C   UNL     1      48.919   7.692  13.060  0.00  0.00    +0.000 C 
ATOM      2  C   UNL     1      49.957   7.978  11.985  0.00  0.00    +0.000 C 
ATOM      3  C   UNL     1      49.635   9.028  12.996  0.00  0.00    +0.000 C 
ENDROOT
BRANCH   1   4
ATOM      4  C   UNL     1      47.455   7.588  12.671  0.00  0.00    +0.000 A 
ATOM      5  C   UNL     1      46.582   8.670  12.839  0.00  0.00    +0.000 A 
ATOM      6  C   UNL     1      45.273   8.621  12.361  0.00  0.00    +0.000 A 
ATOM      7  C   UNL     1      44.816   7.490  11.681  0.00  0.00    +0.000 A 
ATOM      8  C   UNL     1      45.651   6.383  11.469  0.00  0.00    +0.000 A 
ATOM      9  C   UNL     1      46.946   6.446  12.018  0.00  0.00    +0.000 A 
BRANCH   8  10
ATOM     10  C   UNL     1      45.257   5.248  10.598  0.00  0.00    +0.000 A 
ATOM     11  C   UNL     1      45.732   5.165   9.272  0.00  0.00    +0.000 A 
ATOM     12  C   UNL     1      45.481   4.042   8.476  0.00  0.00    +0.000 A 
ATOM     13  C   UNL     1      44.762   2.968   8.987  0.00  0.00    +0.000 A 
ATOM     14  C   UNL     1      44.278   3.038  10.287  0.00  0.00    +0.000 A 
ATOM     15  C   UNL     1      44.497   4.167  11.076  0.00  0.00    +0.000 A 
BRANCH  14  16
ATOM     16  O   UNL     1      43.598   1.996  10.845  0.00  0.00    +0.000 OA
ATOM     17  H   UNL     1      43.753   2.005  11.804  0.00  0.00    +0.000 HD
ENDBRANCH  14  16
ENDBRANCH   8  10
ENDBRANCH   1   4
BRANCH   1  18
ATOM     18  O   UNL     1      49.404   6.676  13.973  0.00  0.00    +0.000 OA
BRANCH  18  22
ATOM     19  C   UNL     1      48.141   6.290  17.926  0.00  0.00    +0.000 A 
ATOM     20  C   UNL     1      48.744   7.489  17.533  0.00  0.00    +0.000 A 
ATOM     21  C   UNL     1      49.156   7.668  16.208  0.00  0.00    +0.000 A 
ATOM     22  C   UNL     1      48.973   6.654  15.272  0.00  0.00    +0.000 A 
ATOM     23  C   UNL     1      48.337   5.471  15.658  0.00  0.00    +0.000 A 
ATOM     24  C   UNL     1      47.930   5.282  16.981  0.00  0.00    +0.000 A 
BRANCH  19  26
ATOM     25  N   UNL     1      47.955   4.757  19.810  0.00  0.00    +0.000 N 
ATOM     26  C   UNL     1      47.781   6.031  19.344  0.00  0.00    +0.000 C 
ATOM     27  O   UNL     1      47.352   6.919  20.071  0.00  0.00    +0.000 OA
ATOM     28  H   UNL     1      47.755   4.608  20.792  0.00  0.00    +0.000 HD
ATOM     29  H   UNL     1      48.498   4.065  19.324  0.00  0.00    +0.000 HD
ENDBRANCH  19  26
ENDBRANCH  18  22
ENDBRANCH   1  18
TORSDOF 6
ENDMDL
MODEL 9
REMARK VINA RESULT:    -6.966      4.881      7.710
REMARK INTER + INTRA:          -9.384
REMARK INTER:                  -8.286
REMARK INTRA:                  -1.098
REMARK UNBOUND:                -0.178
REMARK  Name = 
REMARK  6 active torsions:
REMARK  status: ('A' for Active; 'I' for Inactive)
REMARK    1  A    between atoms: C_2  and  C_4
REMARK    2  A    between atoms: C_7  and  O_8
REMARK    3  A    between atoms: O_8  and  C_9
REMARK    4  A    between atoms: C_9  and  C_10
REMARK    5  A    between atoms: C_14  and  C_15
REMARK    6  A    between atoms: C_19  and  O_20
REMARK                            x       y       z     vdW  Elec       q    Type
REMARK                         _______ _______ _______ _____ _____    ______ ____
ROOT
ATOM      1  C   UNL     1      49.363   7.451  13.340  0.00  0.00    +0.000 C 
ATOM      2  C   UNL     1      49.952   7.461  14.743  0.00  0.00    +0.000 C 
ATOM      3  C   UNL     1      48.752   8.297  14.442  0.00  0.00    +0.000 C 
ENDROOT
BRANCH   1   4
ATOM      4  C   UNL     1      50.131   8.108  12.207  0.00  0.00    +0.000 A 
ATOM      5  C   UNL     1      50.210   9.502  12.097  0.00  0.00    +0.000 A 
ATOM      6  C   UNL     1      51.021  10.105  11.138  0.00  0.00    +0.000 A 
ATOM      7  C   UNL     1      51.795   9.321  10.279  0.00  0.00    +0.000 A 
ATOM      8  C   UNL     1      51.769   7.920  10.354  0.00  0.00    +0.000 A 
ATOM      9  C   UNL     1      50.892   7.347  11.295  0.00  0.00    +0.000 A 
BRANCH   8  10
ATOM     10  C   UNL     1      52.709   7.067   9.584  0.00  0.00    +0.000 A 
ATOM     11  C   UNL     1      53.741   6.365  10.243  0.00  0.00    +0.000 A 
ATOM     12  C   UNL     1      54.555   5.456   9.559  0.00  0.00    +0.000 A 
ATOM     13  C   UNL     1      54.353   5.215   8.205  0.00  0.00    +0.000 A 
ATOM     14  C   UNL     1      53.349   5.906   7.540  0.00  0.00    +0.000 A 
ATOM     15  C   UNL     1      52.552   6.837   8.207  0.00  0.00    +0.000 A 
BRANCH  14  16
ATOM     16  O   UNL     1      53.088   5.677   6.221  0.00  0.00    +0.000 OA
ATOM     17  H   UNL     1      52.899   4.731   6.103  0.00  0.00    +0.000 HD
ENDBRANCH  14  16
ENDBRANCH   8  10
ENDBRANCH   1   4
BRANCH   1  18
ATOM     18  O   UNL     1      48.786   6.155  13.045  0.00  0.00    +0.000 OA
BRANCH  18  22
ATOM     19  C   UNL     1      44.674   5.753  12.487  0.00  0.00    +0.000 A 
ATOM     20  C   UNL     1      45.378   6.630  11.655  0.00  0.00    +0.000 A 
ATOM     21  C   UNL     1      46.762   6.772  11.792  0.00  0.00    +0.000 A 
ATOM     22  C   UNL     1      47.451   6.045  12.759  0.00  0.00    +0.000 A 
ATOM     23  C   UNL     1      46.753   5.142  13.565  0.00  0.00    +0.000 A 
ATOM     24  C   UNL     1      45.368   5.001  13.439  0.00  0.00    +0.000 A 
BRANCH  19  26
ATOM     25  N   UNL     1      42.556   6.357  11.448  0.00  0.00    +0.000 N 
ATOM     26  C   UNL     1      43.193   5.652  12.432  0.00  0.00    +0.000 C 
ATOM     27  O   UNL     1      42.566   4.963  13.227  0.00  0.00    +0.000 OA
ATOM     28  H   UNL     1      41.551   6.237  11.391  0.00  0.00    +0.000 HD
ATOM     29  H   UNL     1      43.034   6.751  10.657  0.00  0.00    +0.000 HD
ENDBRANCH  19  26
ENDBRANCH  18  22
ENDBRANCH   1  18
TORSDOF 6
ENDMDL
