MODEL 1
REMARK VINA RESULT:    -7.368      0.000      0.000
REMARK INTER + INTRA:         -10.387
REMARK INTER:                  -9.522
REMARK INTRA:                  -0.865
REMARK UNBOUND:                -0.865
REMARK  Name = 
REMARK  6 active torsions:
REMARK  status: ('A' for Active; 'I' for Inactive)
REMARK    1  A    between atoms: C_1  and  C_2
REMARK    2  A    between atoms: C_5  and  C_6
REMARK    3  A    between atoms: C_9  and  N_10
REMARK    4  A    between atoms: N_10  and  C_11
REMARK    5  A    between atoms: C_11  and  C_12
REMARK    6  A    between atoms: C_16  and  C_17
REMARK                            x       y       z     vdW  Elec       q    Type
REMARK                         _______ _______ _______ _____ _____    ______ ____
ROOT
ATOM      1  N   UNL     1      44.354   6.842  10.918  0.00  0.00    +0.000 N 
ATOM      2  H   UNL     1      44.408   6.890   9.889  0.00  0.00    +0.000 HD
ENDROOT
BRANCH   1   8
ATOM      3  C   UNL     1      48.883   6.896  12.999  0.00  0.00    +0.000 C 
ATOM      4  C   UNL     1      47.636   7.594  12.551  0.00  0.00    +0.000 A 
ATOM      5  C   UNL     1      47.470   8.960  12.750  0.00  0.00    +0.000 A 
ATOM      6  N   UNL     1      46.376   9.651  12.370  0.00  0.00    +0.000 NA
ATOM      7  C   UNL     1      45.384   8.928  11.764  0.00  0.00    +0.000 A 
ATOM      8  C   UNL     1      45.440   7.541  11.504  0.00  0.00    +0.000 A 
ATOM      9  C   UNL     1      46.608   6.887  11.908  0.00  0.00    +0.000 A 
BRANCH   7  10
ATOM     10  C   UNL     1      44.211   9.745  11.290  0.00  0.00    +0.000 C 
ATOM     11  N   UNL     1      43.549  10.455  12.258  0.00  0.00    +0.000 N 
ATOM     12  O   UNL     1      43.880   9.816  10.116  0.00  0.00    +0.000 OA
ATOM     13  H   UNL     1      43.896  10.440  13.210  0.00  0.00    +0.000 HD
ATOM     14  H   UNL     1      42.812  11.091  11.993  0.00  0.00    +0.000 HD
ENDBRANCH   7  10
ENDBRANCH   1   8
BRANCH   1  15
ATOM     15  C   UNL     1      43.844   5.535  11.410  0.00  0.00    +0.000 C 
ATOM     16  C   UNL     1      42.339   5.526  11.694  0.00  0.00    +0.000 C 
ATOM     17  C   UNL     1      43.312   5.454  12.827  0.00  0.00    +0.000 C 
BRANCH  15  18
ATOM     18  C   UNL     1      44.330   4.287  10.631  0.00  0.00    +0.000 A 
ATOM     19  C   UNL     1      43.836   2.995  10.870  0.00  0.00    +0.000 A 
ATOM     20  C   UNL     1      44.190   1.945  10.033  0.00  0.00    +0.000 A 
ATOM     21  N   UNL     1      45.027   2.067   8.984  0.00  0.00    +0.000 NA
ATOM     22  C   UNL     1      45.540   3.300   8.744  0.00  0.00    +0.000 A 
ATOM     23  C   UNL     1      45.218   4.397   9.548  0.00  0.00    +0.000 A 
BRANCH  22  24
ATOM     24  C   UNL     1      46.467   3.538   7.559  0.00  0.00    +0.000 C 
ATOM     25  F   UNL     1      47.516   2.672   7.479  0.00  0.00    +0.000 F 
ATOM     26  F   UNL     1      45.818   3.441   6.360  0.00  0.00    +0.000 F 
ATOM     27  F   UNL     1      47.016   4.789   7.569  0.00  0.00    +0.000 F 
ENDBRANCH  22  24
ENDBRANCH  15  18
ENDBRANCH   1  15
TORSDOF 5
ENDMDL
MODEL 2
REMARK VINA RESULT:    -7.217      2.483      3.271
REMARK INTER + INTRA:         -10.192
REMARK INTER:                  -9.612
REMARK INTRA:                  -0.580
REMARK UNBOUND:                -0.865
REMARK  Name = 
REMARK  6 active torsions:
REMARK  status: ('A' for Active; 'I' for Inactive)
REMARK    1  A    between atoms: C_1  and  C_2
REMARK    2  A    between atoms: C_5  and  C_6
REMARK    3  A    between atoms: C_9  and  N_10
REMARK    4  A    between atoms: N_10  and  C_11
REMARK    5  A    between atoms: C_11  and  C_12
REMARK    6  A    between atoms: C_16  and  C_17
REMARK                            x       y       z     vdW  Elec       q    Type
REMARK                         _______ _______ _______ _____ _____    ______ ____
ROOT
ATOM      1  N   UNL     1      44.585   5.660  13.003  0.00  0.00    +0.000 N 
ATOM      2  H   UNL     1      44.070   6.159  13.745  0.00  0.00    +0.000 HD
ENDROOT
BRANCH   1   8
ATOM      3  C   UNL     1      47.920   9.156  11.778  0.00  0.00    +0.000 C 
ATOM      4  C   UNL     1      47.576   7.801  12.314  0.00  0.00    +0.000 A 
ATOM      5  C   UNL     1      48.572   6.915  12.710  0.00  0.00    +0.000 A 
ATOM      6  N   UNL     1      48.333   5.682  13.204  0.00  0.00    +0.000 NA
ATOM      7  C   UNL     1      47.019   5.312  13.296  0.00  0.00    +0.000 A 
ATOM      8  C   UNL     1      45.923   6.125  12.931  0.00  0.00    +0.000 A 
ATOM      9  C   UNL     1      46.238   7.397  12.442  0.00  0.00    +0.000 A 
BRANCH   7  10
ATOM     10  C   UNL     1      46.789   3.959  13.917  0.00  0.00    +0.000 C 
ATOM     11  N   UNL     1      47.017   3.876  15.267  0.00  0.00    +0.000 N 
ATOM     12  O   UNL     1      46.388   2.995  13.283  0.00  0.00    +0.000 OA
ATOM     13  H   UNL     1      47.272   4.712  15.779  0.00  0.00    +0.000 HD
ATOM     14  H   UNL     1      46.797   3.023  15.757  0.00  0.00    +0.000 HD
ENDBRANCH   7  10
ENDBRANCH   1   8
BRANCH   1  15
ATOM     15  C   UNL     1      43.743   5.363  11.814  0.00  0.00    +0.000 C 
ATOM     16  C   UNL     1      43.353   6.606  11.007  0.00  0.00    +0.000 C 
ATOM     17  C   UNL     1      42.315   5.872  11.794  0.00  0.00    +0.000 C 
BRANCH  15  18
ATOM     18  C   UNL     1      44.217   4.181  10.932  0.00  0.00    +0.000 A 
ATOM     19  C   UNL     1      43.732   2.872  11.080  0.00  0.00    +0.000 A 
ATOM     20  C   UNL     1      44.073   1.892  10.158  0.00  0.00    +0.000 A 
ATOM     21  N   UNL     1      44.889   2.098   9.106  0.00  0.00    +0.000 NA
ATOM     22  C   UNL     1      45.393   3.349   8.952  0.00  0.00    +0.000 A 
ATOM     23  C   UNL     1      45.083   4.379   9.844  0.00  0.00    +0.000 A 
BRANCH  22  24
ATOM     24  C   UNL     1      46.296   3.682   7.771  0.00  0.00    +0.000 C 
ATOM     25  F   UNL     1      45.674   3.657   6.558  0.00  0.00    +0.000 F 
ATOM     26  F   UNL     1      46.851   4.927   7.873  0.00  0.00    +0.000 F 
ATOM     27  F   UNL     1      47.354   2.824   7.665  0.00  0.00    +0.000 F 
ENDBRANCH  22  24
ENDBRANCH  15  18
ENDBRANCH   1  15
TORSDOF 5
ENDMDL
MODEL 3
REMARK VINA RESULT:    -7.035      3.099      4.101
REMARK INTER + INTRA:          -9.957
REMARK INTER:                  -8.902
REMARK INTRA:                  -1.055
REMARK UNBOUND:                -0.865
REMARK  Name = 
REMARK  6 active torsions:
REMARK  status: ('A' for Active; 'I' for Inactive)
REMARK    1  A    between atoms: C_1  and  C_2
REMARK    2  A    between atoms: C_5  and  C_6
REMARK    3  A    between atoms: C_9  and  N_10
REMARK    4  A    between atoms: N_10  and  C_11
REMARK    5  A    between atoms: C_11  and  C_12
REMARK    6  A    between atoms: C_16  and  C_17
REMARK                            x       y       z     vdW  Elec       q    Type
REMARK                         _______ _______ _______ _____ _____    ______ ____
ROOT
ATOM      1  N   UNL     1      47.305   5.868  12.760  0.00  0.00    +0.000 N 
ATOM      2  H   UNL     1      47.791   5.203  12.139  0.00  0.00    +0.000 HD
ENDROOT
BRANCH   1   8
ATOM      3  C   UNL     1      47.138   3.500  17.143  0.00  0.00    +0.000 C 
ATOM      4  C   UNL     1      47.662   4.590  16.259  0.00  0.00    +0.000 A 
ATOM      5  C   UNL     1      48.565   5.531  16.742  0.00  0.00    +0.000 A 
ATOM      6  N   UNL     1      49.078   6.535  16.001  0.00  0.00    +0.000 NA
ATOM      7  C   UNL     1      48.652   6.606  14.702  0.00  0.00    +0.000 A 
ATOM      8  C   UNL     1      47.745   5.708  14.099  0.00  0.00    +0.000 A 
ATOM      9  C   UNL     1      47.263   4.680  14.916  0.00  0.00    +0.000 A 
BRANCH   7  10
ATOM     10  C   UNL     1      49.301   7.695  13.888  0.00  0.00    +0.000 C 
ATOM     11  N   UNL     1      50.671   7.668  13.839  0.00  0.00    +0.000 N 
ATOM     12  O   UNL     1      48.662   8.534  13.270  0.00  0.00    +0.000 OA
ATOM     13  H   UNL     1      51.169   6.913  14.295  0.00  0.00    +0.000 HD
ATOM     14  H   UNL     1      51.160   8.315  13.240  0.00  0.00    +0.000 HD
ENDBRANCH   7  10
ENDBRANCH   1   8
BRANCH   1  15
ATOM     15  C   UNL     1      45.888   6.092  12.372  0.00  0.00    +0.000 C 
ATOM     16  C   UNL     1      45.692   7.246  11.383  0.00  0.00    +0.000 C 
ATOM     17  C   UNL     1      45.218   7.385  12.794  0.00  0.00    +0.000 C 
BRANCH  15  18
ATOM     18  C   UNL     1      45.083   4.821  12.000  0.00  0.00    +0.000 A 
ATOM     19  C   UNL     1      43.983   4.366  12.743  0.00  0.00    +0.000 A 
ATOM     20  C   UNL     1      43.206   3.317  12.271  0.00  0.00    +0.000 A 
ATOM     21  N   UNL     1      43.451   2.655  11.124  0.00  0.00    +0.000 NA
ATOM     22  C   UNL     1      44.524   3.057  10.396  0.00  0.00    +0.000 A 
ATOM     23  C   UNL     1      45.342   4.110  10.817  0.00  0.00    +0.000 A 
BRANCH  22  24
ATOM     24  C   UNL     1      44.856   2.389   9.068  0.00  0.00    +0.000 C 
ATOM     25  F   UNL     1      46.188   2.198   8.849  0.00  0.00    +0.000 F 
ATOM     26  F   UNL     1      44.284   1.154   8.947  0.00  0.00    +0.000 F 
ATOM     27  F   UNL     1      44.401   3.103   7.996  0.00  0.00    +0.000 F 
ENDBRANCH  22  24
ENDBRANCH  15  18
ENDBRANCH   1  15
TORSDOF 5
ENDMDL
MODEL 4
REMARK VINA RESULT:    -6.928      3.370      4.288
REMARK INTER + INTRA:          -9.819
REMARK INTER:                  -9.097
REMARK INTRA:                  -0.722
REMARK UNBOUND:                -0.865
REMARK  Name = 
REMARK  6 active torsions:
REMARK  status: ('A' for Active; 'I' for Inactive)
REMARK    1  A    between atoms: C_1  and  C_2
REMARK    2  A    between atoms: C_5  and  C_6
REMARK    3  A    between atoms: C_9  and  N_10
REMARK    4  A    between atoms: N_10  and  C_11
REMARK    5  A    between atoms: C_11  and  C_12
REMARK    6  A    between atoms: C_16  and  C_17
REMARK                            x       y       z     vdW  Elec       q    Type
REMARK                         _______ _______ _______ _____ _____    ______ ____
ROOT
ATOM      1  N   UNL     1      47.349   5.710  12.872  0.00  0.00    +0.000 N 
ATOM      2  H   UNL     1      47.670   4.745  12.703  0.00  0.00    +0.000 HD
ENDROOT
BRANCH   1   8
ATOM      3  C   UNL     1      49.505   9.308  15.566  0.00  0.00    +0.000 C 
ATOM      4  C   UNL     1      48.950   7.924  15.431  0.00  0.00    +0.000 A 
ATOM      5  C   UNL     1      48.978   7.034  16.499  0.00  0.00    +0.000 A 
ATOM      6  N   UNL     1      48.493   5.776  16.447  0.00  0.00    +0.000 NA
ATOM      7  C   UNL     1      47.959   5.383  15.250  0.00  0.00    +0.000 A 
ATOM      8  C   UNL     1      47.870   6.197  14.099  0.00  0.00    +0.000 A 
ATOM      9  C   UNL     1      48.374   7.495  14.224  0.00  0.00    +0.000 A 
BRANCH   7  10
ATOM     10  C   UNL     1      47.364   3.999  15.252  0.00  0.00    +0.000 C 
ATOM     11  N   UNL     1      46.750   3.615  16.416  0.00  0.00    +0.000 N 
ATOM     12  O   UNL     1      47.383   3.265  14.275  0.00  0.00    +0.000 OA
ATOM     13  H   UNL     1      46.679   4.276  17.181  0.00  0.00    +0.000 HD
ATOM     14  H   UNL     1      46.255   2.737  16.452  0.00  0.00    +0.000 HD
ENDBRANCH   7  10
ENDBRANCH   1   8
BRANCH   1  15
ATOM     15  C   UNL     1      45.957   5.947  12.408  0.00  0.00    +0.000 C 
ATOM     16  C   UNL     1      45.829   7.093  11.399  0.00  0.00    +0.000 C 
ATOM     17  C   UNL     1      45.282   7.252  12.782  0.00  0.00    +0.000 C 
BRANCH  15  18
ATOM     18  C   UNL     1      45.157   4.682  12.006  0.00  0.00    +0.000 A 
ATOM     19  C   UNL     1      44.065   4.200  12.744  0.00  0.00    +0.000 A 
ATOM     20  C   UNL     1      43.291   3.160  12.248  0.00  0.00    +0.000 A 
ATOM     21  N   UNL     1      43.532   2.532  11.080  0.00  0.00    +0.000 NA
ATOM     22  C   UNL     1      44.597   2.961  10.357  0.00  0.00    +0.000 A 
ATOM     23  C   UNL     1      45.412   4.005  10.802  0.00  0.00    +0.000 A 
BRANCH  22  24
ATOM     24  C   UNL     1      44.925   2.331   9.009  0.00  0.00    +0.000 C 
ATOM     25  F   UNL     1      46.257   2.212   8.749  0.00  0.00    +0.000 F 
ATOM     26  F   UNL     1      44.412   1.071   8.882  0.00  0.00    +0.000 F 
ATOM     27  F   UNL     1      44.403   3.039   7.963  0.00  0.00    +0.000 F 
ENDBRANCH  22  24
ENDBRANCH  15  18
ENDBRANCH   1  15
TORSDOF 5
ENDMDL
MODEL 5
REMARK VINA RESULT:    -6.720      4.310      6.695
REMARK INTER + INTRA:          -9.549
REMARK INTER:                  -9.165
REMARK INTRA:                  -0.384
REMARK UNBOUND:                -0.865
REMARK  Name = 
REMARK  6 active torsions:
REMARK  status: ('A' for Active; 'I' for Inactive)
REMARK    1  A    between atoms: C_1  and  C_2
REMARK    2  A    between atoms: C_5  and  C_6
REMARK    3  A    between atoms: C_9  and  N_10
REMARK    4  A    between atoms: N_10  and  C_11
REMARK    5  A    between atoms: C_11  and  C_12
REMARK    6  A    between atoms: C_16  and  C_17
REMARK                            x       y       z     vdW  Elec       q    Type
REMARK                         _______ _______ _______ _____ _____    ______ ____
ROOT
ATOM      1  N   UNL     1      45.173   5.979  11.338  0.00  0.00    +0.000 N 
ATOM      2  H   UNL     1      44.349   6.014  11.957  0.00  0.00    +0.000 HD
ENDROOT
BRANCH   1   8
ATOM      3  C   UNL     1      46.326   3.798   7.007  0.00  0.00    +0.000 C 
ATOM      4  C   UNL     1      45.586   3.821   8.309  0.00  0.00    +0.000 A 
ATOM      5  C   UNL     1      44.711   2.796   8.653  0.00  0.00    +0.000 A 
ATOM      6  N   UNL     1      44.017   2.753   9.809  0.00  0.00    +0.000 NA
ATOM      7  C   UNL     1      44.202   3.803  10.665  0.00  0.00    +0.000 A 
ATOM      8  C   UNL     1      45.066   4.895  10.430  0.00  0.00    +0.000 A 
ATOM      9  C   UNL     1      45.769   4.872   9.221  0.00  0.00    +0.000 A 
BRANCH   7  10
ATOM     10  C   UNL     1      43.466   3.683  11.974  0.00  0.00    +0.000 C 
ATOM     11  N   UNL     1      43.556   2.467  12.600  0.00  0.00    +0.000 N 
ATOM     12  O   UNL     1      42.855   4.612  12.481  0.00  0.00    +0.000 OA
ATOM     13  H   UNL     1      44.136   1.742  12.195  0.00  0.00    +0.000 HD
ATOM     14  H   UNL     1      43.161   2.350  13.521  0.00  0.00    +0.000 HD
ENDBRANCH   7  10
ENDBRANCH   1   8
BRANCH   1  15
ATOM     15  C   UNL     1      46.432   6.360  12.032  0.00  0.00    +0.000 C 
ATOM     16  C   UNL     1      46.576   7.868  12.266  0.00  0.00    +0.000 C 
ATOM     17  C   UNL     1      47.456   7.180  11.272  0.00  0.00    +0.000 C 
BRANCH  15  18
ATOM     18  C   UNL     1      46.803   5.508  13.271  0.00  0.00    +0.000 A 
ATOM     19  C   UNL     1      46.607   4.119  13.332  0.00  0.00    +0.000 A 
ATOM     20  C   UNL     1      47.106   3.389  14.403  0.00  0.00    +0.000 A 
ATOM     21  N   UNL     1      47.765   3.934  15.444  0.00  0.00    +0.000 NA
ATOM     22  C   UNL     1      47.947   5.279  15.424  0.00  0.00    +0.000 A 
ATOM     23  C   UNL     1      47.472   6.067  14.372  0.00  0.00    +0.000 A 
BRANCH  22  24
ATOM     24  C   UNL     1      48.711   5.976  16.542  0.00  0.00    +0.000 C 
ATOM     25  F   UNL     1      49.100   7.250  16.254  0.00  0.00    +0.000 F 
ATOM     26  F   UNL     1      47.983   6.066  17.695  0.00  0.00    +0.000 F 
ATOM     27  F   UNL     1      49.852   5.308  16.890  0.00  0.00    +0.000 F 
ENDBRANCH  22  24
ENDBRANCH  15  18
ENDBRANCH   1  15
TORSDOF 5
ENDMDL
MODEL 6
REMARK VINA RESULT:    -6.707      3.486      6.146
REMARK INTER + INTRA:          -9.533
REMARK INTER:                  -8.445
REMARK INTRA:                  -1.087
REMARK UNBOUND:                -0.865
REMARK  Name = 
REMARK  6 active torsions:
REMARK  status: ('A' for Active; 'I' for Inactive)
REMARK    1  A    between atoms: C_1  and  C_2
REMARK    2  A    between atoms: C_5  and  C_6
REMARK    3  A    between atoms: C_9  and  N_10
REMARK    4  A    between atoms: N_10  and  C_11
REMARK    5  A    between atoms: C_11  and  C_12
REMARK    6  A    between atoms: C_16  and  C_17
REMARK                            x       y       z     vdW  Elec       q    Type
REMARK                         _______ _______ _______ _____ _____    ______ ____
ROOT
ATOM      1  N   UNL     1      44.207   6.218  10.961  0.00  0.00    +0.000 N 
ATOM      2  H   UNL     1      43.490   5.994  11.667  0.00  0.00    +0.000 HD
ENDROOT
BRANCH   1   8
ATOM      3  C   UNL     1      46.487   3.971   7.139  0.00  0.00    +0.000 C 
ATOM      4  C   UNL     1      45.692   3.919   8.407  0.00  0.00    +0.000 A 
ATOM      5  C   UNL     1      45.266   2.705   8.935  0.00  0.00    +0.000 A 
ATOM      6  N   UNL     1      44.550   2.587  10.073  0.00  0.00    +0.000 NA
ATOM      7  C   UNL     1      44.233   3.754  10.713  0.00  0.00    +0.000 A 
ATOM      8  C   UNL     1      44.613   5.043  10.277  0.00  0.00    +0.000 A 
ATOM      9  C   UNL     1      45.368   5.096   9.101  0.00  0.00    +0.000 A 
BRANCH   7  10
ATOM     10  C   UNL     1      43.496   3.577  12.014  0.00  0.00    +0.000 C 
ATOM     11  N   UNL     1      43.724   2.396  12.673  0.00  0.00    +0.000 N 
ATOM     12  O   UNL     1      42.769   4.436  12.490  0.00  0.00    +0.000 OA
ATOM     13  H   UNL     1      44.394   1.737  12.293  0.00  0.00    +0.000 HD
ATOM     14  H   UNL     1      43.331   2.254  13.590  0.00  0.00    +0.000 HD
ENDBRANCH   7  10
ENDBRANCH   1   8
BRANCH   1  15
ATOM     15  C   UNL     1      45.141   7.286  11.403  0.00  0.00    +0.000 C 
ATOM     16  C   UNL     1      44.450   8.460  12.106  0.00  0.00    +0.000 C 
ATOM     17  C   UNL     1      45.044   8.649  10.747  0.00  0.00    +0.000 C 
BRANCH  15  18
ATOM     18  C   UNL     1      46.421   6.802  12.131  0.00  0.00    +0.000 A 
ATOM     19  C   UNL     1      47.688   7.363  11.907  0.00  0.00    +0.000 A 
ATOM     20  C   UNL     1      48.765   6.999  12.703  0.00  0.00    +0.000 A 
ATOM     21  N   UNL     1      48.694   6.090  13.696  0.00  0.00    +0.000 NA
ATOM     22  C   UNL     1      47.486   5.512  13.919  0.00  0.00    +0.000 A 
ATOM     23  C   UNL     1      46.364   5.841  13.153  0.00  0.00    +0.000 A 
BRANCH  22  24
ATOM     24  C   UNL     1      47.305   4.500  15.043  0.00  0.00    +0.000 C 
ATOM     25  F   UNL     1      48.211   4.611  16.056  0.00  0.00    +0.000 F 
ATOM     26  F   UNL     1      46.078   4.592  15.636  0.00  0.00    +0.000 F 
ATOM     27  F   UNL     1      47.396   3.210  14.602  0.00  0.00    +0.000 F 
ENDBRANCH  22  24
ENDBRANCH  15  18
ENDBRANCH   1  15
TORSDOF 5
ENDMDL
MODEL 7
REMARK VINA RESULT:    -6.402      2.152      3.868
REMARK INTER + INTRA:          -9.138
REMARK INTER:                  -7.880
REMARK INTRA:                  -1.258
REMARK UNBOUND:                -0.865
REMARK  Name = 
REMARK  6 active torsions:
REMARK  status: ('A' for Active; 'I' for Inactive)
REMARK    1  A    between atoms: C_1  and  C_2
REMARK    2  A    between atoms: C_5  and  C_6
REMARK    3  A    between atoms: C_9  and  N_10
REMARK    4  A    between atoms: N_10  and  C_11
REMARK    5  A    between atoms: C_11  and  C_12
REMARK    6  A    between atoms: C_16  and  C_17
REMARK                            x       y       z     vdW  Elec       q    Type
REMARK                         _______ _______ _______ _____ _____    ______ ____
ROOT
ATOM      1  N   UNL     1      46.011   7.965  13.269  0.00  0.00    +0.000 N 
ATOM      2  H   UNL     1      45.310   7.907  14.023  0.00  0.00    +0.000 HD
ENDROOT
BRANCH   1   8
ATOM      3  C   UNL     1      42.965  10.387  10.153  0.00  0.00    +0.000 C 
ATOM      4  C   UNL     1      44.275  10.249  10.865  0.00  0.00    +0.000 A 
ATOM      5  C   UNL     1      45.298  11.171  10.666  0.00  0.00    +0.000 A 
ATOM      6  N   UNL     1      46.499  11.109  11.277  0.00  0.00    +0.000 NA
ATOM      7  C   UNL     1      46.691  10.055  12.128  0.00  0.00    +0.000 A 
ATOM      8  C   UNL     1      45.729   9.062  12.414  0.00  0.00    +0.000 A 
ATOM      9  C   UNL     1      44.499   9.193  11.762  0.00  0.00    +0.000 A 
BRANCH   7  10
ATOM     10  C   UNL     1      48.017  10.059  12.844  0.00  0.00    +0.000 C 
ATOM     11  N   UNL     1      49.077  10.559  12.133  0.00  0.00    +0.000 N 
ATOM     12  O   UNL     1      48.151   9.683  13.998  0.00  0.00    +0.000 OA
ATOM     13  H   UNL     1      48.919  10.938  11.206  0.00  0.00    +0.000 HD
ATOM     14  H   UNL     1      49.971  10.672  12.585  0.00  0.00    +0.000 HD
ENDBRANCH   7  10
ENDBRANCH   1   8
BRANCH   1  15
ATOM     15  C   UNL     1      46.456   6.630  12.789  0.00  0.00    +0.000 C 
ATOM     16  C   UNL     1      47.448   5.935  13.727  0.00  0.00    +0.000 C 
ATOM     17  C   UNL     1      47.910   6.449  12.401  0.00  0.00    +0.000 C 
BRANCH  15  18
ATOM     18  C   UNL     1      45.335   5.692  12.275  0.00  0.00    +0.000 A 
ATOM     19  C   UNL     1      44.102   5.542  12.928  0.00  0.00    +0.000 A 
ATOM     20  C   UNL     1      43.080   4.813  12.335  0.00  0.00    +0.000 A 
ATOM     21  N   UNL     1      43.193   4.187  11.147  0.00  0.00    +0.000 NA
ATOM     22  C   UNL     1      44.384   4.294  10.504  0.00  0.00    +0.000 A 
ATOM     23  C   UNL     1      45.448   5.017  11.048  0.00  0.00    +0.000 A 
BRANCH  22  24
ATOM     24  C   UNL     1      44.590   3.648   9.140  0.00  0.00    +0.000 C 
ATOM     25  F   UNL     1      44.023   4.325   8.102  0.00  0.00    +0.000 F 
ATOM     26  F   UNL     1      45.911   3.520   8.817  0.00  0.00    +0.000 F 
ATOM     27  F   UNL     1      44.081   2.381   9.080  0.00  0.00    +0.000 F 
ENDBRANCH  22  24
ENDBRANCH  15  18
ENDBRANCH   1  15
TORSDOF 5
ENDMDL
MODEL 8
REMARK VINA RESULT:    -5.971      4.516      6.839
REMARK INTER + INTRA:          -8.581
REMARK INTER:                  -7.658
REMARK INTRA:                  -0.923
REMARK UNBOUND:                -0.865
REMARK  Name = 
REMARK  6 active torsions:
REMARK  status: ('A' for Active; 'I' for Inactive)
REMARK    1  A    between atoms: C_1  and  C_2
REMARK    2  A    between atoms: C_5  and  C_6
REMARK    3  A    between atoms: C_9  and  N_10
REMARK    4  A    between atoms: N_10  and  C_11
REMARK    5  A    between atoms: C_11  and  C_12
REMARK    6  A    between atoms: C_16  and  C_17
REMARK                            x       y       z     vdW  Elec       q    Type
REMARK                         _______ _______ _______ _____ _____    ______ ____
ROOT
ATOM      1  N   UNL     1      47.209   7.948  14.105  0.00  0.00    +0.000 N 
ATOM      2  H   UNL     1      46.677   8.335  14.899  0.00  0.00    +0.000 HD
ENDROOT
BRANCH   1   8
ATOM      3  C   UNL     1      45.328   3.707  12.281  0.00  0.00    +0.000 C 
ATOM      4  C   UNL     1      45.431   5.201  12.288  0.00  0.00    +0.000 A 
ATOM      5  C   UNL     1      44.718   5.972  11.376  0.00  0.00    +0.000 A 
ATOM      6  N   UNL     1      44.763   7.320  11.329  0.00  0.00    +0.000 NA
ATOM      7  C   UNL     1      45.578   7.930  12.243  0.00  0.00    +0.000 A 
ATOM      8  C   UNL     1      46.344   7.256  13.219  0.00  0.00    +0.000 A 
ATOM      9  C   UNL     1      46.241   5.862  13.226  0.00  0.00    +0.000 A 
BRANCH   7  10
ATOM     10  C   UNL     1      45.546   9.435  12.206  0.00  0.00    +0.000 C 
ATOM     11  N   UNL     1      44.344  10.015  12.523  0.00  0.00    +0.000 N 
ATOM     12  O   UNL     1      46.528  10.116  11.950  0.00  0.00    +0.000 OA
ATOM     13  H   UNL     1      43.570   9.427  12.808  0.00  0.00    +0.000 HD
ATOM     14  H   UNL     1      44.281  11.018  12.603  0.00  0.00    +0.000 HD
ENDBRANCH   7  10
ENDBRANCH   1   8
BRANCH   1  15
ATOM     15  C   UNL     1      48.559   7.463  14.495  0.00  0.00    +0.000 C 
ATOM     16  C   UNL     1      49.657   8.525  14.369  0.00  0.00    +0.000 C 
ATOM     17  C   UNL     1      49.629   7.365  13.426  0.00  0.00    +0.000 C 
BRANCH  15  18
ATOM     18  C   UNL     1      48.630   6.660  15.818  0.00  0.00    +0.000 A 
ATOM     19  C   UNL     1      48.738   7.268  17.079  0.00  0.00    +0.000 A 
ATOM     20  C   UNL     1      48.635   6.505  18.234  0.00  0.00    +0.000 A 
ATOM     21  N   UNL     1      48.462   5.169  18.242  0.00  0.00    +0.000 NA
ATOM     22  C   UNL     1      48.380   4.551  17.036  0.00  0.00    +0.000 A 
ATOM     23  C   UNL     1      48.472   5.265  15.839  0.00  0.00    +0.000 A 
BRANCH  22  24
ATOM     24  C   UNL     1      48.150   3.047  16.949  0.00  0.00    +0.000 C 
ATOM     25  F   UNL     1      47.127   2.586  17.723  0.00  0.00    +0.000 F 
ATOM     26  F   UNL     1      47.863   2.635  15.679  0.00  0.00    +0.000 F 
ATOM     27  F   UNL     1      49.251   2.328  17.320  0.00  0.00    +0.000 F 
ENDBRANCH  22  24
ENDBRANCH  15  18
ENDBRANCH   1  15
TORSDOF 5
ENDMDL
MODEL 9
REMARK VINA RESULT:    -5.964      4.640      6.422
REMARK INTER + INTRA:          -8.572
REMARK INTER:                  -7.460
REMARK INTRA:                  -1.112
REMARK UNBOUND:                -0.865
REMARK  Name = 
REMARK  6 active torsions:
REMARK  status: ('A' for Active; 'I' for Inactive)
REMARK    1  A    between atoms: C_1  and  C_2
REMARK    2  A    between atoms: C_5  and  C_6
REMARK    3  A    between atoms: C_9  and  N_10
REMARK    4  A    between atoms: N_10  and  C_11
REMARK    5  A    between atoms: C_11  and  C_12
REMARK    6  A    between atoms: C_16  and  C_17
REMARK                            x       y       z     vdW  Elec       q    Type
REMARK                         _______ _______ _______ _____ _____    ______ ____
ROOT
ATOM      1  N   UNL     1      49.116   6.531  15.028  0.00  0.00    +0.000 N 
ATOM      2  H   UNL     1      49.237   5.522  14.852  0.00  0.00    +0.000 HD
ENDROOT
BRANCH   1   8
ATOM      3  C   UNL     1      48.117   9.577  18.846  0.00  0.00    +0.000 C 
ATOM      4  C   UNL     1      48.178   8.209  18.239  0.00  0.00    +0.000 A 
ATOM      5  C   UNL     1      47.826   7.084  18.977  0.00  0.00    +0.000 A 
ATOM      6  N   UNL     1      47.855   5.825  18.492  0.00  0.00    +0.000 NA
ATOM      7  C   UNL     1      48.270   5.685  17.196  0.00  0.00    +0.000 A 
ATOM      8  C   UNL     1      48.645   6.750  16.349  0.00  0.00    +0.000 A 
ATOM      9  C   UNL     1      48.578   8.031  16.905  0.00  0.00    +0.000 A 
BRANCH   7  10
ATOM     10  C   UNL     1      48.220   4.274  16.670  0.00  0.00    +0.000 C 
ATOM     11  N   UNL     1      46.977   3.809  16.326  0.00  0.00    +0.000 N 
ATOM     12  O   UNL     1      49.218   3.586  16.514  0.00  0.00    +0.000 OA
ATOM     13  H   UNL     1      46.179   4.431  16.391  0.00  0.00    +0.000 HD
ATOM     14  H   UNL     1      46.887   2.907  15.885  0.00  0.00    +0.000 HD
ENDBRANCH   7  10
ENDBRANCH   1   8
BRANCH   1  15
ATOM     15  C   UNL     1      48.623   7.271  13.837  0.00  0.00    +0.000 C 
ATOM     16  C   UNL     1      49.656   7.390  12.712  0.00  0.00    +0.000 C 
ATOM     17  C   UNL     1      49.265   8.601  13.496  0.00  0.00    +0.000 C 
BRANCH  15  18
ATOM     18  C   UNL     1      47.211   6.876  13.335  0.00  0.00    +0.000 A 
ATOM     19  C   UNL     1      46.260   7.815  12.907  0.00  0.00    +0.000 A 
ATOM     20  C   UNL     1      45.076   7.391  12.319  0.00  0.00    +0.000 A 
ATOM     21  N   UNL     1      44.740   6.098  12.146  0.00  0.00    +0.000 NA
ATOM     22  C   UNL     1      45.631   5.167  12.574  0.00  0.00    +0.000 A 
ATOM     23  C   UNL     1      46.842   5.531  13.170  0.00  0.00    +0.000 A 
BRANCH  22  24
ATOM     24  C   UNL     1      45.351   3.681  12.388  0.00  0.00    +0.000 C 
ATOM     25  F   UNL     1      44.135   3.273  12.850  0.00  0.00    +0.000 F 
ATOM     26  F   UNL     1      45.391   3.302  11.076  0.00  0.00    +0.000 F 
ATOM     27  F   UNL     1      46.273   2.894  13.018  0.00  0.00    +0.000 F 
ENDBRANCH  22  24
ENDBRANCH  15  18
ENDBRANCH   1  15
TORSDOF 5
ENDMDL
