MODEL 1
REMARK VINA RESULT:    -7.839      0.000      0.000
REMARK INTER + INTRA:         -11.857
REMARK INTER:                 -10.588
REMARK INTRA:                  -1.269
REMARK UNBOUND:                -1.269
REMARK  Name = 
REMARK  7 active torsions:
REMARK  status: ('A' for Active; 'I' for Inactive)
REMARK    1  A    between atoms: C_1  and  N_2
REMARK    2  A    between atoms: N_2  and  C_3
REMARK    3  A    between atoms: C_3  and  C_4
REMARK    4  A    between atoms: C_7  and  C_8
REMARK    5  A    between atoms: C_8  and  N_9
REMARK    6  A    between atoms: C_10  and  C_12
REMARK    7  A    between atoms: C_19  and  C_21
REMARK                            x       y       z     vdW  Elec       q    Type
REMARK                         _______ _______ _______ _____ _____    ______ ____
ROOT
ATOM      1  C   UNL     1      47.373   5.870  13.718  0.00  0.00    +0.000 A 
ATOM      2  C   UNL     1      46.824   4.726  14.321  0.00  0.00    +0.000 A 
ATOM      3  C   UNL     1      47.211   4.348  15.606  0.00  0.00    +0.000 A 
ATOM      4  C   UNL     1      48.145   5.113  16.316  0.00  0.00    +0.000 A 
ATOM      5  C   UNL     1      48.695   6.251  15.713  0.00  0.00    +0.000 A 
ATOM      6  C   UNL     1      48.305   6.633  14.428  0.00  0.00    +0.000 A 
ENDROOT
BRANCH   1   7
ATOM      7  C   UNL     1      46.996   6.244  12.308  0.00  0.00    +0.000 C 
BRANCH   7   9
ATOM      8  C   UNL     1      45.986   8.560  12.174  0.00  0.00    +0.000 C 
ATOM      9  N   UNL     1      45.832   7.111  12.108  0.00  0.00    +0.000 N 
ATOM     10  C   UNL     1      44.617   6.643  11.573  0.00  0.00    +0.000 C 
ATOM     11  O   UNL     1      43.736   7.423  11.216  0.00  0.00    +0.000 OA
BRANCH  10  12
ATOM     12  C   UNL     1      44.376   5.194  11.481  0.00  0.00    +0.000 A 
ATOM     13  C   UNL     1      43.645   4.459  12.400  0.00  0.00    +0.000 A 
ATOM     14  S   UNL     1      43.477   2.812  11.982  0.00  0.00    +0.000 S 
ATOM     15  C   UNL     1      44.243   3.061  10.485  0.00  0.00    +0.000 A 
ATOM     16  N   UNL     1      44.331   2.060   9.570  0.00  0.00    +0.000 NA
ATOM     17  C   UNL     1      44.878   2.413   8.453  0.00  0.00    +0.000 A 
ATOM     18  N   UNL     1      45.377   3.663   8.188  0.00  0.00    +0.000 N 
ATOM     19  C   UNL     1      45.438   4.663   9.134  0.00  0.00    +0.000 A 
ATOM     20  O   UNL     1      46.111   5.669   8.945  0.00  0.00    +0.000 OA
ATOM     21  C   UNL     1      44.717   4.354  10.356  0.00  0.00    +0.000 A 
ATOM     22  H   UNL     1      45.857   3.851   7.321  0.00  0.00    +0.000 HD
ENDBRANCH  10  12
ENDBRANCH   7   9
ENDBRANCH   1   7
BRANCH   4  23
ATOM     23  C   UNL     1      48.572   4.703  17.697  0.00  0.00    +0.000 C 
BRANCH  23  24
ATOM     24  N   UNL     1      49.485   3.594  17.669  0.00  0.00    +0.000 N 
ATOM     25  C   UNL     1      50.844   3.793  17.678  0.00  0.00    +0.000 C 
ATOM     26  O   UNL     1      51.371   4.900  17.683  0.00  0.00    +0.000 OA
ATOM     27  H   UNL     1      49.157   2.633  17.675  0.00  0.00    +0.000 HD
BRANCH  25  28
ATOM     28  C   UNL     1      51.608   2.547  17.687  0.00  0.00    +0.000 A 
ATOM     29  C   UNL     1      51.145   1.296  17.336  0.00  0.00    +0.000 A 
ATOM     30  N   UNL     1      52.210   0.452  17.497  0.00  0.00    +0.000 N 
ATOM     31  C   UNL     1      53.264   1.200  17.935  0.00  0.00    +0.000 A 
ATOM     32  N   UNL     1      52.942   2.467  18.065  0.00  0.00    +0.000 NA
ATOM     33  H   UNL     1      52.217  -0.545  17.323  0.00  0.00    +0.000 HD
ENDBRANCH  25  28
ENDBRANCH  23  24
ENDBRANCH   4  23
TORSDOF 6
ENDMDL
MODEL 2
REMARK VINA RESULT:    -7.751      1.625      2.472
REMARK INTER + INTRA:         -11.739
REMARK INTER:                 -10.582
REMARK INTRA:                  -1.158
REMARK UNBOUND:                -1.269
REMARK  Name = 
REMARK  7 active torsions:
REMARK  status: ('A' for Active; 'I' for Inactive)
REMARK    1  A    between atoms: C_1  and  N_2
REMARK    2  A    between atoms: N_2  and  C_3
REMARK    3  A    between atoms: C_3  and  C_4
REMARK    4  A    between atoms: C_7  and  C_8
REMARK    5  A    between atoms: C_8  and  N_9
REMARK    6  A    between atoms: C_10  and  C_12
REMARK    7  A    between atoms: C_19  and  C_21
REMARK                            x       y       z     vdW  Elec       q    Type
REMARK                         _______ _______ _______ _____ _____    ______ ____
ROOT
ATOM      1  C   UNL     1      47.554   5.790  13.684  0.00  0.00    +0.000 A 
ATOM      2  C   UNL     1      48.247   6.295  14.796  0.00  0.00    +0.000 A 
ATOM      3  C   UNL     1      48.329   5.555  15.975  0.00  0.00    +0.000 A 
ATOM      4  C   UNL     1      47.729   4.293  16.060  0.00  0.00    +0.000 A 
ATOM      5  C   UNL     1      47.034   3.791  14.952  0.00  0.00    +0.000 A 
ATOM      6  C   UNL     1      46.955   4.529  13.769  0.00  0.00    +0.000 A 
ENDROOT
BRANCH   1   7
ATOM      7  C   UNL     1      47.418   6.616  12.431  0.00  0.00    +0.000 C 
BRANCH   7   9
ATOM      8  C   UNL     1      46.398   8.874  12.947  0.00  0.00    +0.000 C 
ATOM      9  N   UNL     1      46.296   7.553  12.336  0.00  0.00    +0.000 N 
ATOM     10  C   UNL     1      45.222   7.367  11.446  0.00  0.00    +0.000 C 
ATOM     11  O   UNL     1      44.409   8.265  11.230  0.00  0.00    +0.000 OA
BRANCH  10  12
ATOM     12  C   UNL     1      45.039   6.060  10.794  0.00  0.00    +0.000 A 
ATOM     13  C   UNL     1      45.613   5.696   9.587  0.00  0.00    +0.000 A 
ATOM     14  S   UNL     1      45.276   4.088   9.124  0.00  0.00    +0.000 S 
ATOM     15  C   UNL     1      44.479   3.778  10.593  0.00  0.00    +0.000 A 
ATOM     16  N   UNL     1      44.032   2.531  10.897  0.00  0.00    +0.000 NA
ATOM     17  C   UNL     1      43.508   2.431  12.074  0.00  0.00    +0.000 A 
ATOM     18  N   UNL     1      43.357   3.472  12.954  0.00  0.00    +0.000 N 
ATOM     19  C   UNL     1      43.664   4.777  12.633  0.00  0.00    +0.000 A 
ATOM     20  O   UNL     1      43.286   5.705  13.337  0.00  0.00    +0.000 OA
ATOM     21  C   UNL     1      44.377   4.915  11.375  0.00  0.00    +0.000 A 
ATOM     22  H   UNL     1      42.873   3.339  13.829  0.00  0.00    +0.000 HD
ENDBRANCH  10  12
ENDBRANCH   7   9
ENDBRANCH   1   7
BRANCH   4  23
ATOM     23  C   UNL     1      47.807   3.497  17.333  0.00  0.00    +0.000 C 
BRANCH  23  24
ATOM     24  N   UNL     1      49.161   3.163  17.674  0.00  0.00    +0.000 N 
ATOM     25  C   UNL     1      49.858   2.215  16.966  0.00  0.00    +0.000 C 
ATOM     26  O   UNL     1      49.386   1.577  16.031  0.00  0.00    +0.000 OA
ATOM     27  H   UNL     1      49.655   3.639  18.423  0.00  0.00    +0.000 HD
BRANCH  25  28
ATOM     28  C   UNL     1      51.233   2.043  17.434  0.00  0.00    +0.000 A 
ATOM     29  C   UNL     1      52.050   3.021  17.962  0.00  0.00    +0.000 A 
ATOM     30  N   UNL     1      53.229   2.393  18.258  0.00  0.00    +0.000 N 
ATOM     31  C   UNL     1      53.096   1.082  17.904  0.00  0.00    +0.000 A 
ATOM     32  N   UNL     1      51.909   0.830  17.402  0.00  0.00    +0.000 NA
ATOM     33  H   UNL     1      54.051   2.821  18.665  0.00  0.00    +0.000 HD
ENDBRANCH  25  28
ENDBRANCH  23  24
ENDBRANCH   4  23
TORSDOF 6
ENDMDL
MODEL 3
REMARK VINA RESULT:    -7.399      3.577      8.562
REMARK INTER + INTRA:         -11.264
REMARK INTER:                 -10.156
REMARK INTRA:                  -1.108
REMARK UNBOUND:                -1.269
REMARK  Name = 
REMARK  7 active torsions:
REMARK  status: ('A' for Active; 'I' for Inactive)
REMARK    1  A    between atoms: C_1  and  N_2
REMARK    2  A    between atoms: N_2  and  C_3
REMARK    3  A    between atoms: C_3  and  C_4
REMARK    4  A    between atoms: C_7  and  C_8
REMARK    5  A    between atoms: C_8  and  N_9
REMARK    6  A    between atoms: C_10  and  C_12
REMARK    7  A    between atoms: C_19  and  C_21
REMARK                            x       y       z     vdW  Elec       q    Type
REMARK                         _______ _______ _______ _____ _____    ______ ____
ROOT
ATOM      1  C   UNL     1      46.539   6.863  12.900  0.00  0.00    +0.000 A 
ATOM      2  C   UNL     1      45.731   7.253  11.820  0.00  0.00    +0.000 A 
ATOM      3  C   UNL     1      44.960   6.313  11.137  0.00  0.00    +0.000 A 
ATOM      4  C   UNL     1      44.974   4.968  11.529  0.00  0.00    +0.000 A 
ATOM      5  C   UNL     1      45.784   4.579  12.604  0.00  0.00    +0.000 A 
ATOM      6  C   UNL     1      46.553   5.521  13.291  0.00  0.00    +0.000 A 
ENDROOT
BRANCH   1   7
ATOM      7  C   UNL     1      47.415   7.870  13.600  0.00  0.00    +0.000 C 
BRANCH   7   9
ATOM      8  C   UNL     1      49.478   7.332  12.237  0.00  0.00    +0.000 C 
ATOM      9  N   UNL     1      48.868   7.709  13.507  0.00  0.00    +0.000 N 
ATOM     10  C   UNL     1      49.750   8.171  14.503  0.00  0.00    +0.000 C 
ATOM     11  O   UNL     1      50.963   8.219  14.307  0.00  0.00    +0.000 OA
BRANCH  10  12
ATOM     12  C   UNL     1      49.218   8.562  15.818  0.00  0.00    +0.000 A 
ATOM     13  C   UNL     1      48.973   9.867  16.211  0.00  0.00    +0.000 A 
ATOM     14  S   UNL     1      48.286   9.997  17.768  0.00  0.00    +0.000 S 
ATOM     15  C   UNL     1      48.152   8.308  17.907  0.00  0.00    +0.000 A 
ATOM     16  N   UNL     1      47.533   7.740  18.975  0.00  0.00    +0.000 NA
ATOM     17  C   UNL     1      47.447   6.453  18.912  0.00  0.00    +0.000 A 
ATOM     18  N   UNL     1      47.957   5.684  17.897  0.00  0.00    +0.000 N 
ATOM     19  C   UNL     1      48.714   6.203  16.869  0.00  0.00    +0.000 A 
ATOM     20  O   UNL     1      49.360   5.471  16.130  0.00  0.00    +0.000 OA
ATOM     21  C   UNL     1      48.724   7.655  16.829  0.00  0.00    +0.000 A 
ATOM     22  H   UNL     1      47.918   4.677  17.946  0.00  0.00    +0.000 HD
ENDBRANCH  10  12
ENDBRANCH   7   9
ENDBRANCH   1   7
BRANCH   4  23
ATOM     23  C   UNL     1      44.153   3.951  10.789  0.00  0.00    +0.000 C 
BRANCH  23  24
ATOM     24  N   UNL     1      44.970   3.078   9.994  0.00  0.00    +0.000 N 
ATOM     25  C   UNL     1      45.303   3.400   8.701  0.00  0.00    +0.000 C 
ATOM     26  O   UNL     1      44.918   4.415   8.129  0.00  0.00    +0.000 OA
ATOM     27  H   UNL     1      45.354   2.217  10.371  0.00  0.00    +0.000 HD
BRANCH  25  28
ATOM     28  C   UNL     1      46.174   2.411   8.068  0.00  0.00    +0.000 A 
ATOM     29  C   UNL     1      47.211   2.667   7.194  0.00  0.00    +0.000 A 
ATOM     30  N   UNL     1      47.732   1.444   6.875  0.00  0.00    +0.000 N 
ATOM     31  C   UNL     1      47.010   0.501   7.546  0.00  0.00    +0.000 A 
ATOM     32  N   UNL     1      46.060   1.042   8.275  0.00  0.00    +0.000 NA
ATOM     33  H   UNL     1      48.512   1.268   6.254  0.00  0.00    +0.000 HD
ENDBRANCH  25  28
ENDBRANCH  23  24
ENDBRANCH   4  23
TORSDOF 6
ENDMDL
MODEL 4
REMARK VINA RESULT:    -6.880      3.432      8.891
REMARK INTER + INTRA:         -10.562
REMARK INTER:                  -9.354
REMARK INTRA:                  -1.208
REMARK UNBOUND:                -1.269
REMARK  Name = 
REMARK  7 active torsions:
REMARK  status: ('A' for Active; 'I' for Inactive)
REMARK    1  A    between atoms: C_1  and  N_2
REMARK    2  A    between atoms: N_2  and  C_3
REMARK    3  A    between atoms: C_3  and  C_4
REMARK    4  A    between atoms: C_7  and  C_8
REMARK    5  A    between atoms: C_8  and  N_9
REMARK    6  A    between atoms: C_10  and  C_12
REMARK    7  A    between atoms: C_19  and  C_21
REMARK                            x       y       z     vdW  Elec       q    Type
REMARK                         _______ _______ _______ _____ _____    ______ ____
ROOT
ATOM      1  C   UNL     1      47.349   7.721  13.667  0.00  0.00    +0.000 A 
ATOM      2  C   UNL     1      47.449   6.368  13.305  0.00  0.00    +0.000 A 
ATOM      3  C   UNL     1      46.551   5.810  12.395  0.00  0.00    +0.000 A 
ATOM      4  C   UNL     1      45.544   6.597  11.823  0.00  0.00    +0.000 A 
ATOM      5  C   UNL     1      45.442   7.946  12.188  0.00  0.00    +0.000 A 
ATOM      6  C   UNL     1      46.344   8.507  13.095  0.00  0.00    +0.000 A 
ENDROOT
BRANCH   1   7
ATOM      7  C   UNL     1      48.285   8.307  14.692  0.00  0.00    +0.000 C 
BRANCH   7   9
ATOM      8  C   UNL     1      50.704   8.303  13.949  0.00  0.00    +0.000 C 
ATOM      9  N   UNL     1      49.640   7.761  14.788  0.00  0.00    +0.000 N 
ATOM     10  C   UNL     1      50.052   6.927  15.845  0.00  0.00    +0.000 C 
ATOM     11  O   UNL     1      51.240   6.658  16.018  0.00  0.00    +0.000 OA
BRANCH  10  12
ATOM     12  C   UNL     1      49.042   6.328  16.732  0.00  0.00    +0.000 A 
ATOM     13  C   UNL     1      48.475   5.078  16.547  0.00  0.00    +0.000 A 
ATOM     14  S   UNL     1      47.389   4.628  17.785  0.00  0.00    +0.000 S 
ATOM     15  C   UNL     1      47.757   6.022  18.685  0.00  0.00    +0.000 A 
ATOM     16  N   UNL     1      47.242   6.208  19.929  0.00  0.00    +0.000 NA
ATOM     17  C   UNL     1      47.661   7.278  20.520  0.00  0.00    +0.000 A 
ATOM     18  N   UNL     1      48.517   8.194  19.963  0.00  0.00    +0.000 N 
ATOM     19  C   UNL     1      48.949   8.120  18.656  0.00  0.00    +0.000 A 
ATOM     20  O   UNL     1      49.497   9.074  18.119  0.00  0.00    +0.000 OA
ATOM     21  C   UNL     1      48.610   6.869  18.000  0.00  0.00    +0.000 A 
ATOM     22  H   UNL     1      48.748   9.045  20.452  0.00  0.00    +0.000 HD
ENDBRANCH  10  12
ENDBRANCH   7   9
ENDBRANCH   1   7
BRANCH   4  23
ATOM     23  C   UNL     1      44.568   5.997  10.851  0.00  0.00    +0.000 C 
BRANCH  23  24
ATOM     24  N   UNL     1      45.231   5.245   9.823  0.00  0.00    +0.000 N 
ATOM     25  C   UNL     1      44.806   3.985   9.479  0.00  0.00    +0.000 C 
ATOM     26  O   UNL     1      43.873   3.407  10.026  0.00  0.00    +0.000 OA
ATOM     27  H   UNL     1      46.008   5.633   9.296  0.00  0.00    +0.000 HD
BRANCH  25  28
ATOM     28  C   UNL     1      45.577   3.396   8.385  0.00  0.00    +0.000 A 
ATOM     29  C   UNL     1      45.948   2.074   8.259  0.00  0.00    +0.000 A 
ATOM     30  N   UNL     1      46.644   1.998   7.084  0.00  0.00    +0.000 N 
ATOM     31  C   UNL     1      46.677   3.251   6.545  0.00  0.00    +0.000 A 
ATOM     32  N   UNL     1      46.048   4.123   7.299  0.00  0.00    +0.000 NA
ATOM     33  H   UNL     1      47.059   1.165   6.685  0.00  0.00    +0.000 HD
ENDBRANCH  25  28
ENDBRANCH  23  24
ENDBRANCH   4  23
TORSDOF 6
ENDMDL
MODEL 5
REMARK VINA RESULT:    -6.801      2.179      8.468
REMARK INTER + INTRA:         -10.455
REMARK INTER:                  -9.416
REMARK INTRA:                  -1.039
REMARK UNBOUND:                -1.269
REMARK  Name = 
REMARK  7 active torsions:
REMARK  status: ('A' for Active; 'I' for Inactive)
REMARK    1  A    between atoms: C_1  and  N_2
REMARK    2  A    between atoms: N_2  and  C_3
REMARK    3  A    between atoms: C_3  and  C_4
REMARK    4  A    between atoms: C_7  and  C_8
REMARK    5  A    between atoms: C_8  and  N_9
REMARK    6  A    between atoms: C_10  and  C_12
REMARK    7  A    between atoms: C_19  and  C_21
REMARK                            x       y       z     vdW  Elec       q    Type
REMARK                         _______ _______ _______ _____ _____    ______ ____
ROOT
ATOM      1  C   UNL     1      48.226   7.126  14.478  0.00  0.00    +0.000 A 
ATOM      2  C   UNL     1      47.749   5.871  14.066  0.00  0.00    +0.000 A 
ATOM      3  C   UNL     1      46.755   5.775  13.092  0.00  0.00    +0.000 A 
ATOM      4  C   UNL     1      46.227   6.932  12.506  0.00  0.00    +0.000 A 
ATOM      5  C   UNL     1      46.700   8.184  12.920  0.00  0.00    +0.000 A 
ATOM      6  C   UNL     1      47.699   8.280  13.891  0.00  0.00    +0.000 A 
ENDROOT
BRANCH   1   7
ATOM      7  C   UNL     1      49.259   7.229  15.570  0.00  0.00    +0.000 C 
BRANCH   7   9
ATOM      8  C   UNL     1      48.693   9.114  17.161  0.00  0.00    +0.000 C 
ATOM      9  N   UNL     1      48.827   7.686  16.892  0.00  0.00    +0.000 N 
ATOM     10  C   UNL     1      48.259   6.823  17.848  0.00  0.00    +0.000 C 
ATOM     11  O   UNL     1      47.712   7.262  18.858  0.00  0.00    +0.000 OA
BRANCH  10  12
ATOM     12  C   UNL     1      48.360   5.366  17.661  0.00  0.00    +0.000 A 
ATOM     13  C   UNL     1      47.313   4.551  17.265  0.00  0.00    +0.000 A 
ATOM     14  S   UNL     1      47.757   2.915  17.062  0.00  0.00    +0.000 S 
ATOM     15  C   UNL     1      49.394   3.270  17.348  0.00  0.00    +0.000 A 
ATOM     16  N   UNL     1      50.351   2.315  17.216  0.00  0.00    +0.000 NA
ATOM     17  C   UNL     1      51.556   2.745  17.398  0.00  0.00    +0.000 A 
ATOM     18  N   UNL     1      51.883   4.034  17.737  0.00  0.00    +0.000 N 
ATOM     19  C   UNL     1      50.939   4.998  18.021  0.00  0.00    +0.000 A 
ATOM     20  O   UNL     1      51.256   6.050  18.561  0.00  0.00    +0.000 OA
ATOM     21  C   UNL     1      49.581   4.595  17.701  0.00  0.00    +0.000 A 
ATOM     22  H   UNL     1      52.839   4.286  17.936  0.00  0.00    +0.000 HD
ENDBRANCH  10  12
ENDBRANCH   7   9
ENDBRANCH   1   7
BRANCH   4  23
ATOM     23  C   UNL     1      45.149   6.833  11.464  0.00  0.00    +0.000 C 
BRANCH  23  24
ATOM     24  N   UNL     1      45.467   5.863  10.454  0.00  0.00    +0.000 N 
ATOM     25  C   UNL     1      44.664   4.769  10.242  0.00  0.00    +0.000 C 
ATOM     26  O   UNL     1      43.656   4.526  10.897  0.00  0.00    +0.000 OA
ATOM     27  H   UNL     1      46.272   5.972   9.845  0.00  0.00    +0.000 HD
BRANCH  25  28
ATOM     28  C   UNL     1      45.126   3.919   9.147  0.00  0.00    +0.000 A 
ATOM     29  C   UNL     1      45.086   2.541   9.102  0.00  0.00    +0.000 A 
ATOM     30  N   UNL     1      45.618   2.198   7.889  0.00  0.00    +0.000 N 
ATOM     31  C   UNL     1      45.962   3.353   7.250  0.00  0.00    +0.000 A 
ATOM     32  N   UNL     1      45.684   4.413   7.974  0.00  0.00    +0.000 NA
ATOM     33  H   UNL     1      45.736   1.259   7.530  0.00  0.00    +0.000 HD
ENDBRANCH  25  28
ENDBRANCH  23  24
ENDBRANCH   4  23
TORSDOF 6
ENDMDL
MODEL 6
REMARK VINA RESULT:    -6.622      2.748      8.430
REMARK INTER + INTRA:         -10.215
REMARK INTER:                  -9.144
REMARK INTRA:                  -1.070
REMARK UNBOUND:                -1.269
REMARK  Name = 
REMARK  7 active torsions:
REMARK  status: ('A' for Active; 'I' for Inactive)
REMARK    1  A    between atoms: C_1  and  N_2
REMARK    2  A    between atoms: N_2  and  C_3
REMARK    3  A    between atoms: C_3  and  C_4
REMARK    4  A    between atoms: C_7  and  C_8
REMARK    5  A    between atoms: C_8  and  N_9
REMARK    6  A    between atoms: C_10  and  C_12
REMARK    7  A    between atoms: C_19  and  C_21
REMARK                            x       y       z     vdW  Elec       q    Type
REMARK                         _______ _______ _______ _____ _____    ______ ____
ROOT
ATOM      1  C   UNL     1      48.348   7.836  14.732  0.00  0.00    +0.000 A 
ATOM      2  C   UNL     1      48.013   6.572  14.220  0.00  0.00    +0.000 A 
ATOM      3  C   UNL     1      47.026   6.443  13.243  0.00  0.00    +0.000 A 
ATOM      4  C   UNL     1      46.365   7.576  12.752  0.00  0.00    +0.000 A 
ATOM      5  C   UNL     1      46.697   8.836  13.267  0.00  0.00    +0.000 A 
ATOM      6  C   UNL     1      47.688   8.967  14.242  0.00  0.00    +0.000 A 
ENDROOT
BRANCH   1   7
ATOM      7  C   UNL     1      49.374   7.967  15.828  0.00  0.00    +0.000 C 
BRANCH   7   9
ATOM      8  C   UNL     1      47.975   9.137  17.583  0.00  0.00    +0.000 C 
ATOM      9  N   UNL     1      48.902   8.073  17.211  0.00  0.00    +0.000 N 
ATOM     10  C   UNL     1      49.067   7.041  18.153  0.00  0.00    +0.000 C 
ATOM     11  O   UNL     1      48.479   7.064  19.233  0.00  0.00    +0.000 OA
BRANCH  10  12
ATOM     12  C   UNL     1      49.992   5.934  17.862  0.00  0.00    +0.000 A 
ATOM     13  C   UNL     1      51.353   5.958  18.122  0.00  0.00    +0.000 A 
ATOM     14  S   UNL     1      52.149   4.496  17.742  0.00  0.00    +0.000 S 
ATOM     15  C   UNL     1      50.678   3.734  17.362  0.00  0.00    +0.000 A 
ATOM     16  N   UNL     1      50.635   2.410  17.059  0.00  0.00    +0.000 NA
ATOM     17  C   UNL     1      49.443   1.953  16.859  0.00  0.00    +0.000 A 
ATOM     18  N   UNL     1      48.299   2.710  16.897  0.00  0.00    +0.000 N 
ATOM     19  C   UNL     1      48.310   4.079  17.058  0.00  0.00    +0.000 A 
ATOM     20  O   UNL     1      47.308   4.747  16.836  0.00  0.00    +0.000 OA
ATOM     21  C   UNL     1      49.612   4.613  17.418  0.00  0.00    +0.000 A 
ATOM     22  H   UNL     1      47.407   2.305  16.660  0.00  0.00    +0.000 HD
ENDBRANCH  10  12
ENDBRANCH   7   9
ENDBRANCH   1   7
BRANCH   4  23
ATOM     23  C   UNL     1      45.294   7.440  11.707  0.00  0.00    +0.000 C 
BRANCH  23  24
ATOM     24  N   UNL     1      45.294   6.135  11.107  0.00  0.00    +0.000 N 
ATOM     25  C   UNL     1      44.119   5.475  10.844  0.00  0.00    +0.000 C 
ATOM     26  O   UNL     1      43.009   5.922  11.116  0.00  0.00    +0.000 OA
ATOM     27  H   UNL     1      46.156   5.676  10.829  0.00  0.00    +0.000 HD
BRANCH  25  28
ATOM     28  C   UNL     1      44.319   4.180  10.195  0.00  0.00    +0.000 A 
ATOM     29  C   UNL     1      44.311   2.944  10.807  0.00  0.00    +0.000 A 
ATOM     30  N   UNL     1      44.534   2.038   9.806  0.00  0.00    +0.000 N 
ATOM     31  C   UNL     1      44.671   2.737   8.643  0.00  0.00    +0.000 A 
ATOM     32  N   UNL     1      44.551   4.031   8.834  0.00  0.00    +0.000 NA
ATOM     33  H   UNL     1      44.587   1.032   9.909  0.00  0.00    +0.000 HD
ENDBRANCH  25  28
ENDBRANCH  23  24
ENDBRANCH   4  23
TORSDOF 6
ENDMDL
MODEL 7
REMARK VINA RESULT:    -6.514      4.317      5.396
REMARK INTER + INTRA:         -10.068
REMARK INTER:                  -9.042
REMARK INTRA:                  -1.027
REMARK UNBOUND:                -1.269
REMARK  Name = 
REMARK  7 active torsions:
REMARK  status: ('A' for Active; 'I' for Inactive)
REMARK    1  A    between atoms: C_1  and  N_2
REMARK    2  A    between atoms: N_2  and  C_3
REMARK    3  A    between atoms: C_3  and  C_4
REMARK    4  A    between atoms: C_7  and  C_8
REMARK    5  A    between atoms: C_8  and  N_9
REMARK    6  A    between atoms: C_10  and  C_12
REMARK    7  A    between atoms: C_19  and  C_21
REMARK                            x       y       z     vdW  Elec       q    Type
REMARK                         _______ _______ _______ _____ _____    ______ ____
ROOT
ATOM      1  C   UNL     1      47.744   6.942  12.784  0.00  0.00    +0.000 A 
ATOM      2  C   UNL     1      48.558   7.096  13.918  0.00  0.00    +0.000 A 
ATOM      3  C   UNL     1      49.855   7.594  13.798  0.00  0.00    +0.000 A 
ATOM      4  C   UNL     1      50.358   7.956  12.542  0.00  0.00    +0.000 A 
ATOM      5  C   UNL     1      49.548   7.798  11.410  0.00  0.00    +0.000 A 
ATOM      6  C   UNL     1      48.248   7.304  11.531  0.00  0.00    +0.000 A 
ENDROOT
BRANCH   1   7
ATOM      7  C   UNL     1      46.364   6.351  12.910  0.00  0.00    +0.000 C 
BRANCH   7   9
ATOM      8  C   UNL     1      45.244   8.590  12.543  0.00  0.00    +0.000 C 
ATOM      9  N   UNL     1      45.226   7.136  12.427  0.00  0.00    +0.000 N 
ATOM     10  C   UNL     1      44.226   6.596  11.597  0.00  0.00    +0.000 C 
ATOM     11  O   UNL     1      43.406   7.320  11.033  0.00  0.00    +0.000 OA
BRANCH  10  12
ATOM     12  C   UNL     1      44.129   5.137  11.433  0.00  0.00    +0.000 A 
ATOM     13  C   UNL     1      43.365   4.305  12.235  0.00  0.00    +0.000 A 
ATOM     14  S   UNL     1      43.396   2.668  11.751  0.00  0.00    +0.000 S 
ATOM     15  C   UNL     1      44.308   3.041  10.366  0.00  0.00    +0.000 A 
ATOM     16  N   UNL     1      44.595   2.090   9.439  0.00  0.00    +0.000 NA
ATOM     17  C   UNL     1      45.236   2.533   8.409  0.00  0.00    +0.000 A 
ATOM     18  N   UNL     1      45.648   3.830   8.242  0.00  0.00    +0.000 N 
ATOM     19  C   UNL     1      45.505   4.794   9.218  0.00  0.00    +0.000 A 
ATOM     20  O   UNL     1      46.102   5.860   9.142  0.00  0.00    +0.000 OA
ATOM     21  C   UNL     1      44.675   4.375  10.334  0.00  0.00    +0.000 A 
ATOM     22  H   UNL     1      46.208   4.094   7.446  0.00  0.00    +0.000 HD
ENDBRANCH  10  12
ENDBRANCH   7   9
ENDBRANCH   1   7
BRANCH   4  23
ATOM     23  C   UNL     1      51.759   8.483  12.407  0.00  0.00    +0.000 C 
BRANCH  23  24
ATOM     24  N   UNL     1      52.575   7.630  11.590  0.00  0.00    +0.000 N 
ATOM     25  C   UNL     1      52.899   7.978  10.301  0.00  0.00    +0.000 C 
ATOM     26  O   UNL     1      52.506   9.002   9.752  0.00  0.00    +0.000 OA
ATOM     27  H   UNL     1      52.966   6.763  11.948  0.00  0.00    +0.000 HD
BRANCH  25  28
ATOM     28  C   UNL     1      53.770   7.006   9.643  0.00  0.00    +0.000 A 
ATOM     29  C   UNL     1      53.902   5.670   9.963  0.00  0.00    +0.000 A 
ATOM     30  N   UNL     1      54.817   5.170   9.079  0.00  0.00    +0.000 N 
ATOM     31  C   UNL     1      55.209   6.195   8.269  0.00  0.00    +0.000 A 
ATOM     32  N   UNL     1      54.603   7.319   8.577  0.00  0.00    +0.000 NA
ATOM     33  H   UNL     1      55.145   4.213   9.033  0.00  0.00    +0.000 HD
ENDBRANCH  25  28
ENDBRANCH  23  24
ENDBRANCH   4  23
TORSDOF 6
ENDMDL
MODEL 8
REMARK VINA RESULT:    -5.994      2.547      8.522
REMARK INTER + INTRA:          -9.366
REMARK INTER:                  -8.399
REMARK INTRA:                  -0.967
REMARK UNBOUND:                -1.269
REMARK  Name = 
REMARK  7 active torsions:
REMARK  status: ('A' for Active; 'I' for Inactive)
REMARK    1  A    between atoms: C_1  and  N_2
REMARK    2  A    between atoms: N_2  and  C_3
REMARK    3  A    between atoms: C_3  and  C_4
REMARK    4  A    between atoms: C_7  and  C_8
REMARK    5  A    between atoms: C_8  and  N_9
REMARK    6  A    between atoms: C_10  and  C_12
REMARK    7  A    between atoms: C_19  and  C_21
REMARK                            x       y       z     vdW  Elec       q    Type
REMARK                         _______ _______ _______ _____ _____    ______ ____
ROOT
ATOM      1  C   UNL     1      49.532   7.488  16.006  0.00  0.00    +0.000 A 
ATOM      2  C   UNL     1      49.035   6.538  15.097  0.00  0.00    +0.000 A 
ATOM      3  C   UNL     1      48.156   6.920  14.084  0.00  0.00    +0.000 A 
ATOM      4  C   UNL     1      47.765   8.258  13.955  0.00  0.00    +0.000 A 
ATOM      5  C   UNL     1      48.257   9.204  14.864  0.00  0.00    +0.000 A 
ATOM      6  C   UNL     1      49.142   8.824  15.875  0.00  0.00    +0.000 A 
ENDROOT
BRANCH   1   7
ATOM      7  C   UNL     1      50.436   7.064  17.133  0.00  0.00    +0.000 C 
BRANCH   7   9
ATOM      8  C   UNL     1      50.144   8.368  19.282  0.00  0.00    +0.000 C 
ATOM      9  N   UNL     1      49.927   7.154  18.503  0.00  0.00    +0.000 N 
ATOM     10  C   UNL     1      48.989   6.244  19.028  0.00  0.00    +0.000 C 
ATOM     11  O   UNL     1      48.419   6.462  20.096  0.00  0.00    +0.000 OA
BRANCH  10  12
ATOM     12  C   UNL     1      48.719   4.987  18.311  0.00  0.00    +0.000 A 
ATOM     13  C   UNL     1      47.547   4.709  17.627  0.00  0.00    +0.000 A 
ATOM     14  S   UNL     1      47.558   3.198  16.833  0.00  0.00    +0.000 S 
ATOM     15  C   UNL     1      49.185   2.933  17.250  0.00  0.00    +0.000 A 
ATOM     16  N   UNL     1      49.860   1.851  16.782  0.00  0.00    +0.000 NA
ATOM     17  C   UNL     1      51.105   1.817  17.125  0.00  0.00    +0.000 A 
ATOM     18  N   UNL     1      51.721   2.745  17.925  0.00  0.00    +0.000 N 
ATOM     19  C   UNL     1      51.043   3.777  18.538  0.00  0.00    +0.000 A 
ATOM     20  O   UNL     1      51.563   4.428  19.435  0.00  0.00    +0.000 OA
ATOM     21  C   UNL     1      49.675   3.930  18.075  0.00  0.00    +0.000 A 
ATOM     22  H   UNL     1      52.679   2.619  18.215  0.00  0.00    +0.000 HD
ENDBRANCH  10  12
ENDBRANCH   7   9
ENDBRANCH   1   7
BRANCH   4  23
ATOM     23  C   UNL     1      46.809   8.671  12.871  0.00  0.00    +0.000 C 
BRANCH  23  24
ATOM     24  N   UNL     1      45.644   7.832  12.837  0.00  0.00    +0.000 N 
ATOM     25  C   UNL     1      45.541   6.797  11.941  0.00  0.00    +0.000 C 
ATOM     26  O   UNL     1      46.397   6.530  11.104  0.00  0.00    +0.000 OA
ATOM     27  H   UNL     1      44.879   7.955  13.494  0.00  0.00    +0.000 HD
BRANCH  25  28
ATOM     28  C   UNL     1      44.303   6.032  12.085  0.00  0.00    +0.000 A 
ATOM     29  C   UNL     1      44.074   4.997  12.969  0.00  0.00    +0.000 A 
ATOM     30  N   UNL     1      42.784   4.601  12.742  0.00  0.00    +0.000 N 
ATOM     31  C   UNL     1      42.282   5.387  11.747  0.00  0.00    +0.000 A 
ATOM     32  N   UNL     1      43.165   6.260  11.322  0.00  0.00    +0.000 NA
ATOM     33  H   UNL     1      42.291   3.860  13.225  0.00  0.00    +0.000 HD
ENDBRANCH  25  28
ENDBRANCH  23  24
ENDBRANCH   4  23
TORSDOF 6
ENDMDL
MODEL 9
REMARK VINA RESULT:    -5.866      3.011      8.426
REMARK INTER + INTRA:          -9.192
REMARK INTER:                  -8.140
REMARK INTRA:                  -1.052
REMARK UNBOUND:                -1.269
REMARK  Name = 
REMARK  7 active torsions:
REMARK  status: ('A' for Active; 'I' for Inactive)
REMARK    1  A    between atoms: C_1  and  N_2
REMARK    2  A    between atoms: N_2  and  C_3
REMARK    3  A    between atoms: C_3  and  C_4
REMARK    4  A    between atoms: C_7  and  C_8
REMARK    5  A    between atoms: C_8  and  N_9
REMARK    6  A    between atoms: C_10  and  C_12
REMARK    7  A    between atoms: C_19  and  C_21
REMARK                            x       y       z     vdW  Elec       q    Type
REMARK                         _______ _______ _______ _____ _____    ______ ____
ROOT
ATOM      1  C   UNL     1      50.137   7.731  15.326  0.00  0.00    +0.000 A 
ATOM      2  C   UNL     1      48.957   6.972  15.392  0.00  0.00    +0.000 A 
ATOM      3  C   UNL     1      48.201   6.739  14.243  0.00  0.00    +0.000 A 
ATOM      4  C   UNL     1      48.615   7.252  13.008  0.00  0.00    +0.000 A 
ATOM      5  C   UNL     1      49.790   8.013  12.944  0.00  0.00    +0.000 A 
ATOM      6  C   UNL     1      50.551   8.242  14.092  0.00  0.00    +0.000 A 
ENDROOT
BRANCH   1   7
ATOM      7  C   UNL     1      50.922   8.029  16.577  0.00  0.00    +0.000 C 
BRANCH   7   9
ATOM      8  C   UNL     1      53.269   7.097  16.753  0.00  0.00    +0.000 C 
ATOM      9  N   UNL     1      51.848   7.009  17.075  0.00  0.00    +0.000 N 
ATOM     10  C   UNL     1      51.501   6.093  18.085  0.00  0.00    +0.000 C 
ATOM     11  O   UNL     1      52.352   5.395  18.633  0.00  0.00    +0.000 OA
BRANCH  10  12
ATOM     12  C   UNL     1      50.088   5.933  18.464  0.00  0.00    +0.000 A 
ATOM     13  C   UNL     1      49.360   6.858  19.194  0.00  0.00    +0.000 A 
ATOM     14  S   UNL     1      47.723   6.425  19.412  0.00  0.00    +0.000 S 
ATOM     15  C   UNL     1      47.896   5.064  18.410  0.00  0.00    +0.000 A 
ATOM     16  N   UNL     1      46.824   4.297  18.079  0.00  0.00    +0.000 NA
ATOM     17  C   UNL     1      47.094   3.338  17.257  0.00  0.00    +0.000 A 
ATOM     18  N   UNL     1      48.344   3.056  16.769  0.00  0.00    +0.000 N 
ATOM     19  C   UNL     1      49.480   3.715  17.187  0.00  0.00    +0.000 A 
ATOM     20  O   UNL     1      50.594   3.277  16.929  0.00  0.00    +0.000 OA
ATOM     21  C   UNL     1      49.207   4.883  18.006  0.00  0.00    +0.000 A 
ATOM     22  H   UNL     1      48.498   2.247  16.186  0.00  0.00    +0.000 HD
ENDBRANCH  10  12
ENDBRANCH   7   9
ENDBRANCH   1   7
BRANCH   4  23
ATOM     23  C   UNL     1      47.797   7.012  11.771  0.00  0.00    +0.000 C 
BRANCH  23  24
ATOM     24  N   UNL     1      46.580   6.308  12.062  0.00  0.00    +0.000 N 
ATOM     25  C   UNL     1      45.800   5.792  11.056  0.00  0.00    +0.000 C 
ATOM     26  O   UNL     1      46.058   5.911   9.863  0.00  0.00    +0.000 OA
ATOM     27  H   UNL     1      46.276   6.140  13.017  0.00  0.00    +0.000 HD
BRANCH  25  28
ATOM     28  C   UNL     1      44.625   5.075  11.549  0.00  0.00    +0.000 A 
ATOM     29  C   UNL     1      43.400   4.974  10.921  0.00  0.00    +0.000 A 
ATOM     30  N   UNL     1      42.626   4.209  11.750  0.00  0.00    +0.000 N 
ATOM     31  C   UNL     1      43.385   3.880  12.834  0.00  0.00    +0.000 A 
ATOM     32  N   UNL     1      44.595   4.385  12.753  0.00  0.00    +0.000 NA
ATOM     33  H   UNL     1      41.664   3.936  11.589  0.00  0.00    +0.000 HD
ENDBRANCH  25  28
ENDBRANCH  23  24
ENDBRANCH   4  23
TORSDOF 6
ENDMDL
