MODEL 1
REMARK VINA RESULT:    -6.851      0.000      0.000
REMARK INTER + INTRA:         -10.419
REMARK INTER:                  -9.254
REMARK INTRA:                  -1.165
REMARK UNBOUND:                -1.165
REMARK  Name = 
REMARK  11 active torsions:
REMARK  status: ('A' for Active; 'I' for Inactive)
REMARK    1  A    between atoms: C_1  and  C_2
REMARK    2  A    between atoms: C_2  and  C_3
REMARK    3  A    between atoms: C_2  and  C_4
REMARK    4  A    between atoms: C_2  and  N_5
REMARK    5  A    between atoms: C_11  and  C_12
REMARK    6  A    between atoms: C_12  and  C_13
REMARK    7  A    between atoms: C_12  and  C_14
REMARK    8  A    between atoms: C_12  and  C_26
REMARK    9  A    between atoms: C_14  and  N_15
REMARK   10  A    between atoms: C_19  and  S_20
REMARK   11  A    between atoms: S_20  and  C_21
REMARK                            x       y       z     vdW  Elec       q    Type
REMARK                         _______ _______ _______ _____ _____    ______ ____
ROOT
ATOM      1  C   UNL     1      45.400   5.358  12.231  0.00  0.00    +0.000 C 
ATOM      2  C   UNL     1      44.103   5.184  13.071  0.00  0.00    +0.000 C 
ENDROOT
BRANCH   1   9
ATOM      3  N   UNL     1      51.802   9.278  12.280  0.00  0.00    +0.000 NA
ATOM      4  C   UNL     1      51.135   8.413  13.285  0.00  0.00    +0.000 C 
ATOM      5  C   UNL     1      49.847   7.730  12.808  0.00  0.00    +0.000 C 
ATOM      6  N   UNL     1      48.957   8.701  12.186  0.00  0.00    +0.000 N 
ATOM      7  C   UNL     1      47.614   8.450  12.136  0.00  0.00    +0.000 A 
ATOM      8  C   UNL     1      47.155   7.147  12.016  0.00  0.00    +0.000 A 
ATOM      9  C   UNL     1      45.822   6.837  12.268  0.00  0.00    +0.000 A 
ATOM     10  C   UNL     1      44.986   7.912  12.588  0.00  0.00    +0.000 A 
ATOM     11  C   UNL     1      45.494   9.200  12.572  0.00  0.00    +0.000 A 
ATOM     12  N   UNL     1      46.780   9.488  12.341  0.00  0.00    +0.000 NA
ATOM     13  C   UNL     1      49.472   9.724  11.291  0.00  0.00    +0.000 C 
ATOM     14  C   UNL     1      50.798  10.281  11.837  0.00  0.00    +0.000 C 
BRANCH   3  16
ATOM     15  C   UNL     1      51.891   7.465  10.432  0.00  0.00    +0.000 C 
ATOM     16  C   UNL     1      52.589   8.586  11.227  0.00  0.00    +0.000 C 
ATOM     17  C   UNL     1      53.847   7.965  11.883  0.00  0.00    +0.000 C 
ATOM     18  C   UNL     1      53.114   9.604  10.185  0.00  0.00    +0.000 C 
ENDBRANCH   3  16
ENDBRANCH   1   9
BRANCH   1  19
ATOM     19  C   UNL     1      45.110   4.884  10.769  0.00  0.00    +0.000 C 
ATOM     20  F   UNL     1      45.918   5.454   9.845  0.00  0.00    +0.000 F 
ATOM     21  F   UNL     1      45.256   3.545  10.622  0.00  0.00    +0.000 F 
ATOM     22  F   UNL     1      43.841   5.175  10.388  0.00  0.00    +0.000 F 
ENDBRANCH   1  19
BRANCH   1  23
ATOM     23  C   UNL     1      46.487   4.414  12.797  0.00  0.00    +0.000 C 
BRANCH  23  24
ATOM     24  N   UNL     1      46.225   4.048  14.184  0.00  0.00    +0.000 N 
ATOM     25  C   UNL     1      47.070   4.389  15.206  0.00  0.00    +0.000 A 
ATOM     26  C   UNL     1      47.859   5.532  15.201  0.00  0.00    +0.000 A 
ATOM     27  C   UNL     1      48.665   5.810  16.302  0.00  0.00    +0.000 A 
ATOM     28  C   UNL     1      48.639   4.936  17.380  0.00  0.00    +0.000 A 
ATOM     29  C   UNL     1      47.830   3.821  17.318  0.00  0.00    +0.000 A 
ATOM     30  N   UNL     1      47.034   3.548  16.258  0.00  0.00    +0.000 NA
ATOM     31  H   UNL     1      45.811   3.141  14.380  0.00  0.00    +0.000 HD
BRANCH  28  32
ATOM     32  S   UNL     1      49.703   5.168  18.763  0.00  0.00    +0.000 S 
ATOM     33  C   UNL     1      48.711   4.693  20.153  0.00  0.00    +0.000 C 
ATOM     34  O   UNL     1      50.792   4.232  18.643  0.00  0.00    +0.000 OA
ATOM     35  O   UNL     1      49.955   6.597  18.865  0.00  0.00    +0.000 OA
ENDBRANCH  28  32
ENDBRANCH  23  24
ENDBRANCH   1  23
TORSDOF 6
ENDMDL
MODEL 2
REMARK VINA RESULT:    -6.835      4.477      6.485
REMARK INTER + INTRA:         -10.398
REMARK INTER:                  -9.475
REMARK INTRA:                  -0.923
REMARK UNBOUND:                -1.165
REMARK  Name = 
REMARK  11 active torsions:
REMARK  status: ('A' for Active; 'I' for Inactive)
REMARK    1  A    between atoms: C_1  and  C_2
REMARK    2  A    between atoms: C_2  and  C_3
REMARK    3  A    between atoms: C_2  and  C_4
REMARK    4  A    between atoms: C_2  and  N_5
REMARK    5  A    between atoms: C_11  and  C_12
REMARK    6  A    between atoms: C_12  and  C_13
REMARK    7  A    between atoms: C_12  and  C_14
REMARK    8  A    between atoms: C_12  and  C_26
REMARK    9  A    between atoms: C_14  and  N_15
REMARK   10  A    between atoms: C_19  and  S_20
REMARK   11  A    between atoms: S_20  and  C_21
REMARK                            x       y       z     vdW  Elec       q    Type
REMARK                         _______ _______ _______ _____ _____    ______ ____
ROOT
ATOM      1  C   UNL     1      48.409   4.731  17.292  0.00  0.00    +0.000 C 
ATOM      2  C   UNL     1      48.846   3.239  17.340  0.00  0.00    +0.000 C 
ENDROOT
BRANCH   1   9
ATOM      3  N   UNL     1      49.716   9.695  11.815  0.00  0.00    +0.000 NA
ATOM      4  C   UNL     1      49.483   8.229  11.821  0.00  0.00    +0.000 C 
ATOM      5  C   UNL     1      49.170   7.622  13.194  0.00  0.00    +0.000 C 
ATOM      6  N   UNL     1      50.148   8.065  14.180  0.00  0.00    +0.000 N 
ATOM      7  C   UNL     1      50.370   7.309  15.297  0.00  0.00    +0.000 A 
ATOM      8  C   UNL     1      49.332   6.580  15.860  0.00  0.00    +0.000 A 
ATOM      9  C   UNL     1      49.589   5.580  16.792  0.00  0.00    +0.000 A 
ATOM     10  C   UNL     1      50.929   5.403  17.157  0.00  0.00    +0.000 A 
ATOM     11  C   UNL     1      51.894   6.249  16.638  0.00  0.00    +0.000 A 
ATOM     12  N   UNL     1      51.640   7.201  15.732  0.00  0.00    +0.000 NA
ATOM     13  C   UNL     1      50.607   9.443  14.213  0.00  0.00    +0.000 C 
ATOM     14  C   UNL     1      50.815   9.962  12.780  0.00  0.00    +0.000 C 
BRANCH   3  16
ATOM     15  C   UNL     1      47.137   9.865  11.988  0.00  0.00    +0.000 C 
ATOM     16  C   UNL     1      48.510  10.559  11.896  0.00  0.00    +0.000 C 
ATOM     17  C   UNL     1      48.477  11.473  10.645  0.00  0.00    +0.000 C 
ATOM     18  C   UNL     1      48.605  11.513  13.113  0.00  0.00    +0.000 C 
ENDBRANCH   3  16
ENDBRANCH   1   9
BRANCH   1  19
ATOM     19  C   UNL     1      47.964   5.162  18.729  0.00  0.00    +0.000 C 
ATOM     20  F   UNL     1      48.603   6.263  19.186  0.00  0.00    +0.000 F 
ATOM     21  F   UNL     1      46.639   5.439  18.798  0.00  0.00    +0.000 F 
ATOM     22  F   UNL     1      48.198   4.186  19.642  0.00  0.00    +0.000 F 
ENDBRANCH   1  19
BRANCH   1  23
ATOM     23  C   UNL     1      47.161   4.852  16.385  0.00  0.00    +0.000 C 
BRANCH  23  24
ATOM     24  N   UNL     1      47.196   3.907  15.277  0.00  0.00    +0.000 N 
ATOM     25  C   UNL     1      46.613   4.171  14.066  0.00  0.00    +0.000 A 
ATOM     26  C   UNL     1      46.480   5.450  13.541  0.00  0.00    +0.000 A 
ATOM     27  C   UNL     1      45.898   5.616  12.287  0.00  0.00    +0.000 A 
ATOM     28  C   UNL     1      45.484   4.487  11.594  0.00  0.00    +0.000 A 
ATOM     29  C   UNL     1      45.649   3.247  12.175  0.00  0.00    +0.000 A 
ATOM     30  N   UNL     1      46.223   3.074  13.388  0.00  0.00    +0.000 NA
ATOM     31  H   UNL     1      47.115   2.914  15.478  0.00  0.00    +0.000 HD
BRANCH  28  32
ATOM     32  S   UNL     1      44.652   4.624  10.049  0.00  0.00    +0.000 S 
ATOM     33  C   UNL     1      44.515   2.949   9.484  0.00  0.00    +0.000 C 
ATOM     34  O   UNL     1      43.326   5.125  10.306  0.00  0.00    +0.000 OA
ATOM     35  O   UNL     1      45.553   5.324   9.146  0.00  0.00    +0.000 OA
ENDBRANCH  28  32
ENDBRANCH  23  24
ENDBRANCH   1  23
TORSDOF 6
ENDMDL
MODEL 3
REMARK VINA RESULT:    -6.233      5.152      7.281
REMARK INTER + INTRA:          -9.585
REMARK INTER:                  -8.877
REMARK INTRA:                  -0.708
REMARK UNBOUND:                -1.165
REMARK  Name = 
REMARK  11 active torsions:
REMARK  status: ('A' for Active; 'I' for Inactive)
REMARK    1  A    between atoms: C_1  and  C_2
REMARK    2  A    between atoms: C_2  and  C_3
REMARK    3  A    between atoms: C_2  and  C_4
REMARK    4  A    between atoms: C_2  and  N_5
REMARK    5  A    between atoms: C_11  and  C_12
REMARK    6  A    between atoms: C_12  and  C_13
REMARK    7  A    between atoms: C_12  and  C_14
REMARK    8  A    between atoms: C_12  and  C_26
REMARK    9  A    between atoms: C_14  and  N_15
REMARK   10  A    between atoms: C_19  and  S_20
REMARK   11  A    between atoms: S_20  and  C_21
REMARK                            x       y       z     vdW  Elec       q    Type
REMARK                         _______ _______ _______ _____ _____    ______ ____
ROOT
ATOM      1  C   UNL     1      48.171   4.619  17.390  0.00  0.00    +0.000 C 
ATOM      2  C   UNL     1      47.403   3.272  17.511  0.00  0.00    +0.000 C 
ENDROOT
BRANCH   1   9
ATOM      3  N   UNL     1      54.577   8.271  15.988  0.00  0.00    +0.000 NA
ATOM      4  C   UNL     1      53.529   7.690  15.113  0.00  0.00    +0.000 C 
ATOM      5  C   UNL     1      52.322   7.092  15.847  0.00  0.00    +0.000 C 
ATOM      6  N   UNL     1      52.765   6.196  16.906  0.00  0.00    +0.000 N 
ATOM      7  C   UNL     1      51.929   5.209  17.349  0.00  0.00    +0.000 A 
ATOM      8  C   UNL     1      50.557   5.413  17.357  0.00  0.00    +0.000 A 
ATOM      9  C   UNL     1      49.680   4.343  17.505  0.00  0.00    +0.000 A 
ATOM     10  C   UNL     1      50.263   3.086  17.699  0.00  0.00    +0.000 A 
ATOM     11  C   UNL     1      51.640   2.981  17.796  0.00  0.00    +0.000 A 
ATOM     12  N   UNL     1      52.477   4.014  17.640  0.00  0.00    +0.000 NA
ATOM     13  C   UNL     1      53.888   6.543  17.761  0.00  0.00    +0.000 C 
ATOM     14  C   UNL     1      55.001   7.199  16.927  0.00  0.00    +0.000 C 
BRANCH   3  16
ATOM     15  C   UNL     1      52.869   9.879  17.088  0.00  0.00    +0.000 C 
ATOM     16  C   UNL     1      54.294   9.611  16.563  0.00  0.00    +0.000 C 
ATOM     17  C   UNL     1      54.592  10.682  15.484  0.00  0.00    +0.000 C 
ATOM     18  C   UNL     1      55.260   9.914  17.736  0.00  0.00    +0.000 C 
ENDBRANCH   3  16
ENDBRANCH   1   9
BRANCH   1  19
ATOM     19  C   UNL     1      47.677   5.573  18.527  0.00  0.00    +0.000 C 
ATOM     20  F   UNL     1      46.352   5.469  18.782  0.00  0.00    +0.000 F 
ATOM     21  F   UNL     1      48.306   5.343  19.705  0.00  0.00    +0.000 F 
ATOM     22  F   UNL     1      47.899   6.876  18.222  0.00  0.00    +0.000 F 
ENDBRANCH   1  19
BRANCH   1  23
ATOM     23  C   UNL     1      47.788   5.289  16.050  0.00  0.00    +0.000 C 
BRANCH  23  24
ATOM     24  N   UNL     1      47.678   4.321  14.966  0.00  0.00    +0.000 N 
ATOM     25  C   UNL     1      46.723   4.417  13.989  0.00  0.00    +0.000 A 
ATOM     26  C   UNL     1      46.192   5.623  13.550  0.00  0.00    +0.000 A 
ATOM     27  C   UNL     1      45.244   5.620  12.529  0.00  0.00    +0.000 A 
ATOM     28  C   UNL     1      44.873   4.403  11.973  0.00  0.00    +0.000 A 
ATOM     29  C   UNL     1      45.443   3.245  12.457  0.00  0.00    +0.000 A 
ATOM     30  N   UNL     1      46.373   3.237  13.441  0.00  0.00    +0.000 NA
ATOM     31  H   UNL     1      47.857   3.341  15.165  0.00  0.00    +0.000 HD
BRANCH  28  32
ATOM     32  S   UNL     1      43.611   4.312  10.750  0.00  0.00    +0.000 S 
ATOM     33  C   UNL     1      44.501   4.246   9.218  0.00  0.00    +0.000 C 
ATOM     34  O   UNL     1      42.918   3.060  10.925  0.00  0.00    +0.000 OA
ATOM     35  O   UNL     1      42.892   5.576  10.791  0.00  0.00    +0.000 OA
ENDBRANCH  28  32
ENDBRANCH  23  24
ENDBRANCH   1  23
TORSDOF 6
ENDMDL
MODEL 4
REMARK VINA RESULT:    -6.130      2.990      6.059
REMARK INTER + INTRA:          -9.445
REMARK INTER:                  -8.749
REMARK INTRA:                  -0.696
REMARK UNBOUND:                -1.165
REMARK  Name = 
REMARK  11 active torsions:
REMARK  status: ('A' for Active; 'I' for Inactive)
REMARK    1  A    between atoms: C_1  and  C_2
REMARK    2  A    between atoms: C_2  and  C_3
REMARK    3  A    between atoms: C_2  and  C_4
REMARK    4  A    between atoms: C_2  and  N_5
REMARK    5  A    between atoms: C_11  and  C_12
REMARK    6  A    between atoms: C_12  and  C_13
REMARK    7  A    between atoms: C_12  and  C_14
REMARK    8  A    between atoms: C_12  and  C_26
REMARK    9  A    between atoms: C_14  and  N_15
REMARK   10  A    between atoms: C_19  and  S_20
REMARK   11  A    between atoms: S_20  and  C_21
REMARK                            x       y       z     vdW  Elec       q    Type
REMARK                         _______ _______ _______ _____ _____    ______ ____
ROOT
ATOM      1  C   UNL     1      49.492   9.149  12.237  0.00  0.00    +0.000 C 
ATOM      2  C   UNL     1      49.991   7.772  11.713  0.00  0.00    +0.000 C 
ENDROOT
BRANCH   1   9
ATOM      3  N   UNL     1      43.949   4.469  10.310  0.00  0.00    +0.000 NA
ATOM      4  C   UNL     1      44.989   5.185   9.530  0.00  0.00    +0.000 C 
ATOM      5  C   UNL     1      45.992   5.992  10.364  0.00  0.00    +0.000 C 
ATOM      6  N   UNL     1      45.292   6.836  11.323  0.00  0.00    +0.000 N 
ATOM      7  C   UNL     1      45.905   7.958  11.807  0.00  0.00    +0.000 A 
ATOM      8  C   UNL     1      47.281   7.979  11.977  0.00  0.00    +0.000 A 
ATOM      9  C   UNL     1      47.956   9.180  12.170  0.00  0.00    +0.000 A 
ATOM     10  C   UNL     1      47.164  10.332  12.237  0.00  0.00    +0.000 A 
ATOM     11  C   UNL     1      45.786  10.216  12.175  0.00  0.00    +0.000 A 
ATOM     12  N   UNL     1      45.145   9.057  11.977  0.00  0.00    +0.000 NA
ATOM     13  C   UNL     1      44.146   6.338  12.063  0.00  0.00    +0.000 C 
ATOM     14  C   UNL     1      43.255   5.486  11.143  0.00  0.00    +0.000 C 
BRANCH   3  16
ATOM     15  C   UNL     1      45.514   3.293  12.008  0.00  0.00    +0.000 C 
ATOM     16  C   UNL     1      44.369   3.210  10.978  0.00  0.00    +0.000 C 
ATOM     17  C   UNL     1      44.809   2.200   9.889  0.00  0.00    +0.000 C 
ATOM     18  C   UNL     1      43.169   2.553  11.704  0.00  0.00    +0.000 C 
ENDBRANCH   3  16
ENDBRANCH   1   9
BRANCH   1  19
ATOM     19  C   UNL     1      50.125  10.273  11.352  0.00  0.00    +0.000 C 
ATOM     20  F   UNL     1      49.318  10.691  10.349  0.00  0.00    +0.000 F 
ATOM     21  F   UNL     1      50.440  11.379  12.068  0.00  0.00    +0.000 F 
ATOM     22  F   UNL     1      51.275   9.860  10.760  0.00  0.00    +0.000 F 
ENDBRANCH   1  19
BRANCH   1  23
ATOM     23  C   UNL     1      50.031   9.358  13.672  0.00  0.00    +0.000 C 
BRANCH  23  24
ATOM     24  N   UNL     1      49.146   8.783  14.677  0.00  0.00    +0.000 N 
ATOM     25  C   UNL     1      49.488   7.681  15.415  0.00  0.00    +0.000 A 
ATOM     26  C   UNL     1      50.797   7.360  15.754  0.00  0.00    +0.000 A 
ATOM     27  C   UNL     1      51.042   6.233  16.533  0.00  0.00    +0.000 A 
ATOM     28  C   UNL     1      49.962   5.473  16.960  0.00  0.00    +0.000 A 
ATOM     29  C   UNL     1      48.689   5.851  16.587  0.00  0.00    +0.000 A 
ATOM     30  N   UNL     1      48.438   6.951  15.839  0.00  0.00    +0.000 NA
ATOM     31  H   UNL     1      48.146   8.769  14.498  0.00  0.00    +0.000 HD
BRANCH  28  32
ATOM     32  S   UNL     1      50.200   3.981  17.863  0.00  0.00    +0.000 S 
ATOM     33  C   UNL     1      48.555   3.433  18.231  0.00  0.00    +0.000 C 
ATOM     34  O   UNL     1      50.810   3.022  16.977  0.00  0.00    +0.000 OA
ATOM     35  O   UNL     1      50.837   4.347  19.119  0.00  0.00    +0.000 OA
ENDBRANCH  28  32
ENDBRANCH  23  24
ENDBRANCH   1  23
TORSDOF 6
ENDMDL
MODEL 5
REMARK VINA RESULT:    -5.996      3.886      7.403
REMARK INTER + INTRA:          -9.264
REMARK INTER:                  -8.198
REMARK INTRA:                  -1.066
REMARK UNBOUND:                -1.165
REMARK  Name = 
REMARK  11 active torsions:
REMARK  status: ('A' for Active; 'I' for Inactive)
REMARK    1  A    between atoms: C_1  and  C_2
REMARK    2  A    between atoms: C_2  and  C_3
REMARK    3  A    between atoms: C_2  and  C_4
REMARK    4  A    between atoms: C_2  and  N_5
REMARK    5  A    between atoms: C_11  and  C_12
REMARK    6  A    between atoms: C_12  and  C_13
REMARK    7  A    between atoms: C_12  and  C_14
REMARK    8  A    between atoms: C_12  and  C_26
REMARK    9  A    between atoms: C_14  and  N_15
REMARK   10  A    between atoms: C_19  and  S_20
REMARK   11  A    between atoms: S_20  and  C_21
REMARK                            x       y       z     vdW  Elec       q    Type
REMARK                         _______ _______ _______ _____ _____    ______ ____
ROOT
ATOM      1  C   UNL     1      50.680   9.242  12.616  0.00  0.00    +0.000 C 
ATOM      2  C   UNL     1      49.916  10.586  12.779  0.00  0.00    +0.000 C 
ENDROOT
BRANCH   1   9
ATOM      3  N   UNL     1      48.682   4.436  18.025  0.00  0.00    +0.000 NA
ATOM      4  C   UNL     1      48.112   5.721  17.550  0.00  0.00    +0.000 C 
ATOM      5  C   UNL     1      48.815   6.337  16.334  0.00  0.00    +0.000 C 
ATOM      6  N   UNL     1      50.256   6.377  16.546  0.00  0.00    +0.000 N 
ATOM      7  C   UNL     1      51.014   7.287  15.863  0.00  0.00    +0.000 A 
ATOM      8  C   UNL     1      50.649   7.672  14.581  0.00  0.00    +0.000 A 
ATOM      9  C   UNL     1      51.209   8.801  13.991  0.00  0.00    +0.000 A 
ATOM     10  C   UNL     1      52.185   9.470  14.739  0.00  0.00    +0.000 A 
ATOM     11  C   UNL     1      52.579   8.956  15.962  0.00  0.00    +0.000 A 
ATOM     12  N   UNL     1      52.026   7.877  16.528  0.00  0.00    +0.000 NA
ATOM     13  C   UNL     1      50.955   5.256  17.151  0.00  0.00    +0.000 C 
ATOM     14  C   UNL     1      50.121   4.678  18.307  0.00  0.00    +0.000 C 
BRANCH   3  16
ATOM     15  C   UNL     1      47.817   3.426  15.802  0.00  0.00    +0.000 C 
ATOM     16  C   UNL     1      48.334   3.224  17.240  0.00  0.00    +0.000 C 
ATOM     17  C   UNL     1      47.243   2.438  18.009  0.00  0.00    +0.000 C 
ATOM     18  C   UNL     1      49.551   2.271  17.142  0.00  0.00    +0.000 C 
ENDBRANCH   3  16
ENDBRANCH   1   9
BRANCH   1  19
ATOM     19  C   UNL     1      51.847   9.457  11.597  0.00  0.00    +0.000 C 
ATOM     20  F   UNL     1      51.451   9.419  10.304  0.00  0.00    +0.000 F 
ATOM     21  F   UNL     1      52.466  10.651  11.766  0.00  0.00    +0.000 F 
ATOM     22  F   UNL     1      52.808   8.507  11.724  0.00  0.00    +0.000 F 
ENDBRANCH   1  19
BRANCH   1  23
ATOM     23  C   UNL     1      49.725   8.202  11.984  0.00  0.00    +0.000 C 
BRANCH  23  24
ATOM     24  N   UNL     1      48.325   8.518  12.240  0.00  0.00    +0.000 N 
ATOM     25  C   UNL     1      47.362   7.551  12.357  0.00  0.00    +0.000 A 
ATOM     26  C   UNL     1      47.613   6.272  12.838  0.00  0.00    +0.000 A 
ATOM     27  C   UNL     1      46.562   5.366  12.948  0.00  0.00    +0.000 A 
ATOM     28  C   UNL     1      45.287   5.782  12.585  0.00  0.00    +0.000 A 
ATOM     29  C   UNL     1      45.111   7.067  12.118  0.00  0.00    +0.000 A 
ATOM     30  N   UNL     1      46.124   7.959  12.017  0.00  0.00    +0.000 NA
ATOM     31  H   UNL     1      47.922   9.341  11.802  0.00  0.00    +0.000 HD
BRANCH  28  32
ATOM     32  S   UNL     1      43.928   4.664  12.603  0.00  0.00    +0.000 S 
ATOM     33  C   UNL     1      43.379   4.627  10.918  0.00  0.00    +0.000 C 
ATOM     34  O   UNL     1      44.436   3.359  12.943  0.00  0.00    +0.000 OA
ATOM     35  O   UNL     1      42.881   5.288  13.398  0.00  0.00    +0.000 OA
ENDBRANCH  28  32
ENDBRANCH  23  24
ENDBRANCH   1  23
TORSDOF 6
ENDMDL
MODEL 6
REMARK VINA RESULT:    -5.757      4.467      6.153
REMARK INTER + INTRA:          -8.941
REMARK INTER:                  -8.142
REMARK INTRA:                  -0.799
REMARK UNBOUND:                -1.165
REMARK  Name = 
REMARK  11 active torsions:
REMARK  status: ('A' for Active; 'I' for Inactive)
REMARK    1  A    between atoms: C_1  and  C_2
REMARK    2  A    between atoms: C_2  and  C_3
REMARK    3  A    between atoms: C_2  and  C_4
REMARK    4  A    between atoms: C_2  and  N_5
REMARK    5  A    between atoms: C_11  and  C_12
REMARK    6  A    between atoms: C_12  and  C_13
REMARK    7  A    between atoms: C_12  and  C_14
REMARK    8  A    between atoms: C_12  and  C_26
REMARK    9  A    between atoms: C_14  and  N_15
REMARK   10  A    between atoms: C_19  and  S_20
REMARK   11  A    between atoms: S_20  and  C_21
REMARK                            x       y       z     vdW  Elec       q    Type
REMARK                         _______ _______ _______ _____ _____    ______ ____
ROOT
ATOM      1  C   UNL     1      48.557   4.826  17.672  0.00  0.00    +0.000 C 
ATOM      2  C   UNL     1      49.751   4.216  16.884  0.00  0.00    +0.000 C 
ENDROOT
BRANCH   1   9
ATOM      3  N   UNL     1      51.074  10.041  12.896  0.00  0.00    +0.000 NA
ATOM      4  C   UNL     1      51.754   9.030  13.744  0.00  0.00    +0.000 C 
ATOM      5  C   UNL     1      50.820   8.094  14.520  0.00  0.00    +0.000 C 
ATOM      6  N   UNL     1      49.801   8.862  15.224  0.00  0.00    +0.000 N 
ATOM      7  C   UNL     1      49.193   8.326  16.326  0.00  0.00    +0.000 A 
ATOM      8  C   UNL     1      48.986   6.957  16.408  0.00  0.00    +0.000 A 
ATOM      9  C   UNL     1      48.660   6.359  17.621  0.00  0.00    +0.000 A 
ATOM     10  C   UNL     1      48.501   7.221  18.713  0.00  0.00    +0.000 A 
ATOM     11  C   UNL     1      48.609   8.588  18.525  0.00  0.00    +0.000 A 
ATOM     12  N   UNL     1      48.936   9.154  17.357  0.00  0.00    +0.000 NA
ATOM     13  C   UNL     1      49.142   9.991  14.590  0.00  0.00    +0.000 C 
ATOM     14  C   UNL     1      50.164  10.811  13.783  0.00  0.00    +0.000 C 
BRANCH   3  16
ATOM     15  C   UNL     1      49.737   8.232  11.609  0.00  0.00    +0.000 C 
ATOM     16  C   UNL     1      50.522   9.559  11.603  0.00  0.00    +0.000 C 
ATOM     17  C   UNL     1      51.692   9.391  10.601  0.00  0.00    +0.000 C 
ATOM     18  C   UNL     1      49.584  10.624  10.982  0.00  0.00    +0.000 C 
ENDBRANCH   3  16
ENDBRANCH   1   9
BRANCH   1  19
ATOM     19  C   UNL     1      48.615   4.298  19.144  0.00  0.00    +0.000 C 
ATOM     20  F   UNL     1      48.343   2.977  19.256  0.00  0.00    +0.000 F 
ATOM     21  F   UNL     1      49.832   4.482  19.711  0.00  0.00    +0.000 F 
ATOM     22  F   UNL     1      47.720   4.934  19.942  0.00  0.00    +0.000 F 
ENDBRANCH   1  19
BRANCH   1  23
ATOM     23  C   UNL     1      47.238   4.296  17.062  0.00  0.00    +0.000 C 
BRANCH  23  24
ATOM     24  N   UNL     1      47.455   3.633  15.782  0.00  0.00    +0.000 N 
ATOM     25  C   UNL     1      46.834   4.036  14.630  0.00  0.00    +0.000 A 
ATOM     26  C   UNL     1      46.457   5.349  14.380  0.00  0.00    +0.000 A 
ATOM     27  C   UNL     1      45.857   5.667  13.165  0.00  0.00    +0.000 A 
ATOM     28  C   UNL     1      45.667   4.655  12.234  0.00  0.00    +0.000 A 
ATOM     29  C   UNL     1      46.067   3.373  12.549  0.00  0.00    +0.000 A 
ATOM     30  N   UNL     1      46.662   3.055  13.722  0.00  0.00    +0.000 NA
ATOM     31  H   UNL     1      47.566   2.623  15.767  0.00  0.00    +0.000 HD
BRANCH  28  32
ATOM     32  S   UNL     1      44.826   4.960  10.718  0.00  0.00    +0.000 S 
ATOM     33  C   UNL     1      44.425   3.343  10.115  0.00  0.00    +0.000 C 
ATOM     34  O   UNL     1      43.597   5.646  11.027  0.00  0.00    +0.000 OA
ATOM     35  O   UNL     1      45.799   5.545   9.808  0.00  0.00    +0.000 OA
ENDBRANCH  28  32
ENDBRANCH  23  24
ENDBRANCH   1  23
TORSDOF 6
ENDMDL
MODEL 7
REMARK VINA RESULT:    -5.720      4.242      6.518
REMARK INTER + INTRA:          -8.891
REMARK INTER:                  -8.120
REMARK INTRA:                  -0.771
REMARK UNBOUND:                -1.165
REMARK  Name = 
REMARK  11 active torsions:
REMARK  status: ('A' for Active; 'I' for Inactive)
REMARK    1  A    between atoms: C_1  and  C_2
REMARK    2  A    between atoms: C_2  and  C_3
REMARK    3  A    between atoms: C_2  and  C_4
REMARK    4  A    between atoms: C_2  and  N_5
REMARK    5  A    between atoms: C_11  and  C_12
REMARK    6  A    between atoms: C_12  and  C_13
REMARK    7  A    between atoms: C_12  and  C_14
REMARK    8  A    between atoms: C_12  and  C_26
REMARK    9  A    between atoms: C_14  and  N_15
REMARK   10  A    between atoms: C_19  and  S_20
REMARK   11  A    between atoms: S_20  and  C_21
REMARK                            x       y       z     vdW  Elec       q    Type
REMARK                         _______ _______ _______ _____ _____    ______ ____
ROOT
ATOM      1  C   UNL     1      50.289   8.796  13.574  0.00  0.00    +0.000 C 
ATOM      2  C   UNL     1      50.335   7.971  14.891  0.00  0.00    +0.000 C 
ENDROOT
BRANCH   1   9
ATOM      3  N   UNL     1      54.732   6.010   8.203  0.00  0.00    +0.000 NA
ATOM      4  C   UNL     1      54.200   5.450   9.471  0.00  0.00    +0.000 C 
ATOM      5  C   UNL     1      53.240   6.367  10.238  0.00  0.00    +0.000 C 
ATOM      6  N   UNL     1      53.814   7.699  10.380  0.00  0.00    +0.000 N 
ATOM      7  C   UNL     1      53.399   8.507  11.401  0.00  0.00    +0.000 A 
ATOM      8  C   UNL     1      52.090   8.436  11.855  0.00  0.00    +0.000 A 
ATOM      9  C   UNL     1      51.727   9.009  13.070  0.00  0.00    +0.000 A 
ATOM     10  C   UNL     1      52.734   9.696  13.756  0.00  0.00    +0.000 A 
ATOM     11  C   UNL     1      53.987   9.824  13.180  0.00  0.00    +0.000 A 
ATOM     12  N   UNL     1      54.331   9.258  12.017  0.00  0.00    +0.000 NA
ATOM     13  C   UNL     1      54.513   8.335   9.276  0.00  0.00    +0.000 C 
ATOM     14  C   UNL     1      55.384   7.302   8.540  0.00  0.00    +0.000 C 
BRANCH   3  16
ATOM     15  C   UNL     1      52.411   6.595   7.213  0.00  0.00    +0.000 C 
ATOM     16  C   UNL     1      53.817   5.990   7.033  0.00  0.00    +0.000 C 
ATOM     17  C   UNL     1      53.627   4.520   6.583  0.00  0.00    +0.000 C 
ATOM     18  C   UNL     1      54.460   6.721   5.828  0.00  0.00    +0.000 C 
ENDBRANCH   3  16
ENDBRANCH   1   9
BRANCH   1  19
ATOM     19  C   UNL     1      49.580  10.159  13.869  0.00  0.00    +0.000 C 
ATOM     20  F   UNL     1      49.873  10.668  15.089  0.00  0.00    +0.000 F 
ATOM     21  F   UNL     1      49.910  11.118  12.971  0.00  0.00    +0.000 F 
ATOM     22  F   UNL     1      48.229  10.043  13.826  0.00  0.00    +0.000 F 
ENDBRANCH   1  19
BRANCH   1  23
ATOM     23  C   UNL     1      49.404   8.047  12.550  0.00  0.00    +0.000 C 
BRANCH  23  24
ATOM     24  N   UNL     1      49.054   6.708  13.006  0.00  0.00    +0.000 N 
ATOM     25  C   UNL     1      47.800   6.180  12.844  0.00  0.00    +0.000 A 
ATOM     26  C   UNL     1      46.956   6.516  11.794  0.00  0.00    +0.000 A 
ATOM     27  C   UNL     1      45.709   5.903  11.698  0.00  0.00    +0.000 A 
ATOM     28  C   UNL     1      45.358   4.961  12.656  0.00  0.00    +0.000 A 
ATOM     29  C   UNL     1      46.248   4.675  13.670  0.00  0.00    +0.000 A 
ATOM     30  N   UNL     1      47.466   5.256  13.766  0.00  0.00    +0.000 NA
ATOM     31  H   UNL     1      49.450   6.369  13.878  0.00  0.00    +0.000 HD
BRANCH  28  32
ATOM     32  S   UNL     1      43.763   4.218  12.657  0.00  0.00    +0.000 S 
ATOM     33  C   UNL     1      43.185   4.437  10.995  0.00  0.00    +0.000 C 
ATOM     34  O   UNL     1      43.934   2.807  12.894  0.00  0.00    +0.000 OA
ATOM     35  O   UNL     1      42.923   5.025  13.528  0.00  0.00    +0.000 OA
ENDBRANCH  28  32
ENDBRANCH  23  24
ENDBRANCH   1  23
TORSDOF 6
ENDMDL
MODEL 8
REMARK VINA RESULT:    -5.508      4.711      7.354
REMARK INTER + INTRA:          -8.605
REMARK INTER:                  -8.559
REMARK INTRA:                  -0.046
REMARK UNBOUND:                -1.165
REMARK  Name = 
REMARK  11 active torsions:
REMARK  status: ('A' for Active; 'I' for Inactive)
REMARK    1  A    between atoms: C_1  and  C_2
REMARK    2  A    between atoms: C_2  and  C_3
REMARK    3  A    between atoms: C_2  and  C_4
REMARK    4  A    between atoms: C_2  and  N_5
REMARK    5  A    between atoms: C_11  and  C_12
REMARK    6  A    between atoms: C_12  and  C_13
REMARK    7  A    between atoms: C_12  and  C_14
REMARK    8  A    between atoms: C_12  and  C_26
REMARK    9  A    between atoms: C_14  and  N_15
REMARK   10  A    between atoms: C_19  and  S_20
REMARK   11  A    between atoms: S_20  and  C_21
REMARK                            x       y       z     vdW  Elec       q    Type
REMARK                         _______ _______ _______ _____ _____    ______ ____
ROOT
ATOM      1  C   UNL     1      48.715   9.072  14.238  0.00  0.00    +0.000 C 
ATOM      2  C   UNL     1      49.000  10.547  13.834  0.00  0.00    +0.000 C 
ENDROOT
BRANCH   1   9
ATOM      3  N   UNL     1      51.267   4.032  19.180  0.00  0.00    +0.000 NA
ATOM      4  C   UNL     1      50.091   4.059  18.275  0.00  0.00    +0.000 C 
ATOM      5  C   UNL     1      50.001   5.285  17.357  0.00  0.00    +0.000 C 
ATOM      6  N   UNL     1      50.179   6.510  18.126  0.00  0.00    +0.000 N 
ATOM      7  C   UNL     1      49.670   7.685  17.649  0.00  0.00    +0.000 A 
ATOM      8  C   UNL     1      49.610   7.913  16.282  0.00  0.00    +0.000 A 
ATOM      9  C   UNL     1      48.831   8.944  15.766  0.00  0.00    +0.000 A 
ATOM     10  C   UNL     1      48.174   9.751  16.701  0.00  0.00    +0.000 A 
ATOM     11  C   UNL     1      48.377   9.533  18.053  0.00  0.00    +0.000 A 
ATOM     12  N   UNL     1      49.119   8.531  18.541  0.00  0.00    +0.000 NA
ATOM     13  C   UNL     1      51.189   6.601  19.166  0.00  0.00    +0.000 C 
ATOM     14  C   UNL     1      51.235   5.290  19.971  0.00  0.00    +0.000 C 
BRANCH   3  16
ATOM     15  C   UNL     1      53.250   4.653  17.632  0.00  0.00    +0.000 C 
ATOM     16  C   UNL     1      52.565   3.640  18.571  0.00  0.00    +0.000 C 
ATOM     17  C   UNL     1      52.353   2.338  17.759  0.00  0.00    +0.000 C 
ATOM     18  C   UNL     1      53.597   3.290  19.671  0.00  0.00    +0.000 C 
ENDBRANCH   3  16
ENDBRANCH   1   9
BRANCH   1  19
ATOM     19  C   UNL     1      49.748   8.152  13.507  0.00  0.00    +0.000 C 
ATOM     20  F   UNL     1      49.769   6.883  13.978  0.00  0.00    +0.000 F 
ATOM     21  F   UNL     1      49.505   8.056  12.178  0.00  0.00    +0.000 F 
ATOM     22  F   UNL     1      51.015   8.620  13.632  0.00  0.00    +0.000 F 
ENDBRANCH   1  19
BRANCH   1  23
ATOM     23  C   UNL     1      47.316   8.676  13.711  0.00  0.00    +0.000 C 
BRANCH  23  24
ATOM     24  N   UNL     1      47.032   7.262  13.923  0.00  0.00    +0.000 N 
ATOM     25  C   UNL     1      46.382   6.495  12.993  0.00  0.00    +0.000 A 
ATOM     26  C   UNL     1      46.453   6.723  11.625  0.00  0.00    +0.000 A 
ATOM     27  C   UNL     1      45.779   5.869  10.755  0.00  0.00    +0.000 A 
ATOM     28  C   UNL     1      45.067   4.804  11.290  0.00  0.00    +0.000 A 
ATOM     29  C   UNL     1      45.043   4.636  12.659  0.00  0.00    +0.000 A 
ATOM     30  N   UNL     1      45.703   5.453  13.512  0.00  0.00    +0.000 NA
ATOM     31  H   UNL     1      46.774   6.949  14.855  0.00  0.00    +0.000 HD
BRANCH  28  32
ATOM     32  S   UNL     1      44.112   3.742  10.262  0.00  0.00    +0.000 S 
ATOM     33  C   UNL     1      45.288   2.569   9.643  0.00  0.00    +0.000 C 
ATOM     34  O   UNL     1      43.174   3.042  11.103  0.00  0.00    +0.000 OA
ATOM     35  O   UNL     1      43.653   4.545   9.139  0.00  0.00    +0.000 OA
ENDBRANCH  28  32
ENDBRANCH  23  24
ENDBRANCH   1  23
TORSDOF 6
ENDMDL
MODEL 9
REMARK VINA RESULT:    -5.209      4.730      6.853
REMARK INTER + INTRA:          -8.201
REMARK INTER:                  -9.414
REMARK INTRA:                   1.213
REMARK UNBOUND:                -1.165
REMARK  Name = 
REMARK  11 active torsions:
REMARK  status: ('A' for Active; 'I' for Inactive)
REMARK    1  A    between atoms: C_1  and  C_2
REMARK    2  A    between atoms: C_2  and  C_3
REMARK    3  A    between atoms: C_2  and  C_4
REMARK    4  A    between atoms: C_2  and  N_5
REMARK    5  A    between atoms: C_11  and  C_12
REMARK    6  A    between atoms: C_12  and  C_13
REMARK    7  A    between atoms: C_12  and  C_14
REMARK    8  A    between atoms: C_12  and  C_26
REMARK    9  A    between atoms: C_14  and  N_15
REMARK   10  A    between atoms: C_19  and  S_20
REMARK   11  A    between atoms: S_20  and  C_21
REMARK                            x       y       z     vdW  Elec       q    Type
REMARK                         _______ _______ _______ _____ _____    ______ ____
ROOT
ATOM      1  C   UNL     1      43.770   5.460  12.130  0.00  0.00    +0.000 C 
ATOM      2  C   UNL     1      42.643   5.536  13.198  0.00  0.00    +0.000 C 
ENDROOT
BRANCH   1   9
ATOM      3  N   UNL     1      50.208   8.406  14.622  0.00  0.00    +0.000 NA
ATOM      4  C   UNL     1      49.651   8.190  13.264  0.00  0.00    +0.000 C 
ATOM      5  C   UNL     1      48.229   7.616  13.224  0.00  0.00    +0.000 C 
ATOM      6  N   UNL     1      48.128   6.450  14.092  0.00  0.00    +0.000 N 
ATOM      7  C   UNL     1      47.159   5.515  13.856  0.00  0.00    +0.000 A 
ATOM      8  C   UNL     1      45.935   5.901  13.331  0.00  0.00    +0.000 A 
ATOM      9  C   UNL     1      45.059   4.958  12.801  0.00  0.00    +0.000 A 
ATOM     10  C   UNL     1      45.464   3.621  12.885  0.00  0.00    +0.000 A 
ATOM     11  C   UNL     1      46.648   3.306  13.530  0.00  0.00    +0.000 A 
ATOM     12  N   UNL     1      47.490   4.220  14.026  0.00  0.00    +0.000 NA
ATOM     13  C   UNL     1      48.755   6.435  15.403  0.00  0.00    +0.000 C 
ATOM     14  C   UNL     1      50.140   7.101  15.331  0.00  0.00    +0.000 C 
BRANCH   3  16
ATOM     15  C   UNL     1      49.098  10.745  14.526  0.00  0.00    +0.000 C 
ATOM     16  C   UNL     1      49.729   9.607  15.353  0.00  0.00    +0.000 C 
ATOM     17  C   UNL     1      50.922  10.217  16.131  0.00  0.00    +0.000 C 
ATOM     18  C   UNL     1      48.684   9.210  16.425  0.00  0.00    +0.000 C 
ENDBRANCH   3  16
ENDBRANCH   1   9
BRANCH   1  19
ATOM     19  C   UNL     1      43.964   6.885  11.515  0.00  0.00    +0.000 C 
ATOM     20  F   UNL     1      42.858   7.364  10.899  0.00  0.00    +0.000 F 
ATOM     21  F   UNL     1      44.305   7.808  12.447  0.00  0.00    +0.000 F 
ATOM     22  F   UNL     1      44.950   6.901  10.582  0.00  0.00    +0.000 F 
ENDBRANCH   1  19
BRANCH   1  23
ATOM     23  C   UNL     1      43.301   4.539  10.978  0.00  0.00    +0.000 C 
BRANCH  23  24
ATOM     24  N   UNL     1      44.137   3.353  10.851  0.00  0.00    +0.000 N 
ATOM     25  C   UNL     1      44.930   3.126   9.758  0.00  0.00    +0.000 A 
ATOM     26  C   UNL     1      45.496   4.141   8.996  0.00  0.00    +0.000 A 
ATOM     27  C   UNL     1      46.313   3.809   7.918  0.00  0.00    +0.000 A 
ATOM     28  C   UNL     1      46.547   2.467   7.650  0.00  0.00    +0.000 A 
ATOM     29  C   UNL     1      45.953   1.513   8.450  0.00  0.00    +0.000 A 
ATOM     30  N   UNL     1      45.167   1.824   9.506  0.00  0.00    +0.000 NA
ATOM     31  H   UNL     1      43.785   2.466  11.199  0.00  0.00    +0.000 HD
BRANCH  28  32
ATOM     32  S   UNL     1      47.487   1.971   6.248  0.00  0.00    +0.000 S 
ATOM     33  C   UNL     1      46.904   3.023   4.946  0.00  0.00    +0.000 C 
ATOM     34  O   UNL     1      48.867   2.293   6.507  0.00  0.00    +0.000 OA
ATOM     35  O   UNL     1      47.084   0.609   5.931  0.00  0.00    +0.000 OA
ENDBRANCH  28  32
ENDBRANCH  23  24
ENDBRANCH   1  23
TORSDOF 6
ENDMDL
