MODEL 1
REMARK VINA RESULT:    -7.840      0.000      0.000
REMARK INTER + INTRA:         -10.055
REMARK INTER:                  -9.674
REMARK INTRA:                  -0.382
REMARK UNBOUND:                -0.382
REMARK  Name = 
REMARK  4 active torsions:
REMARK  status: ('A' for Active; 'I' for Inactive)
REMARK    1  A    between atoms: C_2  and  C_4
REMARK    2  A    between atoms: C_7  and  C_8
REMARK    3  A    between atoms: C_8  and  S_9
REMARK    4  A    between atoms: S_9  and  C_10
REMARK                            x       y       z     vdW  Elec       q    Type
REMARK                         _______ _______ _______ _____ _____    ______ ____
ROOT
ATOM      1  C   UNL     1      46.405   2.303   7.796  0.00  0.00    +0.000 A 
ATOM      2  C   UNL     1      46.346   3.692   7.668  0.00  0.00    +0.000 A 
ATOM      3  C   UNL     1      45.453   4.432   8.447  0.00  0.00    +0.000 A 
ATOM      4  C   UNL     1      44.572   3.800   9.338  0.00  0.00    +0.000 A 
ATOM      5  C   UNL     1      44.648   2.401   9.464  0.00  0.00    +0.000 A 
ATOM      6  C   UNL     1      45.548   1.656   8.692  0.00  0.00    +0.000 A 
ENDROOT
BRANCH   1   8
ATOM      7  N   UNL     1      48.478   2.122   6.535  0.00  0.00    +0.000 N 
ATOM      8  C   UNL     1      47.350   1.491   6.985  0.00  0.00    +0.000 C 
ATOM      9  O   UNL     1      47.154   0.304   6.757  0.00  0.00    +0.000 OA
ATOM     10  H   UNL     1      49.163   1.543   6.064  0.00  0.00    +0.000 HD
ATOM     11  H   UNL     1      48.787   3.009   6.903  0.00  0.00    +0.000 HD
ENDBRANCH   1   8
BRANCH   4  12
ATOM     12  C   UNL     1      43.611   4.580  10.220  0.00  0.00    +0.000 C 
BRANCH  12  13
ATOM     13  S   UNL     1      43.411   3.888  11.900  0.00  0.00    +0.000 S 
BRANCH  13  14
ATOM     14  C   UNL     1      44.916   4.433  12.673  0.00  0.00    +0.000 A 
ATOM     15  C   UNL     1      45.220   5.789  12.726  0.00  0.00    +0.000 A 
ATOM     16  N   UNL     1      46.353   6.279  13.295  0.00  0.00    +0.000 NA
ATOM     17  C   UNL     1      47.177   5.347  13.816  0.00  0.00    +0.000 A 
ATOM     18  C   UNL     1      46.882   3.995  13.770  0.00  0.00    +0.000 A 
ATOM     19  N   UNL     1      45.754   3.509  13.201  0.00  0.00    +0.000 NA
ENDBRANCH  13  14
ENDBRANCH  12  13
ENDBRANCH   4  12
TORSDOF 4
ENDMDL
MODEL 2
REMARK VINA RESULT:    -7.561      0.705      1.349
REMARK INTER + INTRA:          -9.711
REMARK INTER:                  -9.347
REMARK INTRA:                  -0.364
REMARK UNBOUND:                -0.382
REMARK  Name = 
REMARK  4 active torsions:
REMARK  status: ('A' for Active; 'I' for Inactive)
REMARK    1  A    between atoms: C_2  and  C_4
REMARK    2  A    between atoms: C_7  and  C_8
REMARK    3  A    between atoms: C_8  and  S_9
REMARK    4  A    between atoms: S_9  and  C_10
REMARK                            x       y       z     vdW  Elec       q    Type
REMARK                         _______ _______ _______ _____ _____    ______ ____
ROOT
ATOM      1  C   UNL     1      46.467   2.660   7.613  0.00  0.00    +0.000 A 
ATOM      2  C   UNL     1      45.768   1.725   8.380  0.00  0.00    +0.000 A 
ATOM      3  C   UNL     1      44.825   2.152   9.319  0.00  0.00    +0.000 A 
ATOM      4  C   UNL     1      44.589   3.518   9.542  0.00  0.00    +0.000 A 
ATOM      5  C   UNL     1      45.294   4.448   8.757  0.00  0.00    +0.000 A 
ATOM      6  C   UNL     1      46.233   4.024   7.808  0.00  0.00    +0.000 A 
ENDROOT
BRANCH   1   8
ATOM      7  N   UNL     1      47.462   2.900   5.407  0.00  0.00    +0.000 N 
ATOM      8  C   UNL     1      47.470   2.235   6.603  0.00  0.00    +0.000 C 
ATOM      9  O   UNL     1      48.292   1.358   6.835  0.00  0.00    +0.000 OA
ATOM     10  H   UNL     1      48.206   2.673   4.757  0.00  0.00    +0.000 HD
ATOM     11  H   UNL     1      46.975   3.773   5.275  0.00  0.00    +0.000 HD
ENDBRANCH   1   8
BRANCH   4  12
ATOM     12  C   UNL     1      43.549   4.011  10.535  0.00  0.00    +0.000 C 
BRANCH  12  13
ATOM     13  S   UNL     1      43.692   3.264  12.197  0.00  0.00    +0.000 S 
BRANCH  13  14
ATOM     14  C   UNL     1      45.090   4.150  12.848  0.00  0.00    +0.000 A 
ATOM     15  C   UNL     1      45.171   5.530  12.696  0.00  0.00    +0.000 A 
ATOM     16  N   UNL     1      46.209   6.272  13.161  0.00  0.00    +0.000 NA
ATOM     17  C   UNL     1      47.172   5.571  13.794  0.00  0.00    +0.000 A 
ATOM     18  C   UNL     1      47.099   4.197  13.953  0.00  0.00    +0.000 A 
ATOM     19  N   UNL     1      46.065   3.460  13.486  0.00  0.00    +0.000 NA
ENDBRANCH  13  14
ENDBRANCH  12  13
ENDBRANCH   4  12
TORSDOF 4
ENDMDL
MODEL 3
REMARK VINA RESULT:    -6.533      3.042      6.368
REMARK INTER + INTRA:          -8.443
REMARK INTER:                  -8.138
REMARK INTRA:                  -0.304
REMARK UNBOUND:                -0.382
REMARK  Name = 
REMARK  4 active torsions:
REMARK  status: ('A' for Active; 'I' for Inactive)
REMARK    1  A    between atoms: C_2  and  C_4
REMARK    2  A    between atoms: C_7  and  C_8
REMARK    3  A    between atoms: C_8  and  S_9
REMARK    4  A    between atoms: S_9  and  C_10
REMARK                            x       y       z     vdW  Elec       q    Type
REMARK                         _______ _______ _______ _____ _____    ______ ____
ROOT
ATOM      1  C   UNL     1      46.821   5.826  13.077  0.00  0.00    +0.000 A 
ATOM      2  C   UNL     1      46.389   4.560  13.476  0.00  0.00    +0.000 A 
ATOM      3  C   UNL     1      45.581   3.795  12.631  0.00  0.00    +0.000 A 
ATOM      4  C   UNL     1      45.153   4.292  11.391  0.00  0.00    +0.000 A 
ATOM      5  C   UNL     1      45.602   5.565  10.997  0.00  0.00    +0.000 A 
ATOM      6  C   UNL     1      46.421   6.332  11.837  0.00  0.00    +0.000 A 
ENDROOT
BRANCH   1   8
ATOM      7  N   UNL     1      47.329   7.971  14.107  0.00  0.00    +0.000 N 
ATOM      8  C   UNL     1      47.687   6.659  13.952  0.00  0.00    +0.000 C 
ATOM      9  O   UNL     1      48.654   6.193  14.539  0.00  0.00    +0.000 OA
ATOM     10  H   UNL     1      47.865   8.511  14.776  0.00  0.00    +0.000 HD
ATOM     11  H   UNL     1      46.420   8.320  13.844  0.00  0.00    +0.000 HD
ENDBRANCH   1   8
BRANCH   4  12
ATOM     12  C   UNL     1      44.298   3.472  10.438  0.00  0.00    +0.000 C 
BRANCH  12  13
ATOM     13  S   UNL     1      44.389   4.020   8.696  0.00  0.00    +0.000 S 
BRANCH  13  14
ATOM     14  C   UNL     1      45.661   2.948   8.070  0.00  0.00    +0.000 A 
ATOM     15  C   UNL     1      45.674   1.602   8.423  0.00  0.00    +0.000 A 
ATOM     16  N   UNL     1      46.616   0.725   7.988  0.00  0.00    +0.000 NA
ATOM     17  C   UNL     1      47.554   1.254   7.175  0.00  0.00    +0.000 A 
ATOM     18  C   UNL     1      47.548   2.591   6.816  0.00  0.00    +0.000 A 
ATOM     19  N   UNL     1      46.610   3.463   7.252  0.00  0.00    +0.000 NA
ENDBRANCH  13  14
ENDBRANCH  12  13
ENDBRANCH   4  12
TORSDOF 4
ENDMDL
MODEL 4
REMARK VINA RESULT:    -6.122      3.497      6.485
REMARK INTER + INTRA:          -7.935
REMARK INTER:                  -7.600
REMARK INTRA:                  -0.335
REMARK UNBOUND:                -0.382
REMARK  Name = 
REMARK  4 active torsions:
REMARK  status: ('A' for Active; 'I' for Inactive)
REMARK    1  A    between atoms: C_2  and  C_4
REMARK    2  A    between atoms: C_7  and  C_8
REMARK    3  A    between atoms: C_8  and  S_9
REMARK    4  A    between atoms: S_9  and  C_10
REMARK                            x       y       z     vdW  Elec       q    Type
REMARK                         _______ _______ _______ _____ _____    ______ ____
ROOT
ATOM      1  C   UNL     1      45.397   7.948  12.229  0.00  0.00    +0.000 A 
ATOM      2  C   UNL     1      44.383   7.364  11.466  0.00  0.00    +0.000 A 
ATOM      3  C   UNL     1      44.321   5.976  11.326  0.00  0.00    +0.000 A 
ATOM      4  C   UNL     1      45.291   5.143  11.907  0.00  0.00    +0.000 A 
ATOM      5  C   UNL     1      46.301   5.744  12.680  0.00  0.00    +0.000 A 
ATOM      6  C   UNL     1      46.361   7.135  12.831  0.00  0.00    +0.000 A 
ENDROOT
BRANCH   1   8
ATOM      7  N   UNL     1      46.716   9.937  12.697  0.00  0.00    +0.000 N 
ATOM      8  C   UNL     1      45.483   9.422  12.401  0.00  0.00    +0.000 C 
ATOM      9  O   UNL     1      44.511  10.150  12.251  0.00  0.00    +0.000 OA
ATOM     10  H   UNL     1      46.791  10.948  12.721  0.00  0.00    +0.000 HD
ATOM     11  H   UNL     1      47.567   9.407  12.586  0.00  0.00    +0.000 HD
ENDBRANCH   1   8
BRANCH   4  12
ATOM     12  C   UNL     1      45.233   3.629  11.796  0.00  0.00    +0.000 C 
BRANCH  12  13
ATOM     13  S   UNL     1      44.094   3.019  10.502  0.00  0.00    +0.000 S 
BRANCH  13  14
ATOM     14  C   UNL     1      45.195   2.899   9.111  0.00  0.00    +0.000 A 
ATOM     15  C   UNL     1      45.479   4.027   8.349  0.00  0.00    +0.000 A 
ATOM     16  N   UNL     1      46.306   4.010   7.270  0.00  0.00    +0.000 NA
ATOM     17  C   UNL     1      46.844   2.806   6.984  0.00  0.00    +0.000 A 
ATOM     18  C   UNL     1      46.570   1.679   7.738  0.00  0.00    +0.000 A 
ATOM     19  N   UNL     1      45.744   1.697   8.811  0.00  0.00    +0.000 NA
ENDBRANCH  13  14
ENDBRANCH  12  13
ENDBRANCH   4  12
TORSDOF 4
ENDMDL
MODEL 5
REMARK VINA RESULT:    -5.351      2.847      3.999
REMARK INTER + INTRA:          -6.983
REMARK INTER:                  -6.818
REMARK INTRA:                  -0.165
REMARK UNBOUND:                -0.382
REMARK  Name = 
REMARK  4 active torsions:
REMARK  status: ('A' for Active; 'I' for Inactive)
REMARK    1  A    between atoms: C_2  and  C_4
REMARK    2  A    between atoms: C_7  and  C_8
REMARK    3  A    between atoms: C_8  and  S_9
REMARK    4  A    between atoms: S_9  and  C_10
REMARK                            x       y       z     vdW  Elec       q    Type
REMARK                         _______ _______ _______ _____ _____    ______ ____
ROOT
ATOM      1  C   UNL     1      45.072   3.769   9.901  0.00  0.00    +0.000 A 
ATOM      2  C   UNL     1      44.915   3.351  11.224  0.00  0.00    +0.000 A 
ATOM      3  C   UNL     1      45.232   4.215  12.276  0.00  0.00    +0.000 A 
ATOM      4  C   UNL     1      45.751   5.497  12.031  0.00  0.00    +0.000 A 
ATOM      5  C   UNL     1      45.895   5.908  10.694  0.00  0.00    +0.000 A 
ATOM      6  C   UNL     1      45.569   5.049   9.636  0.00  0.00    +0.000 A 
ENDROOT
BRANCH   1   8
ATOM      7  N   UNL     1      44.588   1.544   9.047  0.00  0.00    +0.000 N 
ATOM      8  C   UNL     1      44.736   2.874   8.763  0.00  0.00    +0.000 C 
ATOM      9  O   UNL     1      44.562   3.304   7.631  0.00  0.00    +0.000 OA
ATOM     10  H   UNL     1      44.268   0.951   8.289  0.00  0.00    +0.000 HD
ATOM     11  H   UNL     1      44.481   1.198   9.988  0.00  0.00    +0.000 HD
ENDBRANCH   1   8
BRANCH   4  12
ATOM     12  C   UNL     1      46.077   6.469  13.153  0.00  0.00    +0.000 C 
BRANCH  12  13
ATOM     13  S   UNL     1      47.858   6.583  13.546  0.00  0.00    +0.000 S 
BRANCH  13  14
ATOM     14  C   UNL     1      47.942   5.601  15.027  0.00  0.00    +0.000 A 
ATOM     15  C   UNL     1      47.071   4.531  15.202  0.00  0.00    +0.000 A 
ATOM     16  N   UNL     1      47.072   3.741  16.308  0.00  0.00    +0.000 NA
ATOM     17  C   UNL     1      47.992   4.067  17.239  0.00  0.00    +0.000 A 
ATOM     18  C   UNL     1      48.865   5.128  17.073  0.00  0.00    +0.000 A 
ATOM     19  N   UNL     1      48.860   5.916  15.971  0.00  0.00    +0.000 NA
ENDBRANCH  13  14
ENDBRANCH  12  13
ENDBRANCH   4  12
TORSDOF 4
ENDMDL
MODEL 6
REMARK VINA RESULT:    -5.211      3.584      5.014
REMARK INTER + INTRA:          -6.811
REMARK INTER:                  -6.516
REMARK INTRA:                  -0.295
REMARK UNBOUND:                -0.382
REMARK  Name = 
REMARK  4 active torsions:
REMARK  status: ('A' for Active; 'I' for Inactive)
REMARK    1  A    between atoms: C_2  and  C_4
REMARK    2  A    between atoms: C_7  and  C_8
REMARK    3  A    between atoms: C_8  and  S_9
REMARK    4  A    between atoms: S_9  and  C_10
REMARK                            x       y       z     vdW  Elec       q    Type
REMARK                         _______ _______ _______ _____ _____    ______ ____
ROOT
ATOM      1  C   UNL     1      44.817   4.079  11.366  0.00  0.00    +0.000 A 
ATOM      2  C   UNL     1      45.242   5.089  10.502  0.00  0.00    +0.000 A 
ATOM      3  C   UNL     1      45.968   6.176  10.996  0.00  0.00    +0.000 A 
ATOM      4  C   UNL     1      46.247   6.300  12.367  0.00  0.00    +0.000 A 
ATOM      5  C   UNL     1      45.820   5.271  13.224  0.00  0.00    +0.000 A 
ATOM      6  C   UNL     1      45.102   4.174  12.732  0.00  0.00    +0.000 A 
ENDROOT
BRANCH   1   8
ATOM      7  N   UNL     1      44.592   2.215   9.818  0.00  0.00    +0.000 N 
ATOM      8  C   UNL     1      44.050   2.907  10.867  0.00  0.00    +0.000 C 
ATOM      9  O   UNL     1      43.002   2.550  11.388  0.00  0.00    +0.000 OA
ATOM     10  H   UNL     1      44.116   1.364   9.542  0.00  0.00    +0.000 HD
ATOM     11  H   UNL     1      45.553   2.329   9.532  0.00  0.00    +0.000 HD
ENDBRANCH   1   8
BRANCH   4  12
ATOM     12  C   UNL     1      47.059   7.456  12.929  0.00  0.00    +0.000 C 
BRANCH  12  13
ATOM     13  S   UNL     1      48.861   7.296  12.670  0.00  0.00    +0.000 S 
BRANCH  13  14
ATOM     14  C   UNL     1      49.423   7.058  14.340  0.00  0.00    +0.000 A 
ATOM     15  C   UNL     1      50.566   7.713  14.790  0.00  0.00    +0.000 A 
ATOM     16  N   UNL     1      51.057   7.576  16.049  0.00  0.00    +0.000 NA
ATOM     17  C   UNL     1      50.351   6.752  16.850  0.00  0.00    +0.000 A 
ATOM     18  C   UNL     1      49.212   6.098  16.413  0.00  0.00    +0.000 A 
ATOM     19  N   UNL     1      48.725   6.234  15.157  0.00  0.00    +0.000 NA
ENDBRANCH  13  14
ENDBRANCH  12  13
ENDBRANCH   4  12
TORSDOF 4
ENDMDL
MODEL 7
REMARK VINA RESULT:    -5.151      4.073      7.395
REMARK INTER + INTRA:          -6.737
REMARK INTER:                  -6.520
REMARK INTRA:                  -0.217
REMARK UNBOUND:                -0.382
REMARK  Name = 
REMARK  4 active torsions:
REMARK  status: ('A' for Active; 'I' for Inactive)
REMARK    1  A    between atoms: C_2  and  C_4
REMARK    2  A    between atoms: C_7  and  C_8
REMARK    3  A    between atoms: C_8  and  S_9
REMARK    4  A    between atoms: S_9  and  C_10
REMARK                            x       y       z     vdW  Elec       q    Type
REMARK                         _______ _______ _______ _____ _____    ______ ____
ROOT
ATOM      1  C   UNL     1      48.241   5.199  16.483  0.00  0.00    +0.000 A 
ATOM      2  C   UNL     1      48.680   6.280  15.716  0.00  0.00    +0.000 A 
ATOM      3  C   UNL     1      48.167   6.486  14.433  0.00  0.00    +0.000 A 
ATOM      4  C   UNL     1      47.238   5.595  13.872  0.00  0.00    +0.000 A 
ATOM      5  C   UNL     1      46.798   4.515  14.658  0.00  0.00    +0.000 A 
ATOM      6  C   UNL     1      47.303   4.311  15.949  0.00  0.00    +0.000 A 
ENDROOT
BRANCH   1   8
ATOM      7  N   UNL     1      47.981   4.215  18.692  0.00  0.00    +0.000 N 
ATOM      8  C   UNL     1      48.764   4.961  17.854  0.00  0.00    +0.000 C 
ATOM      9  O   UNL     1      49.858   5.376  18.211  0.00  0.00    +0.000 OA
ATOM     10  H   UNL     1      48.381   3.975  19.592  0.00  0.00    +0.000 HD
ATOM     11  H   UNL     1      47.206   3.660  18.361  0.00  0.00    +0.000 HD
ENDBRANCH   1   8
BRANCH   4  12
ATOM     12  C   UNL     1      46.641   5.808  12.490  0.00  0.00    +0.000 C 
BRANCH  12  13
ATOM     13  S   UNL     1      44.965   5.107  12.287  0.00  0.00    +0.000 S 
BRANCH  13  14
ATOM     14  C   UNL     1      45.055   4.492  10.621  0.00  0.00    +0.000 A 
ATOM     15  C   UNL     1      45.707   5.233   9.640  0.00  0.00    +0.000 A 
ATOM     16  N   UNL     1      45.811   4.829   8.347  0.00  0.00    +0.000 NA
ATOM     17  C   UNL     1      45.233   3.642   8.072  0.00  0.00    +0.000 A 
ATOM     18  C   UNL     1      44.584   2.897   9.042  0.00  0.00    +0.000 A 
ATOM     19  N   UNL     1      44.480   3.301  10.329  0.00  0.00    +0.000 NA
ENDBRANCH  13  14
ENDBRANCH  12  13
ENDBRANCH   4  12
TORSDOF 4
ENDMDL
MODEL 8
REMARK VINA RESULT:    -5.101      3.506      6.661
REMARK INTER + INTRA:          -6.676
REMARK INTER:                  -6.367
REMARK INTRA:                  -0.308
REMARK UNBOUND:                -0.382
REMARK  Name = 
REMARK  4 active torsions:
REMARK  status: ('A' for Active; 'I' for Inactive)
REMARK    1  A    between atoms: C_2  and  C_4
REMARK    2  A    between atoms: C_7  and  C_8
REMARK    3  A    between atoms: C_8  and  S_9
REMARK    4  A    between atoms: S_9  and  C_10
REMARK                            x       y       z     vdW  Elec       q    Type
REMARK                         _______ _______ _______ _____ _____    ______ ____
ROOT
ATOM      1  C   UNL     1      47.994   7.459  13.840  0.00  0.00    +0.000 A 
ATOM      2  C   UNL     1      47.852   6.182  13.295  0.00  0.00    +0.000 A 
ATOM      3  C   UNL     1      46.746   5.878  12.497  0.00  0.00    +0.000 A 
ATOM      4  C   UNL     1      45.739   6.828  12.260  0.00  0.00    +0.000 A 
ATOM      5  C   UNL     1      45.900   8.113  12.808  0.00  0.00    +0.000 A 
ATOM      6  C   UNL     1      47.012   8.425  13.601  0.00  0.00    +0.000 A 
ENDROOT
BRANCH   1   8
ATOM      7  N   UNL     1      49.137   9.037  15.298  0.00  0.00    +0.000 N 
ATOM      8  C   UNL     1      49.163   7.812  14.687  0.00  0.00    +0.000 C 
ATOM      9  O   UNL     1      50.092   7.036  14.866  0.00  0.00    +0.000 OA
ATOM     10  H   UNL     1      49.889   9.236  15.947  0.00  0.00    +0.000 HD
ATOM     11  H   UNL     1      48.295   9.588  15.372  0.00  0.00    +0.000 HD
ENDBRANCH   1   8
BRANCH   4  12
ATOM     12  C   UNL     1      44.540   6.536  11.373  0.00  0.00    +0.000 C 
BRANCH  12  13
ATOM     13  S   UNL     1      43.879   4.840  11.547  0.00  0.00    +0.000 S 
BRANCH  13  14
ATOM     14  C   UNL     1      44.605   4.047  10.131  0.00  0.00    +0.000 A 
ATOM     15  C   UNL     1      45.320   4.797   9.203  0.00  0.00    +0.000 A 
ATOM     16  N   UNL     1      45.897   4.261   8.095  0.00  0.00    +0.000 NA
ATOM     17  C   UNL     1      45.731   2.930   7.955  0.00  0.00    +0.000 A 
ATOM     18  C   UNL     1      45.024   2.174   8.874  0.00  0.00    +0.000 A 
ATOM     19  N   UNL     1      44.448   2.711   9.975  0.00  0.00    +0.000 NA
ENDBRANCH  13  14
ENDBRANCH  12  13
ENDBRANCH   4  12
TORSDOF 4
ENDMDL
