MODEL 1
REMARK VINA RESULT:    -8.466      0.000      0.000
REMARK INTER + INTRA:         -12.750
REMARK INTER:                 -11.436
REMARK INTRA:                  -1.314
REMARK UNBOUND:                -1.314
REMARK  Name = 
REMARK  7 active torsions:
REMARK  status: ('A' for Active; 'I' for Inactive)
REMARK    1  A    between atoms: C_1  and  O_2
REMARK    2  A    between atoms: O_2  and  C_3
REMARK    3  A    between atoms: C_5  and  C_6
REMARK    4  A    between atoms: C_11  and  O_12
REMARK    5  A    between atoms: O_12  and  C_13
REMARK    6  A    between atoms: C_13  and  C_14
REMARK    7  A    between atoms: C_18  and  C_19
REMARK                            x       y       z     vdW  Elec       q    Type
REMARK                         _______ _______ _______ _____ _____    ______ ____
ROOT
ATOM      1  O   UNL     1      43.982   6.449  12.743  0.00  0.00    +0.000 OA
ENDROOT
BRANCH   1   7
ATOM      2  C   UNL     1      46.297   5.703  13.335  0.00  0.00    +0.000 A 
ATOM      3  C   UNL     1      47.656   6.040  13.280  0.00  0.00    +0.000 A 
ATOM      4  C   UNL     1      48.095   7.226  12.672  0.00  0.00    +0.000 A 
ATOM      5  C   UNL     1      47.153   8.088  12.108  0.00  0.00    +0.000 A 
ATOM      6  C   UNL     1      45.794   7.766  12.169  0.00  0.00    +0.000 A 
ATOM      7  C   UNL     1      45.350   6.583  12.779  0.00  0.00    +0.000 A 
BRANCH   4   8
ATOM      8  C   UNL     1      49.567   7.479  12.660  0.00  0.00    +0.000 C 
ATOM      9  N   UNL     1      50.257   7.415  13.837  0.00  0.00    +0.000 N 
ATOM     10  O   UNL     1      50.162   7.739  11.623  0.00  0.00    +0.000 OA
ATOM     11  H   UNL     1      49.858   7.220  14.742  0.00  0.00    +0.000 HD
ATOM     12  H   UNL     1      51.251   7.600  13.788  0.00  0.00    +0.000 HD
ENDBRANCH   4   8
BRANCH   2  14
ATOM     13  C   UNL     1      46.417   3.311  13.321  0.00  0.00    +0.000 C 
ATOM     14  O   UNL     1      45.863   4.510  13.848  0.00  0.00    +0.000 OA
ENDBRANCH   2  14
ENDBRANCH   1   7
BRANCH   1  15
ATOM     15  C   UNL     1      43.377   6.144  11.490  0.00  0.00    +0.000 C 
BRANCH  15  16
ATOM     16  C   UNL     1      43.691   4.730  11.090  0.00  0.00    +0.000 A 
ATOM     17  C   UNL     1      43.103   3.659  11.747  0.00  0.00    +0.000 A 
ATOM     18  N   UNL     1      43.270   2.372  11.379  0.00  0.00    +0.000 NA
ATOM     19  C   UNL     1      44.068   2.144  10.307  0.00  0.00    +0.000 A 
ATOM     20  C   UNL     1      44.739   3.126   9.572  0.00  0.00    +0.000 A 
ATOM     21  C   UNL     1      44.521   4.446   9.997  0.00  0.00    +0.000 A 
BRANCH  20  22
ATOM     22  C   UNL     1      45.628   2.801   8.435  0.00  0.00    +0.000 A 
ATOM     23  C   UNL     1      46.013   3.780   7.495  0.00  0.00    +0.000 A 
ATOM     24  C   UNL     1      46.893   3.481   6.450  0.00  0.00    +0.000 A 
ATOM     25  C   UNL     1      47.388   2.192   6.319  0.00  0.00    +0.000 A 
ATOM     26  F   UNL     1      48.236   1.905   5.323  0.00  0.00    +0.000 F 
ATOM     27  C   UNL     1      47.017   1.198   7.211  0.00  0.00    +0.000 A 
ATOM     28  C   UNL     1      46.146   1.502   8.262  0.00  0.00    +0.000 A 
ENDBRANCH  20  22
ENDBRANCH  15  16
ENDBRANCH   1  15
TORSDOF 6
ENDMDL
MODEL 2
REMARK VINA RESULT:    -7.955      1.098      2.105
REMARK INTER + INTRA:         -12.060
REMARK INTER:                 -11.087
REMARK INTRA:                  -0.973
REMARK UNBOUND:                -1.314
REMARK  Name = 
REMARK  7 active torsions:
REMARK  status: ('A' for Active; 'I' for Inactive)
REMARK    1  A    between atoms: C_1  and  O_2
REMARK    2  A    between atoms: O_2  and  C_3
REMARK    3  A    between atoms: C_5  and  C_6
REMARK    4  A    between atoms: C_11  and  O_12
REMARK    5  A    between atoms: O_12  and  C_13
REMARK    6  A    between atoms: C_13  and  C_14
REMARK    7  A    between atoms: C_18  and  C_19
REMARK                            x       y       z     vdW  Elec       q    Type
REMARK                         _______ _______ _______ _____ _____    ______ ____
ROOT
ATOM      1  O   UNL     1      44.695   6.477  12.887  0.00  0.00    +0.000 OA
ENDROOT
BRANCH   1   7
ATOM      2  C   UNL     1      46.154   8.476  12.520  0.00  0.00    +0.000 A 
ATOM      3  C   UNL     1      47.472   8.908  12.313  0.00  0.00    +0.000 A 
ATOM      4  C   UNL     1      48.546   8.005  12.287  0.00  0.00    +0.000 A 
ATOM      5  C   UNL     1      48.292   6.644  12.472  0.00  0.00    +0.000 A 
ATOM      6  C   UNL     1      46.980   6.203  12.667  0.00  0.00    +0.000 A 
ATOM      7  C   UNL     1      45.902   7.103  12.691  0.00  0.00    +0.000 A 
BRANCH   4   8
ATOM      8  C   UNL     1      49.909   8.576  12.071  0.00  0.00    +0.000 C 
ATOM      9  N   UNL     1      50.998   7.781  12.290  0.00  0.00    +0.000 N 
ATOM     10  O   UNL     1      50.066   9.732  11.703  0.00  0.00    +0.000 OA
ATOM     11  H   UNL     1      50.974   6.824  12.604  0.00  0.00    +0.000 HD
ATOM     12  H   UNL     1      51.904   8.207  12.140  0.00  0.00    +0.000 HD
ENDBRANCH   4   8
BRANCH   2  14
ATOM     13  C   UNL     1      44.793  10.169  11.511  0.00  0.00    +0.000 C 
ATOM     14  O   UNL     1      45.111   9.355  12.633  0.00  0.00    +0.000 OA
ENDBRANCH   2  14
ENDBRANCH   1   7
BRANCH   1  15
ATOM     15  C   UNL     1      43.855   6.282  11.753  0.00  0.00    +0.000 C 
BRANCH  15  16
ATOM     16  C   UNL     1      43.969   4.867  11.258  0.00  0.00    +0.000 A 
ATOM     17  C   UNL     1      43.224   3.850  11.837  0.00  0.00    +0.000 A 
ATOM     18  N   UNL     1      43.209   2.581  11.382  0.00  0.00    +0.000 NA
ATOM     19  C   UNL     1      43.982   2.313  10.300  0.00  0.00    +0.000 A 
ATOM     20  C   UNL     1      44.797   3.235   9.638  0.00  0.00    +0.000 A 
ATOM     21  C   UNL     1      44.764   4.541  10.152  0.00  0.00    +0.000 A 
BRANCH  20  22
ATOM     22  C   UNL     1      45.647   2.864   8.485  0.00  0.00    +0.000 A 
ATOM     23  C   UNL     1      46.021   3.809   7.507  0.00  0.00    +0.000 A 
ATOM     24  C   UNL     1      46.864   3.465   6.446  0.00  0.00    +0.000 A 
ATOM     25  C   UNL     1      47.333   2.165   6.337  0.00  0.00    +0.000 A 
ATOM     26  F   UNL     1      48.147   1.836   5.326  0.00  0.00    +0.000 F 
ATOM     27  C   UNL     1      46.972   1.203   7.267  0.00  0.00    +0.000 A 
ATOM     28  C   UNL     1      46.138   1.552   8.334  0.00  0.00    +0.000 A 
ENDBRANCH  20  22
ENDBRANCH  15  16
ENDBRANCH   1  15
TORSDOF 6
ENDMDL
MODEL 3
REMARK VINA RESULT:    -7.121      2.684      3.682
REMARK INTER + INTRA:         -10.933
REMARK INTER:                 -10.104
REMARK INTRA:                  -0.829
REMARK UNBOUND:                -1.314
REMARK  Name = 
REMARK  7 active torsions:
REMARK  status: ('A' for Active; 'I' for Inactive)
REMARK    1  A    between atoms: C_1  and  O_2
REMARK    2  A    between atoms: O_2  and  C_3
REMARK    3  A    between atoms: C_5  and  C_6
REMARK    4  A    between atoms: C_11  and  O_12
REMARK    5  A    between atoms: O_12  and  C_13
REMARK    6  A    between atoms: C_13  and  C_14
REMARK    7  A    between atoms: C_18  and  C_19
REMARK                            x       y       z     vdW  Elec       q    Type
REMARK                         _______ _______ _______ _____ _____    ______ ____
ROOT
ATOM      1  O   UNL     1      47.091   6.387  12.996  0.00  0.00    +0.000 OA
ENDROOT
BRANCH   1   7
ATOM      2  C   UNL     1      48.402   6.557  15.121  0.00  0.00    +0.000 A 
ATOM      3  C   UNL     1      48.724   5.908  16.321  0.00  0.00    +0.000 A 
ATOM      4  C   UNL     1      48.175   4.660  16.652  0.00  0.00    +0.000 A 
ATOM      5  C   UNL     1      47.288   4.052  15.762  0.00  0.00    +0.000 A 
ATOM      6  C   UNL     1      46.969   4.686  14.557  0.00  0.00    +0.000 A 
ATOM      7  C   UNL     1      47.519   5.933  14.220  0.00  0.00    +0.000 A 
BRANCH   4   8
ATOM      8  C   UNL     1      48.578   4.066  17.962  0.00  0.00    +0.000 C 
ATOM      9  N   UNL     1      47.914   4.451  19.092  0.00  0.00    +0.000 N 
ATOM     10  O   UNL     1      49.483   3.247  18.039  0.00  0.00    +0.000 OA
ATOM     11  H   UNL     1      47.167   5.125  19.133  0.00  0.00    +0.000 HD
ATOM     12  H   UNL     1      48.223   4.032  19.960  0.00  0.00    +0.000 HD
ENDBRANCH   4   8
BRANCH   2  14
ATOM     13  C   UNL     1      48.290   8.917  15.514  0.00  0.00    +0.000 C 
ATOM     14  O   UNL     1      48.862   7.812  14.826  0.00  0.00    +0.000 OA
ENDBRANCH   2  14
ENDBRANCH   1   7
BRANCH   1  15
ATOM     15  C   UNL     1      45.747   6.847  12.890  0.00  0.00    +0.000 C 
BRANCH  15  16
ATOM     16  C   UNL     1      44.950   5.931  12.003  0.00  0.00    +0.000 A 
ATOM     17  C   UNL     1      43.570   5.857  12.116  0.00  0.00    +0.000 A 
ATOM     18  N   UNL     1      42.790   5.128  11.293  0.00  0.00    +0.000 NA
ATOM     19  C   UNL     1      43.420   4.433  10.314  0.00  0.00    +0.000 A 
ATOM     20  C   UNL     1      44.801   4.399  10.104  0.00  0.00    +0.000 A 
ATOM     21  C   UNL     1      45.560   5.184  10.987  0.00  0.00    +0.000 A 
BRANCH  20  22
ATOM     22  C   UNL     1      45.426   3.585   9.039  0.00  0.00    +0.000 A 
ATOM     23  C   UNL     1      46.035   4.180   7.914  0.00  0.00    +0.000 A 
ATOM     24  C   UNL     1      46.667   3.409   6.934  0.00  0.00    +0.000 A 
ATOM     25  C   UNL     1      46.685   2.028   7.054  0.00  0.00    +0.000 A 
ATOM     26  F   UNL     1      47.297   1.289   6.120  0.00  0.00    +0.000 F 
ATOM     27  C   UNL     1      46.080   1.405   8.135  0.00  0.00    +0.000 A 
ATOM     28  C   UNL     1      45.459   2.179   9.120  0.00  0.00    +0.000 A 
ENDBRANCH  20  22
ENDBRANCH  15  16
ENDBRANCH   1  15
TORSDOF 6
ENDMDL
MODEL 4
REMARK VINA RESULT:    -6.804      2.203      2.601
REMARK INTER + INTRA:         -10.505
REMARK INTER:                  -9.576
REMARK INTRA:                  -0.929
REMARK UNBOUND:                -1.314
REMARK  Name = 
REMARK  7 active torsions:
REMARK  status: ('A' for Active; 'I' for Inactive)
REMARK    1  A    between atoms: C_1  and  O_2
REMARK    2  A    between atoms: O_2  and  C_3
REMARK    3  A    between atoms: C_5  and  C_6
REMARK    4  A    between atoms: C_11  and  O_12
REMARK    5  A    between atoms: O_12  and  C_13
REMARK    6  A    between atoms: C_13  and  C_14
REMARK    7  A    between atoms: C_18  and  C_19
REMARK                            x       y       z     vdW  Elec       q    Type
REMARK                         _______ _______ _______ _____ _____    ______ ____
ROOT
ATOM      1  O   UNL     1      46.916   7.537  11.982  0.00  0.00    +0.000 OA
ENDROOT
BRANCH   1   7
ATOM      2  C   UNL     1      47.758   6.225  13.940  0.00  0.00    +0.000 A 
ATOM      3  C   UNL     1      48.355   6.315  15.205  0.00  0.00    +0.000 A 
ATOM      4  C   UNL     1      48.717   7.551  15.761  0.00  0.00    +0.000 A 
ATOM      5  C   UNL     1      48.475   8.718  15.034  0.00  0.00    +0.000 A 
ATOM      6  C   UNL     1      47.869   8.640  13.776  0.00  0.00    +0.000 A 
ATOM      7  C   UNL     1      47.502   7.405  13.218  0.00  0.00    +0.000 A 
BRANCH   4   8
ATOM      8  C   UNL     1      49.357   7.528  17.110  0.00  0.00    +0.000 C 
ATOM      9  N   UNL     1      50.719   7.597  17.194  0.00  0.00    +0.000 N 
ATOM     10  O   UNL     1      48.690   7.452  18.133  0.00  0.00    +0.000 OA
ATOM     11  H   UNL     1      51.354   7.650  16.414  0.00  0.00    +0.000 HD
ATOM     12  H   UNL     1      51.115   7.571  18.125  0.00  0.00    +0.000 HD
ENDBRANCH   4   8
BRANCH   2  14
ATOM     13  C   UNL     1      47.194   3.911  14.193  0.00  0.00    +0.000 C 
ATOM     14  O   UNL     1      47.479   5.021  13.351  0.00  0.00    +0.000 OA
ENDBRANCH   2  14
ENDBRANCH   1   7
BRANCH   1  15
ATOM     15  C   UNL     1      45.502   7.708  11.932  0.00  0.00    +0.000 C 
BRANCH  15  16
ATOM     16  C   UNL     1      44.841   6.449  11.445  0.00  0.00    +0.000 A 
ATOM     17  C   UNL     1      43.564   6.109  11.867  0.00  0.00    +0.000 A 
ATOM     18  N   UNL     1      42.880   5.046  11.399  0.00  0.00    +0.000 NA
ATOM     19  C   UNL     1      43.505   4.280  10.470  0.00  0.00    +0.000 A 
ATOM     20  C   UNL     1      44.795   4.495   9.978  0.00  0.00    +0.000 A 
ATOM     21  C   UNL     1      45.454   5.621  10.496  0.00  0.00    +0.000 A 
BRANCH  20  22
ATOM     22  C   UNL     1      45.431   3.594   8.992  0.00  0.00    +0.000 A 
ATOM     23  C   UNL     1      46.124   4.096   7.871  0.00  0.00    +0.000 A 
ATOM     24  C   UNL     1      46.766   3.244   6.967  0.00  0.00    +0.000 A 
ATOM     25  C   UNL     1      46.710   1.872   7.163  0.00  0.00    +0.000 A 
ATOM     26  F   UNL     1      47.331   1.054   6.303  0.00  0.00    +0.000 F 
ATOM     27  C   UNL     1      46.022   1.339   8.241  0.00  0.00    +0.000 A 
ATOM     28  C   UNL     1      45.391   2.194   9.150  0.00  0.00    +0.000 A 
ENDBRANCH  20  22
ENDBRANCH  15  16
ENDBRANCH   1  15
TORSDOF 6
ENDMDL
MODEL 5
REMARK VINA RESULT:    -6.560      3.896      5.425
REMARK INTER + INTRA:         -10.175
REMARK INTER:                  -9.304
REMARK INTRA:                  -0.872
REMARK UNBOUND:                -1.314
REMARK  Name = 
REMARK  7 active torsions:
REMARK  status: ('A' for Active; 'I' for Inactive)
REMARK    1  A    between atoms: C_1  and  O_2
REMARK    2  A    between atoms: O_2  and  C_3
REMARK    3  A    between atoms: C_5  and  C_6
REMARK    4  A    between atoms: C_11  and  O_12
REMARK    5  A    between atoms: O_12  and  C_13
REMARK    6  A    between atoms: C_13  and  C_14
REMARK    7  A    between atoms: C_18  and  C_19
REMARK                            x       y       z     vdW  Elec       q    Type
REMARK                         _______ _______ _______ _____ _____    ______ ____
ROOT
ATOM      1  O   UNL     1      49.018   6.269  14.656  0.00  0.00    +0.000 OA
ENDROOT
BRANCH   1   7
ATOM      2  C   UNL     1      48.205   5.097  16.712  0.00  0.00    +0.000 A 
ATOM      3  C   UNL     1      47.868   5.258  18.063  0.00  0.00    +0.000 A 
ATOM      4  C   UNL     1      47.985   6.500  18.707  0.00  0.00    +0.000 A 
ATOM      5  C   UNL     1      48.449   7.599  17.980  0.00  0.00    +0.000 A 
ATOM      6  C   UNL     1      48.776   7.450  16.629  0.00  0.00    +0.000 A 
ATOM      7  C   UNL     1      48.657   6.210  15.981  0.00  0.00    +0.000 A 
BRANCH   4   8
ATOM      8  C   UNL     1      47.611   6.555  20.151  0.00  0.00    +0.000 C 
ATOM      9  N   UNL     1      47.187   5.411  20.766  0.00  0.00    +0.000 N 
ATOM     10  O   UNL     1      47.677   7.597  20.789  0.00  0.00    +0.000 OA
ATOM     11  H   UNL     1      47.087   4.510  20.327  0.00  0.00    +0.000 HD
ATOM     12  H   UNL     1      46.935   5.492  21.743  0.00  0.00    +0.000 HD
ENDBRANCH   4   8
BRANCH   2  14
ATOM     13  C   UNL     1      48.332   2.713  16.903  0.00  0.00    +0.000 C 
ATOM     14  O   UNL     1      48.177   3.874  16.097  0.00  0.00    +0.000 OA
ENDBRANCH   2  14
ENDBRANCH   1   7
BRANCH   1  15
ATOM     15  C   UNL     1      48.820   7.500  13.967  0.00  0.00    +0.000 C 
BRANCH  15  16
ATOM     16  C   UNL     1      47.488   7.499  13.272  0.00  0.00    +0.000 A 
ATOM     17  C   UNL     1      46.650   8.603  13.340  0.00  0.00    +0.000 A 
ATOM     18  N   UNL     1      45.487   8.703  12.665  0.00  0.00    +0.000 NA
ATOM     19  C   UNL     1      45.140   7.645  11.890  0.00  0.00    +0.000 A 
ATOM     20  C   UNL     1      45.876   6.466  11.751  0.00  0.00    +0.000 A 
ATOM     21  C   UNL     1      47.081   6.424  12.471  0.00  0.00    +0.000 A 
BRANCH  20  22
ATOM     22  C   UNL     1      45.417   5.333  10.918  0.00  0.00    +0.000 A 
ATOM     23  C   UNL     1      45.641   5.300   9.526  0.00  0.00    +0.000 A 
ATOM     24  C   UNL     1      45.249   4.206   8.749  0.00  0.00    +0.000 A 
ATOM     25  C   UNL     1      44.610   3.133   9.351  0.00  0.00    +0.000 A 
ATOM     26  F   UNL     1      44.240   2.080   8.611  0.00  0.00    +0.000 F 
ATOM     27  C   UNL     1      44.353   3.136  10.714  0.00  0.00    +0.000 A 
ATOM     28  C   UNL     1      44.757   4.227  11.490  0.00  0.00    +0.000 A 
ENDBRANCH  20  22
ENDBRANCH  15  16
ENDBRANCH   1  15
TORSDOF 6
ENDMDL
MODEL 6
REMARK VINA RESULT:    -6.215      1.866      2.658
REMARK INTER + INTRA:          -9.710
REMARK INTER:                  -8.853
REMARK INTRA:                  -0.857
REMARK UNBOUND:                -1.314
REMARK  Name = 
REMARK  7 active torsions:
REMARK  status: ('A' for Active; 'I' for Inactive)
REMARK    1  A    between atoms: C_1  and  O_2
REMARK    2  A    between atoms: O_2  and  C_3
REMARK    3  A    between atoms: C_5  and  C_6
REMARK    4  A    between atoms: C_11  and  O_12
REMARK    5  A    between atoms: O_12  and  C_13
REMARK    6  A    between atoms: C_13  and  C_14
REMARK    7  A    between atoms: C_18  and  C_19
REMARK                            x       y       z     vdW  Elec       q    Type
REMARK                         _______ _______ _______ _____ _____    ______ ____
ROOT
ATOM      1  O   UNL     1      46.364   7.264  13.263  0.00  0.00    +0.000 OA
ENDROOT
BRANCH   1   7
ATOM      2  C   UNL     1      48.634   7.924  14.083  0.00  0.00    +0.000 A 
ATOM      3  C   UNL     1      49.947   8.227  13.695  0.00  0.00    +0.000 A 
ATOM      4  C   UNL     1      50.346   8.177  12.350  0.00  0.00    +0.000 A 
ATOM      5  C   UNL     1      49.411   7.816  11.378  0.00  0.00    +0.000 A 
ATOM      6  C   UNL     1      48.096   7.524  11.754  0.00  0.00    +0.000 A 
ATOM      7  C   UNL     1      47.692   7.576  13.097  0.00  0.00    +0.000 A 
BRANCH   4   8
ATOM      8  C   UNL     1      51.772   8.507  12.052  0.00  0.00    +0.000 C 
ATOM      9  N   UNL     1      52.757   7.839  12.723  0.00  0.00    +0.000 N 
ATOM     10  O   UNL     1      52.071   9.357  11.225  0.00  0.00    +0.000 OA
ATOM     11  H   UNL     1      52.614   7.134  13.428  0.00  0.00    +0.000 HD
ATOM     12  H   UNL     1      53.709   8.097  12.498  0.00  0.00    +0.000 HD
ENDBRANCH   4   8
BRANCH   2  14
ATOM     13  C   UNL     1      48.619   8.977  16.234  0.00  0.00    +0.000 C 
ATOM     14  O   UNL     1      48.255   7.886  15.397  0.00  0.00    +0.000 OA
ENDBRANCH   2  14
ENDBRANCH   1   7
BRANCH   1  15
ATOM     15  C   UNL     1      46.036   5.923  13.616  0.00  0.00    +0.000 C 
BRANCH  15  16
ATOM     16  C   UNL     1      45.153   5.308  12.566  0.00  0.00    +0.000 A 
ATOM     17  C   UNL     1      43.772   5.397  12.659  0.00  0.00    +0.000 A 
ATOM     18  N   UNL     1      42.928   4.950  11.708  0.00  0.00    +0.000 NA
ATOM     19  C   UNL     1      43.490   4.379  10.613  0.00  0.00    +0.000 A 
ATOM     20  C   UNL     1      44.861   4.205  10.405  0.00  0.00    +0.000 A 
ATOM     21  C   UNL     1      45.690   4.697  11.425  0.00  0.00    +0.000 A 
BRANCH  20  22
ATOM     22  C   UNL     1      45.405   3.537   9.202  0.00  0.00    +0.000 A 
ATOM     23  C   UNL     1      45.868   4.273   8.092  0.00  0.00    +0.000 A 
ATOM     24  C   UNL     1      46.427   3.640   6.978  0.00  0.00    +0.000 A 
ATOM     25  C   UNL     1      46.516   2.256   6.950  0.00  0.00    +0.000 A 
ATOM     26  F   UNL     1      47.058   1.648   5.887  0.00  0.00    +0.000 F 
ATOM     27  C   UNL     1      46.054   1.496   8.013  0.00  0.00    +0.000 A 
ATOM     28  C   UNL     1      45.506   2.133   9.131  0.00  0.00    +0.000 A 
ENDBRANCH  20  22
ENDBRANCH  15  16
ENDBRANCH   1  15
TORSDOF 6
ENDMDL
MODEL 7
REMARK VINA RESULT:    -6.062      4.659      7.001
REMARK INTER + INTRA:          -9.503
REMARK INTER:                  -8.545
REMARK INTRA:                  -0.958
REMARK UNBOUND:                -1.314
REMARK  Name = 
REMARK  7 active torsions:
REMARK  status: ('A' for Active; 'I' for Inactive)
REMARK    1  A    between atoms: C_1  and  O_2
REMARK    2  A    between atoms: O_2  and  C_3
REMARK    3  A    between atoms: C_5  and  C_6
REMARK    4  A    between atoms: C_11  and  O_12
REMARK    5  A    between atoms: O_12  and  C_13
REMARK    6  A    between atoms: C_13  and  C_14
REMARK    7  A    between atoms: C_18  and  C_19
REMARK                            x       y       z     vdW  Elec       q    Type
REMARK                         _______ _______ _______ _____ _____    ______ ____
ROOT
ATOM      1  O   UNL     1      49.196   6.104  16.769  0.00  0.00    +0.000 OA
ENDROOT
BRANCH   1   7
ATOM      2  C   UNL     1      49.384   3.614  16.933  0.00  0.00    +0.000 A 
ATOM      3  C   UNL     1      50.232   2.552  17.276  0.00  0.00    +0.000 A 
ATOM      4  C   UNL     1      51.549   2.772  17.707  0.00  0.00    +0.000 A 
ATOM      5  C   UNL     1      52.024   4.082  17.794  0.00  0.00    +0.000 A 
ATOM      6  C   UNL     1      51.182   5.149  17.465  0.00  0.00    +0.000 A 
ATOM      7  C   UNL     1      49.863   4.933  17.037  0.00  0.00    +0.000 A 
BRANCH   4   8
ATOM      8  C   UNL     1      52.367   1.566  18.035  0.00  0.00    +0.000 C 
ATOM      9  N   UNL     1      51.762   0.341  18.041  0.00  0.00    +0.000 N 
ATOM     10  O   UNL     1      53.559   1.655  18.295  0.00  0.00    +0.000 OA
ATOM     11  H   UNL     1      50.789   0.166  17.852  0.00  0.00    +0.000 HD
ATOM     12  H   UNL     1      52.349  -0.450  18.275  0.00  0.00    +0.000 HD
ENDBRANCH   4   8
BRANCH   2  14
ATOM     13  C   UNL     1      47.053   3.256  17.349  0.00  0.00    +0.000 C 
ATOM     14  O   UNL     1      48.128   3.409  16.430  0.00  0.00    +0.000 OA
ENDBRANCH   2  14
ENDBRANCH   1   7
BRANCH   1  15
ATOM     15  C   UNL     1      49.896   7.119  16.055  0.00  0.00    +0.000 C 
BRANCH  15  16
ATOM     16  C   UNL     1      49.360   7.237  14.656  0.00  0.00    +0.000 A 
ATOM     17  C   UNL     1      50.048   7.956  13.690  0.00  0.00    +0.000 A 
ATOM     18  N   UNL     1      49.672   8.024  12.397  0.00  0.00    +0.000 NA
ATOM     19  C   UNL     1      48.548   7.347  12.054  0.00  0.00    +0.000 A 
ATOM     20  C   UNL     1      47.749   6.606  12.929  0.00  0.00    +0.000 A 
ATOM     21  C   UNL     1      48.196   6.566  14.260  0.00  0.00    +0.000 A 
BRANCH  20  22
ATOM     22  C   UNL     1      46.511   5.923  12.493  0.00  0.00    +0.000 A 
ATOM     23  C   UNL     1      45.770   5.104  13.370  0.00  0.00    +0.000 A 
ATOM     24  C   UNL     1      44.575   4.499  12.969  0.00  0.00    +0.000 A 
ATOM     25  C   UNL     1      44.110   4.692  11.677  0.00  0.00    +0.000 A 
ATOM     26  F   UNL     1      42.962   4.120  11.293  0.00  0.00    +0.000 F 
ATOM     27  C   UNL     1      44.820   5.474  10.779  0.00  0.00    +0.000 A 
ATOM     28  C   UNL     1      46.009   6.087  11.187  0.00  0.00    +0.000 A 
ENDBRANCH  20  22
ENDBRANCH  15  16
ENDBRANCH   1  15
TORSDOF 6
ENDMDL
MODEL 8
REMARK VINA RESULT:    -6.050      3.969      5.408
REMARK INTER + INTRA:          -9.486
REMARK INTER:                  -8.762
REMARK INTRA:                  -0.724
REMARK UNBOUND:                -1.314
REMARK  Name = 
REMARK  7 active torsions:
REMARK  status: ('A' for Active; 'I' for Inactive)
REMARK    1  A    between atoms: C_1  and  O_2
REMARK    2  A    between atoms: O_2  and  C_3
REMARK    3  A    between atoms: C_5  and  C_6
REMARK    4  A    between atoms: C_11  and  O_12
REMARK    5  A    between atoms: O_12  and  C_13
REMARK    6  A    between atoms: C_13  and  C_14
REMARK    7  A    between atoms: C_18  and  C_19
REMARK                            x       y       z     vdW  Elec       q    Type
REMARK                         _______ _______ _______ _____ _____    ______ ____
ROOT
ATOM      1  O   UNL     1      48.474   7.106  15.525  0.00  0.00    +0.000 OA
ENDROOT
BRANCH   1   7
ATOM      2  C   UNL     1      48.936   4.962  16.730  0.00  0.00    +0.000 A 
ATOM      3  C   UNL     1      49.914   4.216  17.403  0.00  0.00    +0.000 A 
ATOM      4  C   UNL     1      51.228   4.685  17.545  0.00  0.00    +0.000 A 
ATOM      5  C   UNL     1      51.568   5.926  17.002  0.00  0.00    +0.000 A 
ATOM      6  C   UNL     1      50.596   6.683  16.339  0.00  0.00    +0.000 A 
ATOM      7  C   UNL     1      49.279   6.218  16.198  0.00  0.00    +0.000 A 
BRANCH   4   8
ATOM      8  C   UNL     1      52.191   3.802  18.269  0.00  0.00    +0.000 C 
ATOM      9  N   UNL     1      51.945   2.459  18.317  0.00  0.00    +0.000 N 
ATOM     10  O   UNL     1      53.187   4.256  18.814  0.00  0.00    +0.000 OA
ATOM     11  H   UNL     1      51.150   1.993  17.911  0.00  0.00    +0.000 HD
ATOM     12  H   UNL     1      52.617   1.896  18.823  0.00  0.00    +0.000 HD
ENDBRANCH   4   8
BRANCH   2  14
ATOM     13  C   UNL     1      47.135   3.559  17.452  0.00  0.00    +0.000 C 
ATOM     14  O   UNL     1      47.675   4.478  16.511  0.00  0.00    +0.000 OA
ENDBRANCH   2  14
ENDBRANCH   1   7
BRANCH   1  15
ATOM     15  C   UNL     1      48.737   7.325  14.142  0.00  0.00    +0.000 C 
BRANCH  15  16
ATOM     16  C   UNL     1      47.449   7.381  13.369  0.00  0.00    +0.000 A 
ATOM     17  C   UNL     1      46.667   8.526  13.374  0.00  0.00    +0.000 A 
ATOM     18  N   UNL     1      45.552   8.674  12.631  0.00  0.00    +0.000 NA
ATOM     19  C   UNL     1      45.197   7.624  11.850  0.00  0.00    +0.000 A 
ATOM     20  C   UNL     1      45.879   6.407  11.769  0.00  0.00    +0.000 A 
ATOM     21  C   UNL     1      47.036   6.316  12.559  0.00  0.00    +0.000 A 
BRANCH  20  22
ATOM     22  C   UNL     1      45.412   5.287  10.923  0.00  0.00    +0.000 A 
ATOM     23  C   UNL     1      45.614   5.280   9.527  0.00  0.00    +0.000 A 
ATOM     24  C   UNL     1      45.215   4.197   8.738  0.00  0.00    +0.000 A 
ATOM     25  C   UNL     1      44.592   3.110   9.332  0.00  0.00    +0.000 A 
ATOM     26  F   UNL     1      44.215   2.068   8.579  0.00  0.00    +0.000 F 
ATOM     27  C   UNL     1      44.357   3.088  10.698  0.00  0.00    +0.000 A 
ATOM     28  C   UNL     1      44.768   4.167  11.486  0.00  0.00    +0.000 A 
ENDBRANCH  20  22
ENDBRANCH  15  16
ENDBRANCH   1  15
TORSDOF 6
ENDMDL
MODEL 9
REMARK VINA RESULT:    -5.950      5.609      8.861
REMARK INTER + INTRA:          -9.351
REMARK INTER:                  -8.654
REMARK INTRA:                  -0.698
REMARK UNBOUND:                -1.314
REMARK  Name = 
REMARK  7 active torsions:
REMARK  status: ('A' for Active; 'I' for Inactive)
REMARK    1  A    between atoms: C_1  and  O_2
REMARK    2  A    between atoms: O_2  and  C_3
REMARK    3  A    between atoms: C_5  and  C_6
REMARK    4  A    between atoms: C_11  and  O_12
REMARK    5  A    between atoms: O_12  and  C_13
REMARK    6  A    between atoms: C_13  and  C_14
REMARK    7  A    between atoms: C_18  and  C_19
REMARK                            x       y       z     vdW  Elec       q    Type
REMARK                         _______ _______ _______ _____ _____    ______ ____
ROOT
ATOM      1  O   UNL     1      47.820   5.137  14.739  0.00  0.00    +0.000 OA
ENDROOT
BRANCH   1   7
ATOM      2  C   UNL     1      46.408   5.955  12.842  0.00  0.00    +0.000 A 
ATOM      3  C   UNL     1      45.502   5.573  11.843  0.00  0.00    +0.000 A 
ATOM      4  C   UNL     1      45.125   4.233  11.666  0.00  0.00    +0.000 A 
ATOM      5  C   UNL     1      45.668   3.259  12.507  0.00  0.00    +0.000 A 
ATOM      6  C   UNL     1      46.563   3.633  13.514  0.00  0.00    +0.000 A 
ATOM      7  C   UNL     1      46.940   4.973  13.697  0.00  0.00    +0.000 A 
BRANCH   4   8
ATOM      8  C   UNL     1      44.163   3.937  10.563  0.00  0.00    +0.000 C 
ATOM      9  N   UNL     1      44.098   4.791   9.498  0.00  0.00    +0.000 N 
ATOM     10  O   UNL     1      43.438   2.952  10.595  0.00  0.00    +0.000 OA
ATOM     11  H   UNL     1      44.642   5.631   9.385  0.00  0.00    +0.000 HD
ATOM     12  H   UNL     1      43.428   4.559   8.776  0.00  0.00    +0.000 HD
ENDBRANCH   4   8
BRANCH   2  14
ATOM     13  C   UNL     1      45.881   8.286  12.993  0.00  0.00    +0.000 C 
ATOM     14  O   UNL     1      46.849   7.245  12.969  0.00  0.00    +0.000 OA
ENDBRANCH   2  14
ENDBRANCH   1   7
BRANCH   1  15
ATOM     15  C   UNL     1      47.407   4.707  16.033  0.00  0.00    +0.000 C 
BRANCH  15  16
ATOM     16  C   UNL     1      48.549   4.805  17.004  0.00  0.00    +0.000 A 
ATOM     17  C   UNL     1      48.582   5.806  17.964  0.00  0.00    +0.000 A 
ATOM     18  N   UNL     1      49.527   5.895  18.921  0.00  0.00    +0.000 NA
ATOM     19  C   UNL     1      50.491   4.941  18.916  0.00  0.00    +0.000 A 
ATOM     20  C   UNL     1      50.590   3.894  17.995  0.00  0.00    +0.000 A 
ATOM     21  C   UNL     1      49.574   3.849  17.028  0.00  0.00    +0.000 A 
BRANCH  20  22
ATOM     22  C   UNL     1      51.693   2.909  18.025  0.00  0.00    +0.000 A 
ATOM     23  C   UNL     1      51.548   1.619  17.474  0.00  0.00    +0.000 A 
ATOM     24  C   UNL     1      52.609   0.708  17.460  0.00  0.00    +0.000 A 
ATOM     25  C   UNL     1      53.828   1.068  18.013  0.00  0.00    +0.000 A 
ATOM     26  F   UNL     1      54.848   0.200  17.994  0.00  0.00    +0.000 F 
ATOM     27  C   UNL     1      54.004   2.320  18.582  0.00  0.00    +0.000 A 
ATOM     28  C   UNL     1      52.946   3.234  18.584  0.00  0.00    +0.000 A 
ENDBRANCH  20  22
ENDBRANCH  15  16
ENDBRANCH   1  15
TORSDOF 6
ENDMDL
