MODEL 1
REMARK VINA RESULT:    -7.635      0.000      0.000
REMARK INTER + INTRA:         -10.495
REMARK INTER:                  -9.866
REMARK INTRA:                  -0.629
REMARK UNBOUND:                -0.629
REMARK  Name = 
REMARK  7 active torsions:
REMARK  status: ('A' for Active; 'I' for Inactive)
REMARK    1  A    between atoms: C_1  and  C_2
REMARK    2  A    between atoms: C_2  and  N_3
REMARK    3  A    between atoms: C_2  and  C_17
REMARK    4  A    between atoms: C_4  and  C_6
REMARK    5  A    between atoms: N_12  and  C_13
REMARK    6  A    between atoms: C_20  and  O_21
REMARK    7  A    between atoms: O_21  and  C_22
REMARK                            x       y       z     vdW  Elec       q    Type
REMARK                         _______ _______ _______ _____ _____    ______ ____
ROOT
ATOM      1  C   UNL     1      43.016   5.131  13.260  0.00  0.00    +0.000 C 
ATOM      2  C   UNL     1      44.298   4.392  12.868  0.00  0.00    +0.000 C 
ENDROOT
BRANCH   2   3
ATOM      3  C   UNL     1      44.429   4.131  11.375  0.00  0.00    +0.000 A 
ATOM      4  C   UNL     1      43.999   2.895  10.867  0.00  0.00    +0.000 A 
ATOM      5  C   UNL     1      44.137   2.592   9.511  0.00  0.00    +0.000 A 
ATOM      6  C   UNL     1      44.672   3.531   8.629  0.00  0.00    +0.000 A 
ATOM      7  C   UNL     1      45.150   4.743   9.128  0.00  0.00    +0.000 A 
ATOM      8  C   UNL     1      45.037   5.037  10.491  0.00  0.00    +0.000 A 
BRANCH   6   9
ATOM      9  O   UNL     1      44.847   3.313   7.281  0.00  0.00    +0.000 OA
BRANCH   9  10
ATOM     10  C   UNL     1      46.073   2.838   6.843  0.00  0.00    +0.000 A 
ATOM     11  C   UNL     1      46.664   1.818   7.577  0.00  0.00    +0.000 A 
ATOM     12  N   UNL     1      47.846   1.253   7.224  0.00  0.00    +0.000 NA
ATOM     13  C   UNL     1      48.413   1.762   6.106  0.00  0.00    +0.000 A 
ATOM     14  C   UNL     1      47.840   2.799   5.388  0.00  0.00    +0.000 A 
ATOM     15  N   UNL     1      46.670   3.369   5.748  0.00  0.00    +0.000 NA
ENDBRANCH   9  10
ENDBRANCH   6   9
ENDBRANCH   2   3
BRANCH   2  16
ATOM     16  N   UNL     1      45.466   5.135  13.298  0.00  0.00    +0.000 N 
ATOM     17  C   UNL     1      46.611   4.546  13.763  0.00  0.00    +0.000 C 
ATOM     18  O   UNL     1      46.808   3.337  13.710  0.00  0.00    +0.000 OA
ATOM     19  H   UNL     1      45.292   6.106  13.522  0.00  0.00    +0.000 HD
BRANCH  17  20
ATOM     20  C   UNL     1      47.621   5.477  14.284  0.00  0.00    +0.000 A 
ATOM     21  C   UNL     1      48.157   6.458  13.463  0.00  0.00    +0.000 A 
ATOM     22  S   UNL     1      49.265   7.479  14.269  0.00  0.00    +0.000 S 
ATOM     23  C   UNL     1      49.096   6.611  15.724  0.00  0.00    +0.000 A 
ATOM     24  N   UNL     1      49.785   6.969  16.838  0.00  0.00    +0.000 NA
ATOM     25  C   UNL     1      49.573   6.212  17.866  0.00  0.00    +0.000 A 
ATOM     26  N   UNL     1      48.738   5.115  17.895  0.00  0.00    +0.000 N 
ATOM     27  C   UNL     1      48.562   4.346  19.108  0.00  0.00    +0.000 C 
ATOM     28  C   UNL     1      48.015   4.724  16.773  0.00  0.00    +0.000 A 
ATOM     29  O   UNL     1      47.249   3.764  16.782  0.00  0.00    +0.000 OA
ATOM     30  C   UNL     1      48.211   5.560  15.600  0.00  0.00    +0.000 A 
ENDBRANCH  17  20
ENDBRANCH   2  16
TORSDOF 5
ENDMDL
MODEL 2
REMARK VINA RESULT:    -7.409      2.408      3.601
REMARK INTER + INTRA:         -10.204
REMARK INTER:                  -9.059
REMARK INTRA:                  -1.145
REMARK UNBOUND:                -0.629
REMARK  Name = 
REMARK  7 active torsions:
REMARK  status: ('A' for Active; 'I' for Inactive)
REMARK    1  A    between atoms: C_1  and  C_2
REMARK    2  A    between atoms: C_2  and  N_3
REMARK    3  A    between atoms: C_2  and  C_17
REMARK    4  A    between atoms: C_4  and  C_6
REMARK    5  A    between atoms: N_12  and  C_13
REMARK    6  A    between atoms: C_20  and  O_21
REMARK    7  A    between atoms: O_21  and  C_22
REMARK                            x       y       z     vdW  Elec       q    Type
REMARK                         _______ _______ _______ _____ _____    ______ ____
ROOT
ATOM      1  C   UNL     1      47.632   9.671  12.873  0.00  0.00    +0.000 C 
ATOM      2  C   UNL     1      47.009   8.519  13.666  0.00  0.00    +0.000 C 
ENDROOT
BRANCH   2   3
ATOM      3  C   UNL     1      46.220   7.537  12.814  0.00  0.00    +0.000 A 
ATOM      4  C   UNL     1      46.664   6.208  12.731  0.00  0.00    +0.000 A 
ATOM      5  C   UNL     1      45.999   5.280  11.928  0.00  0.00    +0.000 A 
ATOM      6  C   UNL     1      44.853   5.650  11.222  0.00  0.00    +0.000 A 
ATOM      7  C   UNL     1      44.431   6.979  11.254  0.00  0.00    +0.000 A 
ATOM      8  C   UNL     1      45.113   7.916  12.037  0.00  0.00    +0.000 A 
BRANCH   6   9
ATOM      9  O   UNL     1      44.141   4.801  10.407  0.00  0.00    +0.000 OA
BRANCH   9  10
ATOM     10  C   UNL     1      44.838   4.019   9.498  0.00  0.00    +0.000 A 
ATOM     11  C   UNL     1      44.780   2.641   9.662  0.00  0.00    +0.000 A 
ATOM     12  N   UNL     1      45.395   1.778   8.816  0.00  0.00    +0.000 NA
ATOM     13  C   UNL     1      46.077   2.357   7.801  0.00  0.00    +0.000 A 
ATOM     14  C   UNL     1      46.160   3.732   7.652  0.00  0.00    +0.000 A 
ATOM     15  N   UNL     1      45.559   4.591   8.503  0.00  0.00    +0.000 NA
ENDBRANCH   9  10
ENDBRANCH   6   9
ENDBRANCH   2   3
BRANCH   2  16
ATOM     16  N   UNL     1      48.032   7.778  14.375  0.00  0.00    +0.000 N 
ATOM     17  C   UNL     1      48.553   8.167  15.580  0.00  0.00    +0.000 C 
ATOM     18  O   UNL     1      48.091   9.091  16.240  0.00  0.00    +0.000 OA
ATOM     19  H   UNL     1      48.556   7.127  13.805  0.00  0.00    +0.000 HD
BRANCH  17  20
ATOM     20  C   UNL     1      49.682   7.357  16.060  0.00  0.00    +0.000 A 
ATOM     21  C   UNL     1      50.970   7.871  16.038  0.00  0.00    +0.000 A 
ATOM     22  S   UNL     1      52.132   6.804  16.695  0.00  0.00    +0.000 S 
ATOM     23  C   UNL     1      50.955   5.607  16.983  0.00  0.00    +0.000 A 
ATOM     24  N   UNL     1      51.289   4.415  17.540  0.00  0.00    +0.000 NA
ATOM     25  C   UNL     1      50.298   3.595  17.686  0.00  0.00    +0.000 A 
ATOM     26  N   UNL     1      48.992   3.842  17.319  0.00  0.00    +0.000 N 
ATOM     27  C   UNL     1      47.957   2.856  17.543  0.00  0.00    +0.000 C 
ATOM     28  C   UNL     1      48.617   5.054  16.749  0.00  0.00    +0.000 A 
ATOM     29  O   UNL     1      47.456   5.304  16.434  0.00  0.00    +0.000 OA
ATOM     30  C   UNL     1      49.697   6.012  16.585  0.00  0.00    +0.000 A 
ENDBRANCH  17  20
ENDBRANCH   2  16
TORSDOF 5
ENDMDL
MODEL 3
REMARK VINA RESULT:    -7.214      2.604      4.223
REMARK INTER + INTRA:          -9.952
REMARK INTER:                  -8.947
REMARK INTRA:                  -1.005
REMARK UNBOUND:                -0.629
REMARK  Name = 
REMARK  7 active torsions:
REMARK  status: ('A' for Active; 'I' for Inactive)
REMARK    1  A    between atoms: C_1  and  C_2
REMARK    2  A    between atoms: C_2  and  N_3
REMARK    3  A    between atoms: C_2  and  C_17
REMARK    4  A    between atoms: C_4  and  C_6
REMARK    5  A    between atoms: N_12  and  C_13
REMARK    6  A    between atoms: C_20  and  O_21
REMARK    7  A    between atoms: O_21  and  C_22
REMARK                            x       y       z     vdW  Elec       q    Type
REMARK                         _______ _______ _______ _____ _____    ______ ____
ROOT
ATOM      1  C   UNL     1      49.765   7.761  13.482  0.00  0.00    +0.000 C 
ATOM      2  C   UNL     1      48.321   8.071  13.885  0.00  0.00    +0.000 C 
ENDROOT
BRANCH   2   3
ATOM      3  C   UNL     1      47.278   7.319  13.073  0.00  0.00    +0.000 A 
ATOM      4  C   UNL     1      47.184   5.926  13.221  0.00  0.00    +0.000 A 
ATOM      5  C   UNL     1      46.272   5.186  12.466  0.00  0.00    +0.000 A 
ATOM      6  C   UNL     1      45.408   5.826  11.577  0.00  0.00    +0.000 A 
ATOM      7  C   UNL     1      45.526   7.203  11.382  0.00  0.00    +0.000 A 
ATOM      8  C   UNL     1      46.458   7.941  12.118  0.00  0.00    +0.000 A 
BRANCH   6   9
ATOM      9  O   UNL     1      44.484   5.174  10.794  0.00  0.00    +0.000 OA
BRANCH   9  10
ATOM     10  C   UNL     1      44.943   4.313   9.809  0.00  0.00    +0.000 A 
ATOM     11  C   UNL     1      44.653   2.963   9.951  0.00  0.00    +0.000 A 
ATOM     12  N   UNL     1      45.022   2.035   9.034  0.00  0.00    +0.000 NA
ATOM     13  C   UNL     1      45.703   2.520   7.970  0.00  0.00    +0.000 A 
ATOM     14  C   UNL     1      46.019   3.862   7.839  0.00  0.00    +0.000 A 
ATOM     15  N   UNL     1      45.662   4.783   8.760  0.00  0.00    +0.000 NA
ENDBRANCH   9  10
ENDBRANCH   6   9
ENDBRANCH   2   3
BRANCH   2  16
ATOM     16  N   UNL     1      48.107   7.764  15.285  0.00  0.00    +0.000 N 
ATOM     17  C   UNL     1      48.626   8.507  16.312  0.00  0.00    +0.000 C 
ATOM     18  O   UNL     1      49.185   9.584  16.140  0.00  0.00    +0.000 OA
ATOM     19  H   UNL     1      47.813   6.815  15.471  0.00  0.00    +0.000 HD
BRANCH  17  20
ATOM     20  C   UNL     1      48.414   7.945  17.653  0.00  0.00    +0.000 A 
ATOM     21  C   UNL     1      48.002   8.762  18.696  0.00  0.00    +0.000 A 
ATOM     22  S   UNL     1      47.750   7.913  20.157  0.00  0.00    +0.000 S 
ATOM     23  C   UNL     1      48.230   6.439  19.451  0.00  0.00    +0.000 A 
ATOM     24  N   UNL     1      48.246   5.289  20.172  0.00  0.00    +0.000 NA
ATOM     25  C   UNL     1      48.648   4.249  19.514  0.00  0.00    +0.000 A 
ATOM     26  N   UNL     1      49.048   4.241  18.195  0.00  0.00    +0.000 N 
ATOM     27  C   UNL     1      49.464   3.013  17.551  0.00  0.00    +0.000 C 
ATOM     28  C   UNL     1      49.040   5.401  17.428  0.00  0.00    +0.000 A 
ATOM     29  O   UNL     1      49.372   5.413  16.245  0.00  0.00    +0.000 OA
ATOM     30  C   UNL     1      48.577   6.590  18.124  0.00  0.00    +0.000 A 
ENDBRANCH  17  20
ENDBRANCH   2  16
TORSDOF 5
ENDMDL
MODEL 4
REMARK VINA RESULT:    -7.101      1.545      2.901
REMARK INTER + INTRA:          -9.806
REMARK INTER:                  -8.799
REMARK INTRA:                  -1.007
REMARK UNBOUND:                -0.629
REMARK  Name = 
REMARK  7 active torsions:
REMARK  status: ('A' for Active; 'I' for Inactive)
REMARK    1  A    between atoms: C_1  and  C_2
REMARK    2  A    between atoms: C_2  and  N_3
REMARK    3  A    between atoms: C_2  and  C_17
REMARK    4  A    between atoms: C_4  and  C_6
REMARK    5  A    between atoms: N_12  and  C_13
REMARK    6  A    between atoms: C_20  and  O_21
REMARK    7  A    between atoms: O_21  and  C_22
REMARK                            x       y       z     vdW  Elec       q    Type
REMARK                         _______ _______ _______ _____ _____    ______ ____
ROOT
ATOM      1  C   UNL     1      42.796   5.494  13.246  0.00  0.00    +0.000 C 
ATOM      2  C   UNL     1      43.987   4.553  13.046  0.00  0.00    +0.000 C 
ENDROOT
BRANCH   2   3
ATOM      3  C   UNL     1      44.233   4.167  11.596  0.00  0.00    +0.000 A 
ATOM      4  C   UNL     1      44.727   5.141  10.713  0.00  0.00    +0.000 A 
ATOM      5  C   UNL     1      44.928   4.847   9.363  0.00  0.00    +0.000 A 
ATOM      6  C   UNL     1      44.678   3.563   8.875  0.00  0.00    +0.000 A 
ATOM      7  C   UNL     1      44.139   2.601   9.730  0.00  0.00    +0.000 A 
ATOM      8  C   UNL     1      43.911   2.902  11.076  0.00  0.00    +0.000 A 
BRANCH   6   9
ATOM      9  O   UNL     1      44.846   3.191   7.562  0.00  0.00    +0.000 OA
BRANCH   9  10
ATOM     10  C   UNL     1      46.115   2.825   7.137  0.00  0.00    +0.000 A 
ATOM     11  C   UNL     1      46.606   1.601   7.568  0.00  0.00    +0.000 A 
ATOM     12  N   UNL     1      47.819   1.125   7.189  0.00  0.00    +0.000 NA
ATOM     13  C   UNL     1      48.521   1.937   6.365  0.00  0.00    +0.000 A 
ATOM     14  C   UNL     1      48.045   3.172   5.956  0.00  0.00    +0.000 A 
ATOM     15  N   UNL     1      46.843   3.649   6.344  0.00  0.00    +0.000 NA
ENDBRANCH   9  10
ENDBRANCH   6   9
ENDBRANCH   2   3
BRANCH   2  16
ATOM     16  N   UNL     1      45.201   5.152  13.563  0.00  0.00    +0.000 N 
ATOM     17  C   UNL     1      46.316   4.434  13.903  0.00  0.00    +0.000 C 
ATOM     18  O   UNL     1      46.443   3.240  13.653  0.00  0.00    +0.000 OA
ATOM     19  H   UNL     1      45.086   6.083  13.944  0.00  0.00    +0.000 HD
BRANCH  17  20
ATOM     20  C   UNL     1      47.385   5.212  14.544  0.00  0.00    +0.000 A 
ATOM     21  C   UNL     1      47.763   4.938  15.850  0.00  0.00    +0.000 A 
ATOM     22  S   UNL     1      49.063   5.905  16.393  0.00  0.00    +0.000 S 
ATOM     23  C   UNL     1      49.127   6.749  14.915  0.00  0.00    +0.000 A 
ATOM     24  N   UNL     1      50.037   7.736  14.711  0.00  0.00    +0.000 NA
ATOM     25  C   UNL     1      49.961   8.304  13.550  0.00  0.00    +0.000 A 
ATOM     26  N   UNL     1      49.054   7.988  12.561  0.00  0.00    +0.000 N 
ATOM     27  C   UNL     1      49.069   8.677  11.289  0.00  0.00    +0.000 C 
ATOM     28  C   UNL     1      48.112   6.979  12.737  0.00  0.00    +0.000 A 
ATOM     29  O   UNL     1      47.308   6.667  11.862  0.00  0.00    +0.000 OA
ATOM     30  C   UNL     1      48.174   6.303  14.022  0.00  0.00    +0.000 A 
ENDBRANCH  17  20
ENDBRANCH   2  16
TORSDOF 5
ENDMDL
MODEL 5
REMARK VINA RESULT:    -7.101      3.326      5.393
REMARK INTER + INTRA:          -9.806
REMARK INTER:                  -8.561
REMARK INTRA:                  -1.245
REMARK UNBOUND:                -0.629
REMARK  Name = 
REMARK  7 active torsions:
REMARK  status: ('A' for Active; 'I' for Inactive)
REMARK    1  A    between atoms: C_1  and  C_2
REMARK    2  A    between atoms: C_2  and  N_3
REMARK    3  A    between atoms: C_2  and  C_17
REMARK    4  A    between atoms: C_4  and  C_6
REMARK    5  A    between atoms: N_12  and  C_13
REMARK    6  A    between atoms: C_20  and  O_21
REMARK    7  A    between atoms: O_21  and  C_22
REMARK                            x       y       z     vdW  Elec       q    Type
REMARK                         _______ _______ _______ _____ _____    ______ ____
ROOT
ATOM      1  C   UNL     1      50.445   8.665  13.458  0.00  0.00    +0.000 C 
ATOM      2  C   UNL     1      49.082   8.702  14.154  0.00  0.00    +0.000 C 
ENDROOT
BRANCH   2   3
ATOM      3  C   UNL     1      47.940   8.168  13.303  0.00  0.00    +0.000 A 
ATOM      4  C   UNL     1      46.678   8.774  13.411  0.00  0.00    +0.000 A 
ATOM      5  C   UNL     1      45.588   8.293  12.683  0.00  0.00    +0.000 A 
ATOM      6  C   UNL     1      45.745   7.222  11.803  0.00  0.00    +0.000 A 
ATOM      7  C   UNL     1      46.980   6.578  11.723  0.00  0.00    +0.000 A 
ATOM      8  C   UNL     1      48.066   7.042  12.472  0.00  0.00    +0.000 A 
BRANCH   6   9
ATOM      9  O   UNL     1      44.725   6.684  11.051  0.00  0.00    +0.000 OA
BRANCH   9  10
ATOM     10  C   UNL     1      44.230   5.438  11.406  0.00  0.00    +0.000 A 
ATOM     11  C   UNL     1      44.054   4.507  10.391  0.00  0.00    +0.000 A 
ATOM     12  N   UNL     1      43.609   3.247  10.624  0.00  0.00    +0.000 NA
ATOM     13  C   UNL     1      43.340   2.965  11.920  0.00  0.00    +0.000 A 
ATOM     14  C   UNL     1      43.487   3.901  12.930  0.00  0.00    +0.000 A 
ATOM     15  N   UNL     1      43.919   5.158  12.695  0.00  0.00    +0.000 NA
ENDBRANCH   9  10
ENDBRANCH   6   9
ENDBRANCH   2   3
BRANCH   2  16
ATOM     16  N   UNL     1      49.119   7.939  15.385  0.00  0.00    +0.000 N 
ATOM     17  C   UNL     1      48.558   8.368  16.559  0.00  0.00    +0.000 C 
ATOM     18  O   UNL     1      47.841   9.359  16.634  0.00  0.00    +0.000 OA
ATOM     19  H   UNL     1      49.830   7.221  15.419  0.00  0.00    +0.000 HD
BRANCH  17  20
ATOM     20  C   UNL     1      48.832   7.516  17.725  0.00  0.00    +0.000 A 
ATOM     21  C   UNL     1      49.236   8.083  18.925  0.00  0.00    +0.000 A 
ATOM     22  S   UNL     1      49.441   6.936  20.175  0.00  0.00    +0.000 S 
ATOM     23  C   UNL     1      49.042   5.646  19.138  0.00  0.00    +0.000 A 
ATOM     24  N   UNL     1      49.028   4.365  19.586  0.00  0.00    +0.000 NA
ATOM     25  C   UNL     1      48.724   3.485  18.686  0.00  0.00    +0.000 A 
ATOM     26  N   UNL     1      48.437   3.756  17.365  0.00  0.00    +0.000 N 
ATOM     27  C   UNL     1      48.092   2.694  16.445  0.00  0.00    +0.000 C 
ATOM     28  C   UNL     1      48.439   5.059  16.875  0.00  0.00    +0.000 A 
ATOM     29  O   UNL     1      48.165   5.325  15.707  0.00  0.00    +0.000 OA
ATOM     30  C   UNL     1      48.757   6.080  17.859  0.00  0.00    +0.000 A 
ENDBRANCH  17  20
ENDBRANCH   2  16
TORSDOF 5
ENDMDL
MODEL 6
REMARK VINA RESULT:    -7.047      2.885      4.145
REMARK INTER + INTRA:          -9.736
REMARK INTER:                  -8.661
REMARK INTRA:                  -1.075
REMARK UNBOUND:                -0.629
REMARK  Name = 
REMARK  7 active torsions:
REMARK  status: ('A' for Active; 'I' for Inactive)
REMARK    1  A    between atoms: C_1  and  C_2
REMARK    2  A    between atoms: C_2  and  N_3
REMARK    3  A    between atoms: C_2  and  C_17
REMARK    4  A    between atoms: C_4  and  C_6
REMARK    5  A    between atoms: N_12  and  C_13
REMARK    6  A    between atoms: C_20  and  O_21
REMARK    7  A    between atoms: O_21  and  C_22
REMARK                            x       y       z     vdW  Elec       q    Type
REMARK                         _______ _______ _______ _____ _____    ______ ____
ROOT
ATOM      1  C   UNL     1      47.210   4.353  16.711  0.00  0.00    +0.000 C 
ATOM      2  C   UNL     1      47.757   4.940  15.407  0.00  0.00    +0.000 C 
ENDROOT
BRANCH   2   3
ATOM      3  C   UNL     1      46.886   4.661  14.191  0.00  0.00    +0.000 A 
ATOM      4  C   UNL     1      46.180   5.726  13.610  0.00  0.00    +0.000 A 
ATOM      5  C   UNL     1      45.335   5.513  12.519  0.00  0.00    +0.000 A 
ATOM      6  C   UNL     1      45.209   4.240  11.962  0.00  0.00    +0.000 A 
ATOM      7  C   UNL     1      45.865   3.164  12.560  0.00  0.00    +0.000 A 
ATOM      8  C   UNL     1      46.690   3.371  13.670  0.00  0.00    +0.000 A 
BRANCH   6   9
ATOM      9  O   UNL     1      44.397   3.943  10.891  0.00  0.00    +0.000 OA
BRANCH   9  10
ATOM     10  C   UNL     1      44.993   3.596   9.688  0.00  0.00    +0.000 A 
ATOM     11  C   UNL     1      45.423   4.628   8.865  0.00  0.00    +0.000 A 
ATOM     12  N   UNL     1      46.049   4.407   7.682  0.00  0.00    +0.000 NA
ATOM     13  C   UNL     1      46.218   3.105   7.356  0.00  0.00    +0.000 A 
ATOM     14  C   UNL     1      45.764   2.073   8.162  0.00  0.00    +0.000 A 
ATOM     15  N   UNL     1      45.129   2.295   9.333  0.00  0.00    +0.000 NA
ENDBRANCH   9  10
ENDBRANCH   6   9
ENDBRANCH   2   3
BRANCH   2  16
ATOM     16  N   UNL     1      47.919   6.375  15.524  0.00  0.00    +0.000 N 
ATOM     17  C   UNL     1      49.117   6.983  15.788  0.00  0.00    +0.000 C 
ATOM     18  O   UNL     1      50.184   6.381  15.794  0.00  0.00    +0.000 OA
ATOM     19  H   UNL     1      47.064   6.886  15.700  0.00  0.00    +0.000 HD
BRANCH  17  20
ATOM     20  C   UNL     1      49.041   8.434  16.012  0.00  0.00    +0.000 A 
ATOM     21  C   UNL     1      49.543   9.315  15.065  0.00  0.00    +0.000 A 
ATOM     22  S   UNL     1      49.302  10.955  15.477  0.00  0.00    +0.000 S 
ATOM     23  C   UNL     1      48.564  10.537  16.954  0.00  0.00    +0.000 A 
ATOM     24  N   UNL     1      48.115  11.491  17.809  0.00  0.00    +0.000 NA
ATOM     25  C   UNL     1      47.591  11.031  18.899  0.00  0.00    +0.000 A 
ATOM     26  N   UNL     1      47.476   9.698  19.233  0.00  0.00    +0.000 N 
ATOM     27  C   UNL     1      46.856   9.293  20.476  0.00  0.00    +0.000 C 
ATOM     28  C   UNL     1      47.923   8.696  18.378  0.00  0.00    +0.000 A 
ATOM     29  O   UNL     1      47.811   7.502  18.645  0.00  0.00    +0.000 OA
ATOM     30  C   UNL     1      48.501   9.170  17.132  0.00  0.00    +0.000 A 
ENDBRANCH  17  20
ENDBRANCH   2  16
TORSDOF 5
ENDMDL
MODEL 7
REMARK VINA RESULT:    -7.005      3.709      9.188
REMARK INTER + INTRA:          -9.682
REMARK INTER:                  -9.632
REMARK INTRA:                  -0.050
REMARK UNBOUND:                -0.629
REMARK  Name = 
REMARK  7 active torsions:
REMARK  status: ('A' for Active; 'I' for Inactive)
REMARK    1  A    between atoms: C_1  and  C_2
REMARK    2  A    between atoms: C_2  and  N_3
REMARK    3  A    between atoms: C_2  and  C_17
REMARK    4  A    between atoms: C_4  and  C_6
REMARK    5  A    between atoms: N_12  and  C_13
REMARK    6  A    between atoms: C_20  and  O_21
REMARK    7  A    between atoms: O_21  and  C_22
REMARK                            x       y       z     vdW  Elec       q    Type
REMARK                         _______ _______ _______ _____ _____    ______ ____
ROOT
ATOM      1  C   UNL     1      46.958   2.874  17.494  0.00  0.00    +0.000 C 
ATOM      2  C   UNL     1      47.656   4.233  17.388  0.00  0.00    +0.000 C 
ENDROOT
BRANCH   2   3
ATOM      3  C   UNL     1      49.174   4.153  17.437  0.00  0.00    +0.000 A 
ATOM      4  C   UNL     1      49.782   2.889  17.478  0.00  0.00    +0.000 A 
ATOM      5  C   UNL     1      51.170   2.765  17.567  0.00  0.00    +0.000 A 
ATOM      6  C   UNL     1      51.981   3.901  17.576  0.00  0.00    +0.000 A 
ATOM      7  C   UNL     1      51.388   5.163  17.587  0.00  0.00    +0.000 A 
ATOM      8  C   UNL     1      49.997   5.289  17.526  0.00  0.00    +0.000 A 
BRANCH   6   9
ATOM      9  O   UNL     1      53.354   3.868  17.665  0.00  0.00    +0.000 OA
BRANCH   9  10
ATOM     10  C   UNL     1      53.958   2.712  18.136  0.00  0.00    +0.000 A 
ATOM     11  C   UNL     1      54.095   2.577  19.511  0.00  0.00    +0.000 A 
ATOM     12  N   UNL     1      54.639   1.475  20.087  0.00  0.00    +0.000 NA
ATOM     13  C   UNL     1      55.046   0.518  19.221  0.00  0.00    +0.000 A 
ATOM     14  C   UNL     1      54.937   0.664  17.848  0.00  0.00    +0.000 A 
ATOM     15  N   UNL     1      54.407   1.766  17.276  0.00  0.00    +0.000 NA
ENDBRANCH   9  10
ENDBRANCH   6   9
ENDBRANCH   2   3
BRANCH   2  16
ATOM     16  N   UNL     1      47.281   4.902  16.159  0.00  0.00    +0.000 N 
ATOM     17  C   UNL     1      47.364   4.320  14.922  0.00  0.00    +0.000 C 
ATOM     18  O   UNL     1      47.614   3.131  14.760  0.00  0.00    +0.000 OA
ATOM     19  H   UNL     1      47.240   5.911  16.220  0.00  0.00    +0.000 HD
BRANCH  17  20
ATOM     20  C   UNL     1      47.075   5.215  13.793  0.00  0.00    +0.000 A 
ATOM     21  C   UNL     1      47.647   6.478  13.738  0.00  0.00    +0.000 A 
ATOM     22  S   UNL     1      47.241   7.339  12.320  0.00  0.00    +0.000 S 
ATOM     23  C   UNL     1      46.252   6.070  11.761  0.00  0.00    +0.000 A 
ATOM     24  N   UNL     1      45.591   6.164  10.579  0.00  0.00    +0.000 NA
ATOM     25  C   UNL     1      44.864   5.133  10.288  0.00  0.00    +0.000 A 
ATOM     26  N   UNL     1      44.721   4.007  11.070  0.00  0.00    +0.000 N 
ATOM     27  C   UNL     1      43.892   2.902  10.638  0.00  0.00    +0.000 C 
ATOM     28  C   UNL     1      45.387   3.877  12.284  0.00  0.00    +0.000 A 
ATOM     29  O   UNL     1      45.291   2.874  12.986  0.00  0.00    +0.000 OA
ATOM     30  C   UNL     1      46.230   5.006  12.640  0.00  0.00    +0.000 A 
ENDBRANCH  17  20
ENDBRANCH   2  16
TORSDOF 5
ENDMDL
MODEL 8
REMARK VINA RESULT:    -6.639      3.638      4.299
REMARK INTER + INTRA:          -9.208
REMARK INTER:                  -8.910
REMARK INTRA:                  -0.298
REMARK UNBOUND:                -0.629
REMARK  Name = 
REMARK  7 active torsions:
REMARK  status: ('A' for Active; 'I' for Inactive)
REMARK    1  A    between atoms: C_1  and  C_2
REMARK    2  A    between atoms: C_2  and  N_3
REMARK    3  A    between atoms: C_2  and  C_17
REMARK    4  A    between atoms: C_4  and  C_6
REMARK    5  A    between atoms: N_12  and  C_13
REMARK    6  A    between atoms: C_20  and  O_21
REMARK    7  A    between atoms: O_21  and  C_22
REMARK                            x       y       z     vdW  Elec       q    Type
REMARK                         _______ _______ _______ _____ _____    ______ ____
ROOT
ATOM      1  C   UNL     1      42.268   6.125  12.264  0.00  0.00    +0.000 C 
ATOM      2  C   UNL     1      43.779   5.882  12.304  0.00  0.00    +0.000 C 
ENDROOT
BRANCH   2   3
ATOM      3  C   UNL     1      44.254   4.783  11.366  0.00  0.00    +0.000 A 
ATOM      4  C   UNL     1      43.800   4.787  10.038  0.00  0.00    +0.000 A 
ATOM      5  C   UNL     1      44.173   3.776   9.151  0.00  0.00    +0.000 A 
ATOM      6  C   UNL     1      45.038   2.760   9.561  0.00  0.00    +0.000 A 
ATOM      7  C   UNL     1      45.455   2.715  10.891  0.00  0.00    +0.000 A 
ATOM      8  C   UNL     1      45.060   3.712  11.788  0.00  0.00    +0.000 A 
BRANCH   6   9
ATOM      9  O   UNL     1      45.452   1.726   8.754  0.00  0.00    +0.000 OA
BRANCH   9  10
ATOM     10  C   UNL     1      46.272   2.019   7.675  0.00  0.00    +0.000 A 
ATOM     11  C   UNL     1      47.319   1.146   7.410  0.00  0.00    +0.000 A 
ATOM     12  N   UNL     1      48.163   1.313   6.362  0.00  0.00    +0.000 NA
ATOM     13  C   UNL     1      47.917   2.401   5.595  0.00  0.00    +0.000 A 
ATOM     14  C   UNL     1      46.892   3.289   5.874  0.00  0.00    +0.000 A 
ATOM     15  N   UNL     1      46.060   3.128   6.925  0.00  0.00    +0.000 NA
ENDBRANCH   9  10
ENDBRANCH   6   9
ENDBRANCH   2   3
BRANCH   2  16
ATOM     16  N   UNL     1      44.498   7.096  11.973  0.00  0.00    +0.000 N 
ATOM     17  C   UNL     1      45.662   7.479  12.585  0.00  0.00    +0.000 C 
ATOM     18  O   UNL     1      46.281   6.754  13.355  0.00  0.00    +0.000 OA
ATOM     19  H   UNL     1      43.951   7.794  11.486  0.00  0.00    +0.000 HD
BRANCH  17  20
ATOM     20  C   UNL     1      46.152   8.812  12.207  0.00  0.00    +0.000 A 
ATOM     21  C   UNL     1      45.274   9.883  12.126  0.00  0.00    +0.000 A 
ATOM     22  S   UNL     1      46.045  11.357  11.736  0.00  0.00    +0.000 S 
ATOM     23  C   UNL     1      47.565  10.599  11.619  0.00  0.00    +0.000 A 
ATOM     24  N   UNL     1      48.681  11.308  11.307  0.00  0.00    +0.000 NA
ATOM     25  C   UNL     1      49.763  10.601  11.235  0.00  0.00    +0.000 A 
ATOM     26  N   UNL     1      49.846   9.240  11.438  0.00  0.00    +0.000 N 
ATOM     27  C   UNL     1      51.116   8.551  11.350  0.00  0.00    +0.000 C 
ATOM     28  C   UNL     1      48.723   8.485  11.763  0.00  0.00    +0.000 A 
ATOM     29  O   UNL     1      48.778   7.275  11.968  0.00  0.00    +0.000 OA
ATOM     30  C   UNL     1      47.489   9.244  11.871  0.00  0.00    +0.000 A 
ENDBRANCH  17  20
ENDBRANCH   2  16
TORSDOF 5
ENDMDL
MODEL 9
REMARK VINA RESULT:    -6.495      3.559      6.267
REMARK INTER + INTRA:          -9.022
REMARK INTER:                  -7.846
REMARK INTRA:                  -1.176
REMARK UNBOUND:                -0.629
REMARK  Name = 
REMARK  7 active torsions:
REMARK  status: ('A' for Active; 'I' for Inactive)
REMARK    1  A    between atoms: C_1  and  C_2
REMARK    2  A    between atoms: C_2  and  N_3
REMARK    3  A    between atoms: C_2  and  C_17
REMARK    4  A    between atoms: C_4  and  C_6
REMARK    5  A    between atoms: N_12  and  C_13
REMARK    6  A    between atoms: C_20  and  O_21
REMARK    7  A    between atoms: O_21  and  C_22
REMARK                            x       y       z     vdW  Elec       q    Type
REMARK                         _______ _______ _______ _____ _____    ______ ____
ROOT
ATOM      1  C   UNL     1      49.737   8.546  15.163  0.00  0.00    +0.000 C 
ATOM      2  C   UNL     1      49.259   7.394  16.049  0.00  0.00    +0.000 C 
ENDROOT
BRANCH   2   3
ATOM      3  C   UNL     1      48.408   6.365  15.320  0.00  0.00    +0.000 A 
ATOM      4  C   UNL     1      48.033   6.620  13.992  0.00  0.00    +0.000 A 
ATOM      5  C   UNL     1      47.218   5.727  13.294  0.00  0.00    +0.000 A 
ATOM      6  C   UNL     1      46.791   4.542  13.897  0.00  0.00    +0.000 A 
ATOM      7  C   UNL     1      47.113   4.302  15.233  0.00  0.00    +0.000 A 
ATOM      8  C   UNL     1      47.907   5.208  15.941  0.00  0.00    +0.000 A 
BRANCH   6   9
ATOM      9  O   UNL     1      45.984   3.611  13.284  0.00  0.00    +0.000 OA
BRANCH   9  10
ATOM     10  C   UNL     1      44.872   4.059  12.587  0.00  0.00    +0.000 A 
ATOM     11  C   UNL     1      43.793   4.520  13.330  0.00  0.00    +0.000 A 
ATOM     12  N   UNL     1      42.667   5.012  12.757  0.00  0.00    +0.000 NA
ATOM     13  C   UNL     1      42.666   5.014  11.404  0.00  0.00    +0.000 A 
ATOM     14  C   UNL     1      43.729   4.528  10.660  0.00  0.00    +0.000 A 
ATOM     15  N   UNL     1      44.845   4.027  11.232  0.00  0.00    +0.000 NA
ENDBRANCH   9  10
ENDBRANCH   6   9
ENDBRANCH   2   3
BRANCH   2  16
ATOM     16  N   UNL     1      50.388   6.704  16.640  0.00  0.00    +0.000 N 
ATOM     17  C   UNL     1      50.614   6.637  17.989  0.00  0.00    +0.000 C 
ATOM     18  O   UNL     1      49.800   7.018  18.822  0.00  0.00    +0.000 OA
ATOM     19  H   UNL     1      51.159   6.533  16.008  0.00  0.00    +0.000 HD
BRANCH  17  20
ATOM     20  C   UNL     1      51.890   6.017  18.375  0.00  0.00    +0.000 A 
ATOM     21  C   UNL     1      52.915   6.794  18.895  0.00  0.00    +0.000 A 
ATOM     22  S   UNL     1      54.289   5.883  19.342  0.00  0.00    +0.000 S 
ATOM     23  C   UNL     1      53.573   4.432  18.809  0.00  0.00    +0.000 A 
ATOM     24  N   UNL     1      54.232   3.249  18.906  0.00  0.00    +0.000 NA
ATOM     25  C   UNL     1      53.576   2.231  18.448  0.00  0.00    +0.000 A 
ATOM     26  N   UNL     1      52.316   2.276  17.888  0.00  0.00    +0.000 N 
ATOM     27  C   UNL     1      51.666   1.070  17.422  0.00  0.00    +0.000 C 
ATOM     28  C   UNL     1      51.613   3.471  17.779  0.00  0.00    +0.000 A 
ATOM     29  O   UNL     1      50.482   3.531  17.304  0.00  0.00    +0.000 OA
ATOM     30  C   UNL     1      52.308   4.637  18.299  0.00  0.00    +0.000 A 
ENDBRANCH  17  20
ENDBRANCH   2  16
TORSDOF 5
ENDMDL
