MODEL 1
REMARK VINA RESULT:    -7.887      0.000      0.000
REMARK INTER + INTRA:         -10.533
REMARK INTER:                  -9.732
REMARK INTRA:                  -0.801
REMARK UNBOUND:                -0.801
REMARK  Name = 
REMARK  5 active torsions:
REMARK  status: ('A' for Active; 'I' for Inactive)
REMARK    1  A    between atoms: C_1  and  C_2
REMARK    2  A    between atoms: N_5  and  C_6
REMARK    3  A    between atoms: C_6  and  C_7
REMARK    4  A    between atoms: C_12  and  C_13
REMARK    5  A    between atoms: C_17  and  C_18
REMARK                            x       y       z     vdW  Elec       q    Type
REMARK                         _______ _______ _______ _____ _____    ______ ____
ROOT
ATOM      1  C   UNL     1      47.573   7.192  13.715  0.00  0.00    +0.000 A 
ATOM      2  N   UNL     1      47.209   8.464  13.446  0.00  0.00    +0.000 NA
ATOM      3  C   UNL     1      46.082   8.635  12.729  0.00  0.00    +0.000 A 
ATOM      4  C   UNL     1      45.319   7.596  12.261  0.00  0.00    +0.000 A 
ATOM      5  F   UNL     1      44.208   7.844  11.553  0.00  0.00    +0.000 F 
ATOM      6  C   UNL     1      45.739   6.319  12.580  0.00  0.00    +0.000 A 
ATOM      7  N   UNL     1      46.859   6.104  13.328  0.00  0.00    +0.000 NA
ENDROOT
BRANCH   6   8
ATOM      8  C   UNL     1      44.996   5.110  12.175  0.00  0.00    +0.000 A 
ATOM      9  C   UNL     1      44.200   4.378  13.062  0.00  0.00    +0.000 A 
ATOM     10  N   UNL     1      43.536   3.239  12.751  0.00  0.00    +0.000 NA
ATOM     11  C   UNL     1      43.663   2.789  11.481  0.00  0.00    +0.000 A 
ATOM     12  C   UNL     1      44.409   3.433  10.504  0.00  0.00    +0.000 A 
ATOM     13  C   UNL     1      45.072   4.610  10.862  0.00  0.00    +0.000 A 
BRANCH  12  14
ATOM     14  C   UNL     1      44.474   2.819   9.157  0.00  0.00    +0.000 C 
ATOM     15  N   UNL     1      44.369   3.626   8.060  0.00  0.00    +0.000 N 
ATOM     16  O   UNL     1      44.624   1.610   9.016  0.00  0.00    +0.000 OA
ATOM     17  H   UNL     1      44.215   4.621   8.072  0.00  0.00    +0.000 HD
ATOM     18  H   UNL     1      44.412   3.169   7.157  0.00  0.00    +0.000 HD
ENDBRANCH  12  14
ENDBRANCH   6   8
BRANCH   1  19
ATOM     19  C   UNL     1      48.840   6.971  14.542  0.00  0.00    +0.000 C 
BRANCH  19  24
ATOM     20  C   UNL     1      48.765   2.432  16.546  0.00  0.00    +0.000 C 
ATOM     21  C   UNL     1      48.550   3.802  17.116  0.00  0.00    +0.000 A 
ATOM     22  N   UNL     1      48.610   4.865  16.262  0.00  0.00    +0.000 NA
ATOM     23  C   UNL     1      48.486   6.106  16.780  0.00  0.00    +0.000 A 
ATOM     24  N   UNL     1      48.593   7.240  15.964  0.00  0.00    +0.000 N 
ATOM     25  C   UNL     1      48.311   6.311  18.150  0.00  0.00    +0.000 A 
ATOM     26  C   UNL     1      48.241   5.220  19.013  0.00  0.00    +0.000 A 
ATOM     27  C   UNL     1      48.360   3.949  18.484  0.00  0.00    +0.000 A 
ATOM     28  F   UNL     1      48.312   2.882  19.294  0.00  0.00    +0.000 F 
ATOM     29  H   UNL     1      47.791   7.847  16.096  0.00  0.00    +0.000 HD
ENDBRANCH  19  24
ENDBRANCH   1  19
TORSDOF 4
ENDMDL
MODEL 2
REMARK VINA RESULT:    -7.640      2.304      3.238
REMARK INTER + INTRA:         -10.227
REMARK INTER:                  -9.626
REMARK INTRA:                  -0.601
REMARK UNBOUND:                -0.801
REMARK  Name = 
REMARK  5 active torsions:
REMARK  status: ('A' for Active; 'I' for Inactive)
REMARK    1  A    between atoms: C_1  and  C_2
REMARK    2  A    between atoms: N_5  and  C_6
REMARK    3  A    between atoms: C_6  and  C_7
REMARK    4  A    between atoms: C_12  and  C_13
REMARK    5  A    between atoms: C_17  and  C_18
REMARK                            x       y       z     vdW  Elec       q    Type
REMARK                         _______ _______ _______ _____ _____    ______ ____
ROOT
ATOM      1  C   UNL     1      47.440   4.528  15.651  0.00  0.00    +0.000 A 
ATOM      2  N   UNL     1      48.325   5.539  15.524  0.00  0.00    +0.000 NA
ATOM      3  C   UNL     1      48.184   6.339  14.449  0.00  0.00    +0.000 A 
ATOM      4  C   UNL     1      47.214   6.161  13.497  0.00  0.00    +0.000 A 
ATOM      5  F   UNL     1      47.136   6.999  12.453  0.00  0.00    +0.000 F 
ATOM      6  C   UNL     1      46.333   5.114  13.691  0.00  0.00    +0.000 A 
ATOM      7  N   UNL     1      46.423   4.299  14.781  0.00  0.00    +0.000 NA
ENDROOT
BRANCH   6   8
ATOM      8  C   UNL     1      45.218   4.829  12.767  0.00  0.00    +0.000 A 
ATOM      9  C   UNL     1      43.887   5.136  13.068  0.00  0.00    +0.000 A 
ATOM     10  N   UNL     1      42.826   4.853  12.274  0.00  0.00    +0.000 NA
ATOM     11  C   UNL     1      43.092   4.226  11.105  0.00  0.00    +0.000 A 
ATOM     12  C   UNL     1      44.369   3.883  10.685  0.00  0.00    +0.000 A 
ATOM     13  C   UNL     1      45.438   4.199  11.527  0.00  0.00    +0.000 A 
BRANCH  12  14
ATOM     14  C   UNL     1      44.513   3.183   9.386  0.00  0.00    +0.000 C 
ATOM     15  N   UNL     1      44.599   1.820   9.378  0.00  0.00    +0.000 N 
ATOM     16  O   UNL     1      44.550   3.807   8.330  0.00  0.00    +0.000 OA
ATOM     17  H   UNL     1      44.608   1.226  10.190  0.00  0.00    +0.000 HD
ATOM     18  H   UNL     1      44.702   1.379   8.472  0.00  0.00    +0.000 HD
ENDBRANCH  12  14
ENDBRANCH   6   8
BRANCH   1  19
ATOM     19  C   UNL     1      47.567   3.615  16.871  0.00  0.00    +0.000 C 
BRANCH  19  24
ATOM     20  C   UNL     1      51.534   5.248  19.365  0.00  0.00    +0.000 C 
ATOM     21  C   UNL     1      51.293   4.041  18.509  0.00  0.00    +0.000 A 
ATOM     22  N   UNL     1      50.066   3.905  17.929  0.00  0.00    +0.000 NA
ATOM     23  C   UNL     1      49.820   2.786  17.212  0.00  0.00    +0.000 A 
ATOM     24  N   UNL     1      48.562   2.562  16.638  0.00  0.00    +0.000 N 
ATOM     25  C   UNL     1      50.783   1.785  17.069  0.00  0.00    +0.000 A 
ATOM     26  C   UNL     1      52.037   1.938  17.656  0.00  0.00    +0.000 A 
ATOM     27  C   UNL     1      52.293   3.085  18.383  0.00  0.00    +0.000 A 
ATOM     28  F   UNL     1      53.485   3.249  18.971  0.00  0.00    +0.000 F 
ATOM     29  H   UNL     1      48.657   2.349  15.650  0.00  0.00    +0.000 HD
ENDBRANCH  19  24
ENDBRANCH   1  19
TORSDOF 4
ENDMDL
MODEL 3
REMARK VINA RESULT:    -6.943      3.337      7.364
REMARK INTER + INTRA:          -9.367
REMARK INTER:                  -8.806
REMARK INTRA:                  -0.562
REMARK UNBOUND:                -0.801
REMARK  Name = 
REMARK  5 active torsions:
REMARK  status: ('A' for Active; 'I' for Inactive)
REMARK    1  A    between atoms: C_1  and  C_2
REMARK    2  A    between atoms: N_5  and  C_6
REMARK    3  A    between atoms: C_6  and  C_7
REMARK    4  A    between atoms: C_12  and  C_13
REMARK    5  A    between atoms: C_17  and  C_18
REMARK                            x       y       z     vdW  Elec       q    Type
REMARK                         _______ _______ _______ _____ _____    ______ ____
ROOT
ATOM      1  C   UNL     1      46.328   7.183  12.693  0.00  0.00    +0.000 A 
ATOM      2  N   UNL     1      47.058   8.318  12.660  0.00  0.00    +0.000 NA
ATOM      3  C   UNL     1      48.095   8.398  13.516  0.00  0.00    +0.000 A 
ATOM      4  C   UNL     1      48.419   7.407  14.406  0.00  0.00    +0.000 A 
ATOM      5  F   UNL     1      49.467   7.558  15.228  0.00  0.00    +0.000 F 
ATOM      6  C   UNL     1      47.639   6.266  14.381  0.00  0.00    +0.000 A 
ATOM      7  N   UNL     1      46.598   6.133  13.509  0.00  0.00    +0.000 NA
ENDROOT
BRANCH   6   8
ATOM      8  C   UNL     1      47.896   5.105  15.255  0.00  0.00    +0.000 A 
ATOM      9  C   UNL     1      47.675   3.786  14.846  0.00  0.00    +0.000 A 
ATOM     10  N   UNL     1      47.851   2.691  15.626  0.00  0.00    +0.000 NA
ATOM     11  C   UNL     1      48.276   2.909  16.892  0.00  0.00    +0.000 A 
ATOM     12  C   UNL     1      48.547   4.167  17.411  0.00  0.00    +0.000 A 
ATOM     13  C   UNL     1      48.361   5.270  16.573  0.00  0.00    +0.000 A 
BRANCH  12  14
ATOM     14  C   UNL     1      48.991   4.260  18.822  0.00  0.00    +0.000 C 
ATOM     15  N   UNL     1      48.377   3.477  19.758  0.00  0.00    +0.000 N 
ATOM     16  O   UNL     1      49.895   5.019  19.154  0.00  0.00    +0.000 OA
ATOM     17  H   UNL     1      47.609   2.849  19.589  0.00  0.00    +0.000 HD
ATOM     18  H   UNL     1      48.704   3.573  20.712  0.00  0.00    +0.000 HD
ENDBRANCH  12  14
ENDBRANCH   6   8
BRANCH   1  19
ATOM     19  C   UNL     1      45.155   7.060  11.719  0.00  0.00    +0.000 C 
BRANCH  19  24
ATOM     20  C   UNL     1      43.386   2.424  11.680  0.00  0.00    +0.000 C 
ATOM     21  C   UNL     1      44.222   3.205  10.711  0.00  0.00    +0.000 A 
ATOM     22  N   UNL     1      44.569   4.480  11.050  0.00  0.00    +0.000 NA
ATOM     23  C   UNL     1      45.264   5.212  10.153  0.00  0.00    +0.000 A 
ATOM     24  N   UNL     1      45.603   6.545  10.419  0.00  0.00    +0.000 N 
ATOM     25  C   UNL     1      45.616   4.693   8.904  0.00  0.00    +0.000 A 
ATOM     26  C   UNL     1      45.266   3.387   8.570  0.00  0.00    +0.000 A 
ATOM     27  C   UNL     1      44.561   2.634   9.491  0.00  0.00    +0.000 A 
ATOM     28  F   UNL     1      44.199   1.380   9.188  0.00  0.00    +0.000 F 
ATOM     29  H   UNL     1      46.598   6.691  10.282  0.00  0.00    +0.000 HD
ENDBRANCH  19  24
ENDBRANCH   1  19
TORSDOF 4
ENDMDL
MODEL 4
REMARK VINA RESULT:    -6.885      3.916      8.623
REMARK INTER + INTRA:          -9.296
REMARK INTER:                  -8.764
REMARK INTRA:                  -0.532
REMARK UNBOUND:                -0.801
REMARK  Name = 
REMARK  5 active torsions:
REMARK  status: ('A' for Active; 'I' for Inactive)
REMARK    1  A    between atoms: C_1  and  C_2
REMARK    2  A    between atoms: N_5  and  C_6
REMARK    3  A    between atoms: C_6  and  C_7
REMARK    4  A    between atoms: C_12  and  C_13
REMARK    5  A    between atoms: C_17  and  C_18
REMARK                            x       y       z     vdW  Elec       q    Type
REMARK                         _______ _______ _______ _____ _____    ______ ____
ROOT
ATOM      1  C   UNL     1      47.819   4.305  16.690  0.00  0.00    +0.000 A 
ATOM      2  N   UNL     1      47.245   5.003  17.694  0.00  0.00    +0.000 NA
ATOM      3  C   UNL     1      48.010   5.256  18.773  0.00  0.00    +0.000 A 
ATOM      4  C   UNL     1      49.308   4.831  18.896  0.00  0.00    +0.000 A 
ATOM      5  F   UNL     1      50.008   5.121  20.001  0.00  0.00    +0.000 F 
ATOM      6  C   UNL     1      49.840   4.131  17.829  0.00  0.00    +0.000 A 
ATOM      7  N   UNL     1      49.107   3.879  16.706  0.00  0.00    +0.000 NA
ENDROOT
BRANCH   6   8
ATOM      8  C   UNL     1      51.234   3.647  17.808  0.00  0.00    +0.000 A 
ATOM      9  C   UNL     1      52.334   4.507  17.735  0.00  0.00    +0.000 A 
ATOM     10  N   UNL     1      53.628   4.110  17.667  0.00  0.00    +0.000 NA
ATOM     11  C   UNL     1      53.854   2.776  17.673  0.00  0.00    +0.000 A 
ATOM     12  C   UNL     1      52.851   1.821  17.759  0.00  0.00    +0.000 A 
ATOM     13  C   UNL     1      51.530   2.271  17.836  0.00  0.00    +0.000 A 
BRANCH  12  14
ATOM     14  C   UNL     1      53.243   0.392  17.739  0.00  0.00    +0.000 C 
ATOM     15  N   UNL     1      53.874  -0.102  16.633  0.00  0.00    +0.000 N 
ATOM     16  O   UNL     1      53.015  -0.342  18.694  0.00  0.00    +0.000 OA
ATOM     17  H   UNL     1      54.078   0.412  15.791  0.00  0.00    +0.000 HD
ATOM     18  H   UNL     1      54.121  -1.084  16.654  0.00  0.00    +0.000 HD
ENDBRANCH  12  14
ENDBRANCH   6   8
BRANCH   1  19
ATOM     19  C   UNL     1      46.977   4.019  15.446  0.00  0.00    +0.000 C 
BRANCH  19  24
ATOM     20  C   UNL     1      43.518   2.848  12.087  0.00  0.00    +0.000 C 
ATOM     21  C   UNL     1      44.489   3.985  12.197  0.00  0.00    +0.000 A 
ATOM     22  N   UNL     1      45.347   3.990  13.257  0.00  0.00    +0.000 NA
ATOM     23  C   UNL     1      46.178   5.046  13.400  0.00  0.00    +0.000 A 
ATOM     24  N   UNL     1      47.044   5.137  14.497  0.00  0.00    +0.000 N 
ATOM     25  C   UNL     1      46.162   6.113  12.499  0.00  0.00    +0.000 A 
ATOM     26  C   UNL     1      45.289   6.094  11.414  0.00  0.00    +0.000 A 
ATOM     27  C   UNL     1      44.444   5.011  11.263  0.00  0.00    +0.000 A 
ATOM     28  F   UNL     1      43.583   4.975  10.236  0.00  0.00    +0.000 F 
ATOM     29  H   UNL     1      47.995   5.304  14.183  0.00  0.00    +0.000 HD
ENDBRANCH  19  24
ENDBRANCH   1  19
TORSDOF 4
ENDMDL
MODEL 5
REMARK VINA RESULT:    -6.625      3.315      5.111
REMARK INTER + INTRA:          -8.976
REMARK INTER:                  -8.229
REMARK INTRA:                  -0.747
REMARK UNBOUND:                -0.801
REMARK  Name = 
REMARK  5 active torsions:
REMARK  status: ('A' for Active; 'I' for Inactive)
REMARK    1  A    between atoms: C_1  and  C_2
REMARK    2  A    between atoms: N_5  and  C_6
REMARK    3  A    between atoms: C_6  and  C_7
REMARK    4  A    between atoms: C_12  and  C_13
REMARK    5  A    between atoms: C_17  and  C_18
REMARK                            x       y       z     vdW  Elec       q    Type
REMARK                         _______ _______ _______ _____ _____    ______ ____
ROOT
ATOM      1  C   UNL     1      46.701   4.657  14.308  0.00  0.00    +0.000 A 
ATOM      2  N   UNL     1      45.769   4.033  13.557  0.00  0.00    +0.000 NA
ATOM      3  C   UNL     1      45.494   4.575  12.356  0.00  0.00    +0.000 A 
ATOM      4  C   UNL     1      46.095   5.714  11.885  0.00  0.00    +0.000 A 
ATOM      5  F   UNL     1      45.769   6.195  10.677  0.00  0.00    +0.000 F 
ATOM      6  C   UNL     1      47.048   6.298  12.697  0.00  0.00    +0.000 A 
ATOM      7  N   UNL     1      47.377   5.764  13.908  0.00  0.00    +0.000 NA
ENDROOT
BRANCH   6   8
ATOM      8  C   UNL     1      47.802   7.504  12.302  0.00  0.00    +0.000 A 
ATOM      9  C   UNL     1      47.220   8.775  12.242  0.00  0.00    +0.000 A 
ATOM     10  N   UNL     1      47.856   9.902  11.842  0.00  0.00    +0.000 NA
ATOM     11  C   UNL     1      49.153   9.772  11.478  0.00  0.00    +0.000 A 
ATOM     12  C   UNL     1      49.847   8.571  11.509  0.00  0.00    +0.000 A 
ATOM     13  C   UNL     1      49.159   7.432  11.935  0.00  0.00    +0.000 A 
BRANCH  12  14
ATOM     14  C   UNL     1      51.262   8.570  11.066  0.00  0.00    +0.000 C 
ATOM     15  N   UNL     1      51.908   7.375  10.929  0.00  0.00    +0.000 N 
ATOM     16  O   UNL     1      51.850   9.618  10.819  0.00  0.00    +0.000 OA
ATOM     17  H   UNL     1      51.521   6.468  11.135  0.00  0.00    +0.000 HD
ATOM     18  H   UNL     1      52.875   7.415  10.630  0.00  0.00    +0.000 HD
ENDBRANCH  12  14
ENDBRANCH   6   8
BRANCH   1  19
ATOM     19  C   UNL     1      47.045   4.052  15.670  0.00  0.00    +0.000 C 
BRANCH  19  24
ATOM     20  C   UNL     1      51.149   1.741  17.231  0.00  0.00    +0.000 C 
ATOM     21  C   UNL     1      50.556   3.084  17.537  0.00  0.00    +0.000 A 
ATOM     22  N   UNL     1      49.368   3.405  16.948  0.00  0.00    +0.000 NA
ATOM     23  C   UNL     1      48.862   4.639  17.164  0.00  0.00    +0.000 A 
ATOM     24  N   UNL     1      47.674   5.049  16.544  0.00  0.00    +0.000 N 
ATOM     25  C   UNL     1      49.531   5.572  17.959  0.00  0.00    +0.000 A 
ATOM     26  C   UNL     1      50.738   5.232  18.565  0.00  0.00    +0.000 A 
ATOM     27  C   UNL     1      51.253   3.967  18.350  0.00  0.00    +0.000 A 
ATOM     28  F   UNL     1      52.421   3.619  18.908  0.00  0.00    +0.000 F 
ATOM     29  H   UNL     1      47.021   5.407  17.234  0.00  0.00    +0.000 HD
ENDBRANCH  19  24
ENDBRANCH   1  19
TORSDOF 4
ENDMDL
MODEL 6
REMARK VINA RESULT:    -6.295      2.686      3.451
REMARK INTER + INTRA:          -8.568
REMARK INTER:                  -7.940
REMARK INTRA:                  -0.628
REMARK UNBOUND:                -0.801
REMARK  Name = 
REMARK  5 active torsions:
REMARK  status: ('A' for Active; 'I' for Inactive)
REMARK    1  A    between atoms: C_1  and  C_2
REMARK    2  A    between atoms: N_5  and  C_6
REMARK    3  A    between atoms: C_6  and  C_7
REMARK    4  A    between atoms: C_12  and  C_13
REMARK    5  A    between atoms: C_17  and  C_18
REMARK                            x       y       z     vdW  Elec       q    Type
REMARK                         _______ _______ _______ _____ _____    ______ ____
ROOT
ATOM      1  C   UNL     1      49.151   6.557  15.369  0.00  0.00    +0.000 A 
ATOM      2  N   UNL     1      50.181   7.293  14.900  0.00  0.00    +0.000 NA
ATOM      3  C   UNL     1      50.082   7.740  13.634  0.00  0.00    +0.000 A 
ATOM      4  C   UNL     1      49.013   7.470  12.819  0.00  0.00    +0.000 A 
ATOM      5  F   UNL     1      48.984   7.950  11.567  0.00  0.00    +0.000 F 
ATOM      6  C   UNL     1      47.986   6.721  13.362  0.00  0.00    +0.000 A 
ATOM      7  N   UNL     1      48.035   6.274  14.650  0.00  0.00    +0.000 NA
ENDROOT
BRANCH   6   8
ATOM      8  C   UNL     1      46.759   6.387  12.613  0.00  0.00    +0.000 A 
ATOM      9  C   UNL     1      45.891   7.361  12.108  0.00  0.00    +0.000 A 
ATOM     10  N   UNL     1      44.732   7.104  11.456  0.00  0.00    +0.000 NA
ATOM     11  C   UNL     1      44.405   5.803  11.287  0.00  0.00    +0.000 A 
ATOM     12  C   UNL     1      45.188   4.745  11.726  0.00  0.00    +0.000 A 
ATOM     13  C   UNL     1      46.381   5.050  12.388  0.00  0.00    +0.000 A 
BRANCH  12  14
ATOM     14  C   UNL     1      44.699   3.366  11.488  0.00  0.00    +0.000 C 
ATOM     15  N   UNL     1      44.163   2.668  12.532  0.00  0.00    +0.000 N 
ATOM     16  O   UNL     1      44.764   2.853  10.376  0.00  0.00    +0.000 OA
ATOM     17  H   UNL     1      44.095   2.990  13.484  0.00  0.00    +0.000 HD
ATOM     18  H   UNL     1      43.845   1.727  12.332  0.00  0.00    +0.000 HD
ENDBRANCH  12  14
ENDBRANCH   6   8
BRANCH   1  19
ATOM     19  C   UNL     1      49.231   6.052  16.811  0.00  0.00    +0.000 C 
BRANCH  19  24
ATOM     20  C   UNL     1      50.928   1.407  17.223  0.00  0.00    +0.000 C 
ATOM     21  C   UNL     1      51.511   2.741  17.579  0.00  0.00    +0.000 A 
ATOM     22  N   UNL     1      50.748   3.851  17.360  0.00  0.00    +0.000 NA
ATOM     23  C   UNL     1      51.293   5.060  17.615  0.00  0.00    +0.000 A 
ATOM     24  N   UNL     1      50.580   6.239  17.359  0.00  0.00    +0.000 N 
ATOM     25  C   UNL     1      52.603   5.186  18.081  0.00  0.00    +0.000 A 
ATOM     26  C   UNL     1      53.372   4.047  18.312  0.00  0.00    +0.000 A 
ATOM     27  C   UNL     1      52.813   2.809  18.059  0.00  0.00    +0.000 A 
ATOM     28  F   UNL     1      53.536   1.699  18.257  0.00  0.00    +0.000 F 
ATOM     29  H   UNL     1      50.570   6.832  18.183  0.00  0.00    +0.000 HD
ENDBRANCH  19  24
ENDBRANCH   1  19
TORSDOF 4
ENDMDL
MODEL 7
REMARK VINA RESULT:    -6.286      3.376      7.698
REMARK INTER + INTRA:          -8.558
REMARK INTER:                  -8.372
REMARK INTRA:                  -0.185
REMARK UNBOUND:                -0.801
REMARK  Name = 
REMARK  5 active torsions:
REMARK  status: ('A' for Active; 'I' for Inactive)
REMARK    1  A    between atoms: C_1  and  C_2
REMARK    2  A    between atoms: N_5  and  C_6
REMARK    3  A    between atoms: C_6  and  C_7
REMARK    4  A    between atoms: C_12  and  C_13
REMARK    5  A    between atoms: C_17  and  C_18
REMARK                            x       y       z     vdW  Elec       q    Type
REMARK                         _______ _______ _______ _____ _____    ______ ____
ROOT
ATOM      1  C   UNL     1      45.442   6.087  12.192  0.00  0.00    +0.000 A 
ATOM      2  N   UNL     1      46.256   6.835  11.418  0.00  0.00    +0.000 NA
ATOM      3  C   UNL     1      47.518   7.011  11.856  0.00  0.00    +0.000 A 
ATOM      4  C   UNL     1      47.989   6.489  13.032  0.00  0.00    +0.000 A 
ATOM      5  F   UNL     1      49.259   6.707  13.403  0.00  0.00    +0.000 F 
ATOM      6  C   UNL     1      47.109   5.724  13.773  0.00  0.00    +0.000 A 
ATOM      7  N   UNL     1      45.832   5.497  13.351  0.00  0.00    +0.000 NA
ENDROOT
BRANCH   6   8
ATOM      8  C   UNL     1      47.492   5.069  15.040  0.00  0.00    +0.000 A 
ATOM      9  C   UNL     1      47.138   3.752  15.348  0.00  0.00    +0.000 A 
ATOM     10  N   UNL     1      47.426   3.123  16.514  0.00  0.00    +0.000 NA
ATOM     11  C   UNL     1      48.108   3.839  17.438  0.00  0.00    +0.000 A 
ATOM     12  C   UNL     1      48.529   5.147  17.246  0.00  0.00    +0.000 A 
ATOM     13  C   UNL     1      48.221   5.758  16.027  0.00  0.00    +0.000 A 
BRANCH  12  14
ATOM     14  C   UNL     1      49.255   5.816  18.352  0.00  0.00    +0.000 C 
ATOM     15  N   UNL     1      50.156   6.797  18.049  0.00  0.00    +0.000 N 
ATOM     16  O   UNL     1      49.055   5.507  19.521  0.00  0.00    +0.000 OA
ATOM     17  H   UNL     1      50.410   7.098  17.122  0.00  0.00    +0.000 HD
ATOM     18  H   UNL     1      50.636   7.227  18.830  0.00  0.00    +0.000 HD
ENDBRANCH  12  14
ENDBRANCH   6   8
BRANCH   1  19
ATOM     19  C   UNL     1      44.009   5.857  11.710  0.00  0.00    +0.000 C 
BRANCH  19  24
ATOM     20  C   UNL     1      46.571   4.644   7.637  0.00  0.00    +0.000 C 
ATOM     21  C   UNL     1      45.663   3.865   8.540  0.00  0.00    +0.000 A 
ATOM     22  N   UNL     1      45.078   4.525   9.581  0.00  0.00    +0.000 NA
ATOM     23  C   UNL     1      44.313   3.815  10.438  0.00  0.00    +0.000 A 
ATOM     24  N   UNL     1      43.730   4.424  11.557  0.00  0.00    +0.000 N 
ATOM     25  C   UNL     1      44.126   2.439  10.281  0.00  0.00    +0.000 A 
ATOM     26  C   UNL     1      44.719   1.775   9.209  0.00  0.00    +0.000 A 
ATOM     27  C   UNL     1      45.496   2.503   8.327  0.00  0.00    +0.000 A 
ATOM     28  F   UNL     1      46.091   1.885   7.298  0.00  0.00    +0.000 F 
ATOM     29  H   UNL     1      42.733   4.232  11.584  0.00  0.00    +0.000 HD
ENDBRANCH  19  24
ENDBRANCH   1  19
TORSDOF 4
ENDMDL
MODEL 8
REMARK VINA RESULT:    -6.237      3.339      4.902
REMARK INTER + INTRA:          -8.497
REMARK INTER:                  -7.849
REMARK INTRA:                  -0.648
REMARK UNBOUND:                -0.801
REMARK  Name = 
REMARK  5 active torsions:
REMARK  status: ('A' for Active; 'I' for Inactive)
REMARK    1  A    between atoms: C_1  and  C_2
REMARK    2  A    between atoms: N_5  and  C_6
REMARK    3  A    between atoms: C_6  and  C_7
REMARK    4  A    between atoms: C_12  and  C_13
REMARK    5  A    between atoms: C_17  and  C_18
REMARK                            x       y       z     vdW  Elec       q    Type
REMARK                         _______ _______ _______ _____ _____    ______ ____
ROOT
ATOM      1  C   UNL     1      47.546   7.666  13.215  0.00  0.00    +0.000 A 
ATOM      2  N   UNL     1      47.054   8.891  12.935  0.00  0.00    +0.000 NA
ATOM      3  C   UNL     1      45.849   8.939  12.333  0.00  0.00    +0.000 A 
ATOM      4  C   UNL     1      45.131   7.823  11.990  0.00  0.00    +0.000 A 
ATOM      5  F   UNL     1      43.938   7.949  11.393  0.00  0.00    +0.000 F 
ATOM      6  C   UNL     1      45.685   6.599  12.315  0.00  0.00    +0.000 A 
ATOM      7  N   UNL     1      46.889   6.508  12.950  0.00  0.00    +0.000 NA
ENDROOT
BRANCH   6   8
ATOM      8  C   UNL     1      45.007   5.318  12.039  0.00  0.00    +0.000 A 
ATOM      9  C   UNL     1      44.326   4.594  13.024  0.00  0.00    +0.000 A 
ATOM     10  N   UNL     1      43.728   3.394  12.831  0.00  0.00    +0.000 NA
ATOM     11  C   UNL     1      43.803   2.870  11.586  0.00  0.00    +0.000 A 
ATOM     12  C   UNL     1      44.434   3.497  10.520  0.00  0.00    +0.000 A 
ATOM     13  C   UNL     1      45.032   4.738  10.757  0.00  0.00    +0.000 A 
BRANCH  12  14
ATOM     14  C   UNL     1      44.454   2.800   9.212  0.00  0.00    +0.000 C 
ATOM     15  N   UNL     1      44.459   3.546   8.069  0.00  0.00    +0.000 N 
ATOM     16  O   UNL     1      44.472   1.575   9.146  0.00  0.00    +0.000 OA
ATOM     17  H   UNL     1      44.415   4.551   8.021  0.00  0.00    +0.000 HD
ATOM     18  H   UNL     1      44.467   3.035   7.195  0.00  0.00    +0.000 HD
ENDBRANCH  12  14
ENDBRANCH   6   8
BRANCH   1  19
ATOM     19  C   UNL     1      48.904   7.584  13.913  0.00  0.00    +0.000 C 
BRANCH  19  24
ATOM     20  C   UNL     1      52.027   7.270  10.070  0.00  0.00    +0.000 C 
ATOM     21  C   UNL     1      51.769   8.339  11.090  0.00  0.00    +0.000 A 
ATOM     22  N   UNL     1      50.841   8.086  12.058  0.00  0.00    +0.000 NA
ATOM     23  C   UNL     1      50.554   9.069  12.938  0.00  0.00    +0.000 A 
ATOM     24  N   UNL     1      49.571   8.891  13.921  0.00  0.00    +0.000 N 
ATOM     25  C   UNL     1      51.176  10.318  12.866  0.00  0.00    +0.000 A 
ATOM     26  C   UNL     1      52.130  10.563  11.881  0.00  0.00    +0.000 A 
ATOM     27  C   UNL     1      52.430   9.555  10.984  0.00  0.00    +0.000 A 
ATOM     28  F   UNL     1      53.332   9.771  10.017  0.00  0.00    +0.000 F 
ATOM     29  H   UNL     1      49.944   9.116  14.838  0.00  0.00    +0.000 HD
ENDBRANCH  19  24
ENDBRANCH   1  19
TORSDOF 4
ENDMDL
MODEL 9
REMARK VINA RESULT:    -6.122      4.458      6.404
REMARK INTER + INTRA:          -8.355
REMARK INTER:                  -7.646
REMARK INTRA:                  -0.709
REMARK UNBOUND:                -0.801
REMARK  Name = 
REMARK  5 active torsions:
REMARK  status: ('A' for Active; 'I' for Inactive)
REMARK    1  A    between atoms: C_1  and  C_2
REMARK    2  A    between atoms: N_5  and  C_6
REMARK    3  A    between atoms: C_6  and  C_7
REMARK    4  A    between atoms: C_12  and  C_13
REMARK    5  A    between atoms: C_17  and  C_18
REMARK                            x       y       z     vdW  Elec       q    Type
REMARK                         _______ _______ _______ _____ _____    ______ ____
ROOT
ATOM      1  C   UNL     1      49.089   8.394  12.404  0.00  0.00    +0.000 A 
ATOM      2  N   UNL     1      48.511   9.614  12.377  0.00  0.00    +0.000 NA
ATOM      3  C   UNL     1      47.165   9.647  12.329  0.00  0.00    +0.000 A 
ATOM      4  C   UNL     1      46.382   8.523  12.291  0.00  0.00    +0.000 A 
ATOM      5  F   UNL     1      45.047   8.635  12.244  0.00  0.00    +0.000 F 
ATOM      6  C   UNL     1      47.035   7.305  12.332  0.00  0.00    +0.000 A 
ATOM      7  N   UNL     1      48.395   7.228  12.410  0.00  0.00    +0.000 NA
ENDROOT
BRANCH   6   8
ATOM      8  C   UNL     1      46.318   6.015  12.335  0.00  0.00    +0.000 A 
ATOM      9  C   UNL     1      46.150   5.245  13.490  0.00  0.00    +0.000 A 
ATOM     10  N   UNL     1      45.541   4.035  13.536  0.00  0.00    +0.000 NA
ATOM     11  C   UNL     1      45.064   3.551  12.366  0.00  0.00    +0.000 A 
ATOM     12  C   UNL     1      45.153   4.225  11.157  0.00  0.00    +0.000 A 
ATOM     13  C   UNL     1      45.780   5.474  11.152  0.00  0.00    +0.000 A 
BRANCH  12  14
ATOM     14  C   UNL     1      44.600   3.568   9.948  0.00  0.00    +0.000 C 
ATOM     15  N   UNL     1      44.707   2.212   9.829  0.00  0.00    +0.000 N 
ATOM     16  O   UNL     1      44.050   4.220   9.067  0.00  0.00    +0.000 OA
ATOM     17  H   UNL     1      45.165   1.597  10.482  0.00  0.00    +0.000 HD
ATOM     18  H   UNL     1      44.322   1.800   8.987  0.00  0.00    +0.000 HD
ENDBRANCH  12  14
ENDBRANCH   6   8
BRANCH   1  19
ATOM     19  C   UNL     1      50.616   8.328  12.475  0.00  0.00    +0.000 C 
BRANCH  19  24
ATOM     20  C   UNL     1      52.885  10.965   8.938  0.00  0.00    +0.000 C 
ATOM     21  C   UNL     1      52.667   9.495   9.132  0.00  0.00    +0.000 A 
ATOM     22  N   UNL     1      51.955   9.094  10.224  0.00  0.00    +0.000 NA
ATOM     23  C   UNL     1      51.812   7.769  10.442  0.00  0.00    +0.000 A 
ATOM     24  N   UNL     1      51.140   7.294  11.576  0.00  0.00    +0.000 N 
ATOM     25  C   UNL     1      52.381   6.824   9.585  0.00  0.00    +0.000 A 
ATOM     26  C   UNL     1      53.098   7.242   8.466  0.00  0.00    +0.000 A 
ATOM     27  C   UNL     1      53.238   8.598   8.238  0.00  0.00    +0.000 A 
ATOM     28  F   UNL     1      53.936   9.027   7.178  0.00  0.00    +0.000 F 
ATOM     29  H   UNL     1      50.419   6.632  11.307  0.00  0.00    +0.000 HD
ENDBRANCH  19  24
ENDBRANCH   1  19
TORSDOF 4
ENDMDL
