MODEL 1
REMARK VINA RESULT:    -8.222      0.000      0.000
REMARK INTER + INTRA:         -13.409
REMARK INTER:                 -12.308
REMARK INTRA:                  -1.101
REMARK UNBOUND:                -1.101
REMARK  Name = 
REMARK  9 active torsions:
REMARK  status: ('A' for Active; 'I' for Inactive)
REMARK    1  A    between atoms: N_1  and  C_2
REMARK    2  A    between atoms: C_2  and  C_3
REMARK    3  A    between atoms: C_3  and  N_4
REMARK    4  A    between atoms: C_3  and  C_26
REMARK    5  A    between atoms: N_4  and  C_5
REMARK    6  A    between atoms: C_5  and  C_6
REMARK    7  A    between atoms: C_9  and  C_10
REMARK    8  A    between atoms: C_10  and  N_11
REMARK    9  A    between atoms: C_12  and  C_14
REMARK                            x       y       z     vdW  Elec       q    Type
REMARK                         _______ _______ _______ _____ _____    ______ ____
ROOT
ATOM      1  C   UNL     1      44.204   6.491  11.750  0.00  0.00    +0.000 A 
ATOM      2  C   UNL     1      44.588   7.778  11.384  0.00  0.00    +0.000 A 
ATOM      3  C   UNL     1      45.706   8.339  11.990  0.00  0.00    +0.000 A 
ATOM      4  C   UNL     1      46.424   7.604  12.936  0.00  0.00    +0.000 A 
ATOM      5  C   UNL     1      45.958   6.335  13.255  0.00  0.00    +0.000 A 
ATOM      6  N   UNL     1      44.883   5.765  12.673  0.00  0.00    +0.000 NA
ENDROOT
BRANCH   1   7
ATOM      7  C   UNL     1      43.044   5.807  11.056  0.00  0.00    +0.000 C 
BRANCH   7   8
ATOM      8  N   UNL     1      43.467   4.952   9.942  0.00  0.00    +0.000 NA
ATOM      9  H   UNL     1      43.920   5.531   9.234  0.00  0.00    +0.000 HD
BRANCH   8  10
ATOM     10  C   UNL     1      44.404   3.882  10.352  0.00  0.00    +0.000 C 
BRANCH  10  11
ATOM     11  C   UNL     1      45.218   3.379   9.156  0.00  0.00    +0.000 A 
ATOM     12  C   UNL     1      45.489   2.019   8.989  0.00  0.00    +0.000 A 
ATOM     13  C   UNL     1      46.290   1.611   7.926  0.00  0.00    +0.000 A 
ATOM     14  C   UNL     1      46.797   2.561   7.051  0.00  0.00    +0.000 A 
ATOM     15  C   UNL     1      46.459   3.889   7.265  0.00  0.00    +0.000 A 
ATOM     16  N   UNL     1      45.676   4.316   8.280  0.00  0.00    +0.000 NA
ENDBRANCH  10  11
BRANCH  10  17
ATOM     17  C   UNL     1      43.677   2.698  11.070  0.00  0.00    +0.000 C 
BRANCH  17  18
ATOM     18  N   UNL     1      43.899   2.602  12.516  0.00  0.00    +0.000 NA
ATOM     19  H   UNL     1      43.999   3.541  12.900  0.00  0.00    +0.000 HD
ATOM     20  H   UNL     1      44.774   2.112  12.695  0.00  0.00    +0.000 HD
ENDBRANCH  17  18
ENDBRANCH  10  17
ENDBRANCH   8  10
ENDBRANCH   7   8
ENDBRANCH   1   7
BRANCH   4  21
ATOM     21  C   UNL     1      47.628   8.160  13.628  0.00  0.00    +0.000 C 
BRANCH  21  22
ATOM     22  N   UNL     1      47.911   7.434  14.836  0.00  0.00    +0.000 N 
ATOM     23  C   UNL     1      49.163   6.973  15.149  0.00  0.00    +0.000 C 
ATOM     24  O   UNL     1      50.139   7.187  14.435  0.00  0.00    +0.000 OA
ATOM     25  H   UNL     1      47.109   7.042  15.319  0.00  0.00    +0.000 HD
BRANCH  23  26
ATOM     26  C   UNL     1      49.285   6.276  16.435  0.00  0.00    +0.000 A 
ATOM     27  C   UNL     1      50.070   6.824  17.442  0.00  0.00    +0.000 A 
ATOM     28  S   UNL     1      50.029   5.938  18.898  0.00  0.00    +0.000 S 
ATOM     29  C   UNL     1      49.006   4.760  18.217  0.00  0.00    +0.000 A 
ATOM     30  N   UNL     1      48.587   3.693  18.948  0.00  0.00    +0.000 NA
ATOM     31  C   UNL     1      47.847   2.858  18.297  0.00  0.00    +0.000 A 
ATOM     32  N   UNL     1      47.484   2.996  16.984  0.00  0.00    +0.000 N 
ATOM     33  C   UNL     1      47.836   4.085  16.224  0.00  0.00    +0.000 A 
ATOM     34  O   UNL     1      47.413   4.222  15.080  0.00  0.00    +0.000 OA
ATOM     35  C   UNL     1      48.690   5.044  16.900  0.00  0.00    +0.000 A 
ATOM     36  H   UNL     1      46.888   2.314  16.538  0.00  0.00    +0.000 HD
ENDBRANCH  23  26
ENDBRANCH  21  22
ENDBRANCH   4  21
TORSDOF 9
ENDMDL
MODEL 2
REMARK VINA RESULT:    -7.978      2.701      3.474
REMARK INTER + INTRA:         -13.043
REMARK INTER:                 -12.306
REMARK INTRA:                  -0.737
REMARK UNBOUND:                -1.101
REMARK  Name = 
REMARK  9 active torsions:
REMARK  status: ('A' for Active; 'I' for Inactive)
REMARK    1  A    between atoms: N_1  and  C_2
REMARK    2  A    between atoms: C_2  and  C_3
REMARK    3  A    between atoms: C_3  and  N_4
REMARK    4  A    between atoms: C_3  and  C_26
REMARK    5  A    between atoms: N_4  and  C_5
REMARK    6  A    between atoms: C_5  and  C_6
REMARK    7  A    between atoms: C_9  and  C_10
REMARK    8  A    between atoms: C_10  and  N_11
REMARK    9  A    between atoms: C_12  and  C_14
REMARK                            x       y       z     vdW  Elec       q    Type
REMARK                         _______ _______ _______ _____ _____    ______ ____
ROOT
ATOM      1  C   UNL     1      46.425   4.178  13.488  0.00  0.00    +0.000 A 
ATOM      2  C   UNL     1      46.845   5.416  13.007  0.00  0.00    +0.000 A 
ATOM      3  C   UNL     1      47.635   6.216  13.824  0.00  0.00    +0.000 A 
ATOM      4  C   UNL     1      48.001   5.764  15.094  0.00  0.00    +0.000 A 
ATOM      5  C   UNL     1      47.520   4.526  15.499  0.00  0.00    +0.000 A 
ATOM      6  N   UNL     1      46.762   3.726  14.722  0.00  0.00    +0.000 NA
ENDROOT
BRANCH   1   7
ATOM      7  C   UNL     1      45.634   3.236  12.604  0.00  0.00    +0.000 C 
BRANCH   7   8
ATOM      8  N   UNL     1      44.198   3.238  12.906  0.00  0.00    +0.000 NA
ATOM      9  H   UNL     1      44.025   3.870  13.688  0.00  0.00    +0.000 HD
BRANCH   8  10
ATOM     10  C   UNL     1      43.363   3.659  11.759  0.00  0.00    +0.000 C 
BRANCH  10  11
ATOM     11  C   UNL     1      44.141   3.543  10.444  0.00  0.00    +0.000 A 
ATOM     12  C   UNL     1      44.791   4.647   9.891  0.00  0.00    +0.000 A 
ATOM     13  C   UNL     1      45.428   4.515   8.659  0.00  0.00    +0.000 A 
ATOM     14  C   UNL     1      45.409   3.288   8.011  0.00  0.00    +0.000 A 
ATOM     15  C   UNL     1      44.768   2.230   8.638  0.00  0.00    +0.000 A 
ATOM     16  N   UNL     1      44.151   2.324   9.836  0.00  0.00    +0.000 NA
ENDBRANCH  10  11
BRANCH  10  17
ATOM     17  C   UNL     1      42.787   5.101  11.940  0.00  0.00    +0.000 C 
BRANCH  17  18
ATOM     18  N   UNL     1      42.637   5.554  13.327  0.00  0.00    +0.000 NA
ATOM     19  H   UNL     1      42.066   4.882  13.836  0.00  0.00    +0.000 HD
ATOM     20  H   UNL     1      42.138   6.442  13.343  0.00  0.00    +0.000 HD
ENDBRANCH  17  18
ENDBRANCH  10  17
ENDBRANCH   8  10
ENDBRANCH   7   8
ENDBRANCH   1   7
BRANCH   4  21
ATOM     21  C   UNL     1      48.840   6.587  16.019  0.00  0.00    +0.000 C 
BRANCH  21  22
ATOM     22  N   UNL     1      49.943   5.822  16.533  0.00  0.00    +0.000 N 
ATOM     23  C   UNL     1      50.007   5.393  17.833  0.00  0.00    +0.000 C 
ATOM     24  O   UNL     1      49.102   5.598  18.638  0.00  0.00    +0.000 OA
ATOM     25  H   UNL     1      50.793   5.839  15.980  0.00  0.00    +0.000 HD
BRANCH  23  26
ATOM     26  C   UNL     1      51.189   4.598  18.186  0.00  0.00    +0.000 A 
ATOM     27  C   UNL     1      52.224   5.185  18.903  0.00  0.00    +0.000 A 
ATOM     28  S   UNL     1      53.474   4.100  19.309  0.00  0.00    +0.000 S 
ATOM     29  C   UNL     1      52.704   2.820  18.493  0.00  0.00    +0.000 A 
ATOM     30  N   UNL     1      53.266   1.582  18.448  0.00  0.00    +0.000 NA
ATOM     31  C   UNL     1      52.594   0.716  17.765  0.00  0.00    +0.000 A 
ATOM     32  N   UNL     1      51.411   0.974  17.125  0.00  0.00    +0.000 N 
ATOM     33  C   UNL     1      50.779   2.192  17.190  0.00  0.00    +0.000 A 
ATOM     34  O   UNL     1      49.673   2.359  16.686  0.00  0.00    +0.000 OA
ATOM     35  C   UNL     1      51.504   3.211  17.927  0.00  0.00    +0.000 A 
ATOM     36  H   UNL     1      50.927   0.246  16.621  0.00  0.00    +0.000 HD
ENDBRANCH  23  26
ENDBRANCH  21  22
ENDBRANCH   4  21
TORSDOF 9
ENDMDL
MODEL 3
REMARK VINA RESULT:    -7.933      1.916      2.437
REMARK INTER + INTRA:         -12.976
REMARK INTER:                 -11.858
REMARK INTRA:                  -1.118
REMARK UNBOUND:                -1.101
REMARK  Name = 
REMARK  9 active torsions:
REMARK  status: ('A' for Active; 'I' for Inactive)
REMARK    1  A    between atoms: N_1  and  C_2
REMARK    2  A    between atoms: C_2  and  C_3
REMARK    3  A    between atoms: C_3  and  N_4
REMARK    4  A    between atoms: C_3  and  C_26
REMARK    5  A    between atoms: N_4  and  C_5
REMARK    6  A    between atoms: C_5  and  C_6
REMARK    7  A    between atoms: C_9  and  C_10
REMARK    8  A    between atoms: C_10  and  N_11
REMARK    9  A    between atoms: C_12  and  C_14
REMARK                            x       y       z     vdW  Elec       q    Type
REMARK                         _______ _______ _______ _____ _____    ______ ____
ROOT
ATOM      1  C   UNL     1      44.553   6.339  11.940  0.00  0.00    +0.000 A 
ATOM      2  C   UNL     1      45.347   7.402  11.517  0.00  0.00    +0.000 A 
ATOM      3  C   UNL     1      46.559   7.627  12.160  0.00  0.00    +0.000 A 
ATOM      4  C   UNL     1      46.960   6.784  13.199  0.00  0.00    +0.000 A 
ATOM      5  C   UNL     1      46.097   5.760  13.567  0.00  0.00    +0.000 A 
ATOM      6  N   UNL     1      44.922   5.515  12.953  0.00  0.00    +0.000 NA
ENDROOT
BRANCH   1   7
ATOM      7  C   UNL     1      43.266   6.003  11.216  0.00  0.00    +0.000 C 
BRANCH   7   8
ATOM      8  N   UNL     1      43.461   5.061  10.109  0.00  0.00    +0.000 NA
ATOM      9  H   UNL     1      43.870   5.560   9.318  0.00  0.00    +0.000 HD
BRANCH   8  10
ATOM     10  C   UNL     1      44.340   3.924  10.461  0.00  0.00    +0.000 C 
BRANCH  10  11
ATOM     11  C   UNL     1      45.135   3.448   9.241  0.00  0.00    +0.000 A 
ATOM     12  C   UNL     1      45.390   2.092   9.030  0.00  0.00    +0.000 A 
ATOM     13  C   UNL     1      46.176   1.708   7.946  0.00  0.00    +0.000 A 
ATOM     14  C   UNL     1      46.683   2.680   7.095  0.00  0.00    +0.000 A 
ATOM     15  C   UNL     1      46.362   4.004   7.353  0.00  0.00    +0.000 A 
ATOM     16  N   UNL     1      45.594   4.407   8.389  0.00  0.00    +0.000 NA
ENDBRANCH  10  11
BRANCH  10  17
ATOM     17  C   UNL     1      43.549   2.739  11.106  0.00  0.00    +0.000 C 
BRANCH  17  18
ATOM     18  N   UNL     1      43.858   2.464  12.513  0.00  0.00    +0.000 NA
ATOM     19  H   UNL     1      44.190   1.505  12.599  0.00  0.00    +0.000 HD
ATOM     20  H   UNL     1      43.007   2.535  13.069  0.00  0.00    +0.000 HD
ENDBRANCH  17  18
ENDBRANCH  10  17
ENDBRANCH   8  10
ENDBRANCH   7   8
ENDBRANCH   1   7
BRANCH   4  21
ATOM     21  C   UNL     1      48.248   6.985  13.933  0.00  0.00    +0.000 C 
BRANCH  21  22
ATOM     22  N   UNL     1      48.092   6.710  15.335  0.00  0.00    +0.000 N 
ATOM     23  C   UNL     1      49.146   6.397  16.152  0.00  0.00    +0.000 C 
ATOM     24  O   UNL     1      50.305   6.372  15.748  0.00  0.00    +0.000 OA
ATOM     25  H   UNL     1      47.150   6.493  15.644  0.00  0.00    +0.000 HD
BRANCH  23  26
ATOM     26  C   UNL     1      48.816   6.175  17.565  0.00  0.00    +0.000 A 
ATOM     27  C   UNL     1      49.026   4.924  18.131  0.00  0.00    +0.000 A 
ATOM     28  S   UNL     1      48.678   4.863  19.799  0.00  0.00    +0.000 S 
ATOM     29  C   UNL     1      48.181   6.491  19.811  0.00  0.00    +0.000 A 
ATOM     30  N   UNL     1      47.743   7.079  20.958  0.00  0.00    +0.000 NA
ATOM     31  C   UNL     1      47.361   8.304  20.816  0.00  0.00    +0.000 A 
ATOM     32  N   UNL     1      47.382   8.997  19.635  0.00  0.00    +0.000 N 
ATOM     33  C   UNL     1      47.868   8.463  18.466  0.00  0.00    +0.000 A 
ATOM     34  O   UNL     1      47.961   9.144  17.449  0.00  0.00    +0.000 OA
ATOM     35  C   UNL     1      48.289   7.077  18.563  0.00  0.00    +0.000 A 
ATOM     36  H   UNL     1      47.085   9.961  19.596  0.00  0.00    +0.000 HD
ENDBRANCH  23  26
ENDBRANCH  21  22
ENDBRANCH   4  21
TORSDOF 9
ENDMDL
MODEL 4
REMARK VINA RESULT:    -7.300      2.850      8.171
REMARK INTER + INTRA:         -12.029
REMARK INTER:                 -10.551
REMARK INTRA:                  -1.477
REMARK UNBOUND:                -1.101
REMARK  Name = 
REMARK  9 active torsions:
REMARK  status: ('A' for Active; 'I' for Inactive)
REMARK    1  A    between atoms: N_1  and  C_2
REMARK    2  A    between atoms: C_2  and  C_3
REMARK    3  A    between atoms: C_3  and  N_4
REMARK    4  A    between atoms: C_3  and  C_26
REMARK    5  A    between atoms: N_4  and  C_5
REMARK    6  A    between atoms: C_5  and  C_6
REMARK    7  A    between atoms: C_9  and  C_10
REMARK    8  A    between atoms: C_10  and  N_11
REMARK    9  A    between atoms: C_12  and  C_14
REMARK                            x       y       z     vdW  Elec       q    Type
REMARK                         _______ _______ _______ _____ _____    ______ ____
ROOT
ATOM      1  C   UNL     1      49.099   7.614  15.995  0.00  0.00    +0.000 A 
ATOM      2  C   UNL     1      48.443   8.786  15.626  0.00  0.00    +0.000 A 
ATOM      3  C   UNL     1      47.856   8.854  14.368  0.00  0.00    +0.000 A 
ATOM      4  C   UNL     1      47.921   7.753  13.511  0.00  0.00    +0.000 A 
ATOM      5  C   UNL     1      48.611   6.633  13.954  0.00  0.00    +0.000 A 
ATOM      6  N   UNL     1      49.181   6.538  15.173  0.00  0.00    +0.000 NA
ENDROOT
BRANCH   1   7
ATOM      7  C   UNL     1      49.681   7.462  17.385  0.00  0.00    +0.000 C 
BRANCH   7   8
ATOM      8  N   UNL     1      48.740   6.859  18.336  0.00  0.00    +0.000 NA
ATOM      9  H   UNL     1      47.889   6.596  17.838  0.00  0.00    +0.000 HD
BRANCH   8  10
ATOM     10  C   UNL     1      49.285   5.661  19.013  0.00  0.00    +0.000 C 
BRANCH  10  11
ATOM     11  C   UNL     1      49.188   4.429  18.108  0.00  0.00    +0.000 A 
ATOM     12  C   UNL     1      48.025   4.154  17.386  0.00  0.00    +0.000 A 
ATOM     13  C   UNL     1      47.953   2.987  16.630  0.00  0.00    +0.000 A 
ATOM     14  C   UNL     1      49.041   2.126  16.603  0.00  0.00    +0.000 A 
ATOM     15  C   UNL     1      50.172   2.482  17.322  0.00  0.00    +0.000 A 
ATOM     16  N   UNL     1      50.276   3.611  18.056  0.00  0.00    +0.000 NA
ENDBRANCH  10  11
BRANCH  10  17
ATOM     17  C   UNL     1      48.600   5.395  20.393  0.00  0.00    +0.000 C 
BRANCH  17  18
ATOM     18  N   UNL     1      48.524   3.988  20.801  0.00  0.00    +0.000 NA
ATOM     19  H   UNL     1      48.241   3.940  21.779  0.00  0.00    +0.000 HD
ATOM     20  H   UNL     1      49.448   3.564  20.737  0.00  0.00    +0.000 HD
ENDBRANCH  17  18
ENDBRANCH  10  17
ENDBRANCH   8  10
ENDBRANCH   7   8
ENDBRANCH   1   7
BRANCH   4  21
ATOM     21  C   UNL     1      47.316   7.774  12.143  0.00  0.00    +0.000 C 
BRANCH  21  22
ATOM     22  N   UNL     1      46.656   6.531  11.852  0.00  0.00    +0.000 N 
ATOM     23  C   UNL     1      45.293   6.415  11.771  0.00  0.00    +0.000 C 
ATOM     24  O   UNL     1      44.544   7.379  11.901  0.00  0.00    +0.000 OA
ATOM     25  H   UNL     1      47.213   5.691  11.972  0.00  0.00    +0.000 HD
BRANCH  23  26
ATOM     26  C   UNL     1      44.783   5.081  11.435  0.00  0.00    +0.000 A 
ATOM     27  C   UNL     1      44.034   4.376  12.369  0.00  0.00    +0.000 A 
ATOM     28  S   UNL     1      43.443   2.887  11.786  0.00  0.00    +0.000 S 
ATOM     29  C   UNL     1      44.214   3.105  10.284  0.00  0.00    +0.000 A 
ATOM     30  N   UNL     1      44.114   2.166   9.305  0.00  0.00    +0.000 NA
ATOM     31  C   UNL     1      44.779   2.442   8.232  0.00  0.00    +0.000 A 
ATOM     32  N   UNL     1      45.531   3.572   8.048  0.00  0.00    +0.000 N 
ATOM     33  C   UNL     1      45.614   4.572   8.986  0.00  0.00    +0.000 A 
ATOM     34  O   UNL     1      46.218   5.614   8.749  0.00  0.00    +0.000 OA
ATOM     35  C   UNL     1      44.904   4.303  10.223  0.00  0.00    +0.000 A 
ATOM     36  H   UNL     1      46.013   3.735   7.177  0.00  0.00    +0.000 HD
ENDBRANCH  23  26
ENDBRANCH  21  22
ENDBRANCH   4  21
TORSDOF 9
ENDMDL
MODEL 5
REMARK VINA RESULT:    -7.161      3.041      7.812
REMARK INTER + INTRA:         -11.821
REMARK INTER:                 -10.137
REMARK INTRA:                  -1.684
REMARK UNBOUND:                -1.101
REMARK  Name = 
REMARK  9 active torsions:
REMARK  status: ('A' for Active; 'I' for Inactive)
REMARK    1  A    between atoms: N_1  and  C_2
REMARK    2  A    between atoms: C_2  and  C_3
REMARK    3  A    between atoms: C_3  and  N_4
REMARK    4  A    between atoms: C_3  and  C_26
REMARK    5  A    between atoms: N_4  and  C_5
REMARK    6  A    between atoms: C_5  and  C_6
REMARK    7  A    between atoms: C_9  and  C_10
REMARK    8  A    between atoms: C_10  and  N_11
REMARK    9  A    between atoms: C_12  and  C_14
REMARK                            x       y       z     vdW  Elec       q    Type
REMARK                         _______ _______ _______ _____ _____    ______ ____
ROOT
ATOM      1  C   UNL     1      48.659   7.940  16.169  0.00  0.00    +0.000 A 
ATOM      2  C   UNL     1      49.105   6.840  15.441  0.00  0.00    +0.000 A 
ATOM      3  C   UNL     1      49.010   6.874  14.055  0.00  0.00    +0.000 A 
ATOM      4  C   UNL     1      48.486   8.004  13.423  0.00  0.00    +0.000 A 
ATOM      5  C   UNL     1      48.049   9.047  14.228  0.00  0.00    +0.000 A 
ATOM      6  N   UNL     1      48.140   9.043  15.573  0.00  0.00    +0.000 NA
ENDROOT
BRANCH   1   7
ATOM      7  C   UNL     1      48.820   7.984  17.675  0.00  0.00    +0.000 C 
BRANCH   7   8
ATOM      8  N   UNL     1      47.864   7.121  18.378  0.00  0.00    +0.000 NA
ATOM      9  H   UNL     1      47.212   6.728  17.699  0.00  0.00    +0.000 HD
BRANCH   8  10
ATOM     10  C   UNL     1      48.512   6.012  19.113  0.00  0.00    +0.000 C 
BRANCH  10  11
ATOM     11  C   UNL     1      48.584   4.750  18.248  0.00  0.00    +0.000 A 
ATOM     12  C   UNL     1      47.497   4.347  17.469  0.00  0.00    +0.000 A 
ATOM     13  C   UNL     1      47.579   3.156  16.751  0.00  0.00    +0.000 A 
ATOM     14  C   UNL     1      48.740   2.399  16.820  0.00  0.00    +0.000 A 
ATOM     15  C   UNL     1      49.787   2.880  17.591  0.00  0.00    +0.000 A 
ATOM     16  N   UNL     1      49.742   4.035  18.290  0.00  0.00    +0.000 NA
ENDBRANCH  10  11
BRANCH  10  17
ATOM     17  C   UNL     1      47.811   5.714  20.478  0.00  0.00    +0.000 C 
BRANCH  17  18
ATOM     18  N   UNL     1      48.160   4.433  21.103  0.00  0.00    +0.000 NA
ATOM     19  H   UNL     1      48.748   4.609  21.915  0.00  0.00    +0.000 HD
ATOM     20  H   UNL     1      48.710   3.875  20.451  0.00  0.00    +0.000 HD
ENDBRANCH  17  18
ENDBRANCH  10  17
ENDBRANCH   8  10
ENDBRANCH   7   8
ENDBRANCH   1   7
BRANCH   4  21
ATOM     21  C   UNL     1      48.351   8.092  11.936  0.00  0.00    +0.000 C 
BRANCH  21  22
ATOM     22  N   UNL     1      47.594   6.984  11.420  0.00  0.00    +0.000 N 
ATOM     23  C   UNL     1      46.225   6.982  11.363  0.00  0.00    +0.000 C 
ATOM     24  O   UNL     1      45.552   7.949  11.711  0.00  0.00    +0.000 OA
ATOM     25  H   UNL     1      48.089   6.101  11.349  0.00  0.00    +0.000 HD
BRANCH  23  26
ATOM     26  C   UNL     1      45.610   5.783  10.781  0.00  0.00    +0.000 A 
ATOM     27  C   UNL     1      45.761   5.524   9.425  0.00  0.00    +0.000 A 
ATOM     28  S   UNL     1      45.064   4.048   8.931  0.00  0.00    +0.000 S 
ATOM     29  C   UNL     1      44.488   3.731  10.501  0.00  0.00    +0.000 A 
ATOM     30  N   UNL     1      43.781   2.600  10.770  0.00  0.00    +0.000 NA
ATOM     31  C   UNL     1      43.373   2.505  11.992  0.00  0.00    +0.000 A 
ATOM     32  N   UNL     1      43.610   3.435  12.969  0.00  0.00    +0.000 N 
ATOM     33  C   UNL     1      44.366   4.562  12.757  0.00  0.00    +0.000 A 
ATOM     34  O   UNL     1      44.639   5.324  13.680  0.00  0.00    +0.000 OA
ATOM     35  C   UNL     1      44.831   4.731  11.393  0.00  0.00    +0.000 A 
ATOM     36  H   UNL     1      43.277   3.291  13.911  0.00  0.00    +0.000 HD
ENDBRANCH  23  26
ENDBRANCH  21  22
ENDBRANCH   4  21
TORSDOF 9
ENDMDL
MODEL 6
REMARK VINA RESULT:    -6.894      4.785      9.881
REMARK INTER + INTRA:         -11.421
REMARK INTER:                 -10.355
REMARK INTRA:                  -1.065
REMARK UNBOUND:                -1.101
REMARK  Name = 
REMARK  9 active torsions:
REMARK  status: ('A' for Active; 'I' for Inactive)
REMARK    1  A    between atoms: N_1  and  C_2
REMARK    2  A    between atoms: C_2  and  C_3
REMARK    3  A    between atoms: C_3  and  N_4
REMARK    4  A    between atoms: C_3  and  C_26
REMARK    5  A    between atoms: N_4  and  C_5
REMARK    6  A    between atoms: C_5  and  C_6
REMARK    7  A    between atoms: C_9  and  C_10
REMARK    8  A    between atoms: C_10  and  N_11
REMARK    9  A    between atoms: C_12  and  C_14
REMARK                            x       y       z     vdW  Elec       q    Type
REMARK                         _______ _______ _______ _____ _____    ______ ____
ROOT
ATOM      1  C   UNL     1      51.291   3.096  17.496  0.00  0.00    +0.000 A 
ATOM      2  C   UNL     1      50.669   4.302  17.810  0.00  0.00    +0.000 A 
ATOM      3  C   UNL     1      49.297   4.415  17.620  0.00  0.00    +0.000 A 
ATOM      4  C   UNL     1      48.571   3.324  17.135  0.00  0.00    +0.000 A 
ATOM      5  C   UNL     1      49.276   2.167  16.831  0.00  0.00    +0.000 A 
ATOM      6  N   UNL     1      50.604   2.029  17.016  0.00  0.00    +0.000 NA
ENDROOT
BRANCH   1   7
ATOM      7  C   UNL     1      52.768   2.898  17.766  0.00  0.00    +0.000 C 
BRANCH   7   8
ATOM      8  N   UNL     1      53.046   1.709  18.579  0.00  0.00    +0.000 NA
ATOM      9  H   UNL     1      52.440   0.948  18.271  0.00  0.00    +0.000 HD
BRANCH   8  10
ATOM     10  C   UNL     1      54.454   1.262  18.492  0.00  0.00    +0.000 C 
BRANCH  10  11
ATOM     11  C   UNL     1      54.539  -0.265  18.399  0.00  0.00    +0.000 A 
ATOM     12  C   UNL     1      54.914  -0.895  17.211  0.00  0.00    +0.000 A 
ATOM     13  C   UNL     1      54.911  -2.287  17.149  0.00  0.00    +0.000 A 
ATOM     14  C   UNL     1      54.543  -3.017  18.269  0.00  0.00    +0.000 A 
ATOM     15  C   UNL     1      54.212  -2.320  19.422  0.00  0.00    +0.000 A 
ATOM     16  N   UNL     1      54.215  -0.973  19.517  0.00  0.00    +0.000 NA
ENDBRANCH  10  11
BRANCH  10  17
ATOM     17  C   UNL     1      55.323   1.797  19.678  0.00  0.00    +0.000 C 
BRANCH  17  18
ATOM     18  N   UNL     1      54.691   1.744  21.000  0.00  0.00    +0.000 NA
ATOM     19  H   UNL     1      55.054   0.942  21.511  0.00  0.00    +0.000 HD
ATOM     20  H   UNL     1      53.687   1.600  20.892  0.00  0.00    +0.000 HD
ENDBRANCH  17  18
ENDBRANCH  10  17
ENDBRANCH   8  10
ENDBRANCH   7   8
ENDBRANCH   1   7
BRANCH   4  21
ATOM     21  C   UNL     1      47.095   3.391  16.901  0.00  0.00    +0.000 C 
BRANCH  21  22
ATOM     22  N   UNL     1      46.775   4.380  15.908  0.00  0.00    +0.000 N 
ATOM     23  C   UNL     1      46.900   4.150  14.563  0.00  0.00    +0.000 C 
ATOM     24  O   UNL     1      47.255   3.064  14.114  0.00  0.00    +0.000 OA
ATOM     25  H   UNL     1      46.710   5.338  16.237  0.00  0.00    +0.000 HD
BRANCH  23  26
ATOM     26  C   UNL     1      46.502   5.256  13.685  0.00  0.00    +0.000 A 
ATOM     27  C   UNL     1      47.389   6.298  13.447  0.00  0.00    +0.000 A 
ATOM     28  S   UNL     1      46.805   7.450  12.334  0.00  0.00    +0.000 S 
ATOM     29  C   UNL     1      45.323   6.627  12.175  0.00  0.00    +0.000 A 
ATOM     30  N   UNL     1      44.346   7.102  11.356  0.00  0.00    +0.000 NA
ATOM     31  C   UNL     1      43.261   6.401  11.359  0.00  0.00    +0.000 A 
ATOM     32  N   UNL     1      43.066   5.267  12.103  0.00  0.00    +0.000 N 
ATOM     33  C   UNL     1      44.044   4.721  12.899  0.00  0.00    +0.000 A 
ATOM     34  O   UNL     1      43.867   3.652  13.475  0.00  0.00    +0.000 OA
ATOM     35  C   UNL     1      45.278   5.483  12.951  0.00  0.00    +0.000 A 
ATOM     36  H   UNL     1      42.198   4.755  12.047  0.00  0.00    +0.000 HD
ENDBRANCH  23  26
ENDBRANCH  21  22
ENDBRANCH   4  21
TORSDOF 9
ENDMDL
MODEL 7
REMARK VINA RESULT:    -6.771      4.930      9.882
REMARK INTER + INTRA:         -11.236
REMARK INTER:                  -9.864
REMARK INTRA:                  -1.372
REMARK UNBOUND:                -1.101
REMARK  Name = 
REMARK  9 active torsions:
REMARK  status: ('A' for Active; 'I' for Inactive)
REMARK    1  A    between atoms: N_1  and  C_2
REMARK    2  A    between atoms: C_2  and  C_3
REMARK    3  A    between atoms: C_3  and  N_4
REMARK    4  A    between atoms: C_3  and  C_26
REMARK    5  A    between atoms: N_4  and  C_5
REMARK    6  A    between atoms: C_5  and  C_6
REMARK    7  A    between atoms: C_9  and  C_10
REMARK    8  A    between atoms: C_10  and  N_11
REMARK    9  A    between atoms: C_12  and  C_14
REMARK                            x       y       z     vdW  Elec       q    Type
REMARK                         _______ _______ _______ _____ _____    ______ ____
ROOT
ATOM      1  C   UNL     1      51.244   2.703  17.538  0.00  0.00    +0.000 A 
ATOM      2  C   UNL     1      50.772   3.942  17.963  0.00  0.00    +0.000 A 
ATOM      3  C   UNL     1      49.443   4.269  17.721  0.00  0.00    +0.000 A 
ATOM      4  C   UNL     1      48.609   3.353  17.077  0.00  0.00    +0.000 A 
ATOM      5  C   UNL     1      49.169   2.148  16.672  0.00  0.00    +0.000 A 
ATOM      6  N   UNL     1      50.451   1.803  16.903  0.00  0.00    +0.000 NA
ENDROOT
BRANCH   1   7
ATOM      7  C   UNL     1      52.660   2.268  17.853  0.00  0.00    +0.000 C 
BRANCH   7   8
ATOM      8  N   UNL     1      52.746   0.871  18.292  0.00  0.00    +0.000 NA
ATOM      9  H   UNL     1      52.125   0.304  17.715  0.00  0.00    +0.000 HD
BRANCH   8  10
ATOM     10  C   UNL     1      54.115   0.317  18.206  0.00  0.00    +0.000 C 
BRANCH  10  11
ATOM     11  C   UNL     1      54.110  -1.195  18.450  0.00  0.00    +0.000 A 
ATOM     12  C   UNL     1      54.862  -2.058  17.649  0.00  0.00    +0.000 A 
ATOM     13  C   UNL     1      54.775  -3.431  17.861  0.00  0.00    +0.000 A 
ATOM     14  C   UNL     1      53.950  -3.914  18.867  0.00  0.00    +0.000 A 
ATOM     15  C   UNL     1      53.258  -2.994  19.640  0.00  0.00    +0.000 A 
ATOM     16  N   UNL     1      53.329  -1.656  19.467  0.00  0.00    +0.000 NA
ENDBRANCH  10  11
BRANCH  10  17
ATOM     17  C   UNL     1      55.110   1.035  19.177  0.00  0.00    +0.000 C 
BRANCH  17  18
ATOM     18  N   UNL     1      54.953   0.710  20.598  0.00  0.00    +0.000 NA
ATOM     19  H   UNL     1      53.962   0.604  20.808  0.00  0.00    +0.000 HD
ATOM     20  H   UNL     1      55.297   1.484  21.165  0.00  0.00    +0.000 HD
ENDBRANCH  17  18
ENDBRANCH  10  17
ENDBRANCH   8  10
ENDBRANCH   7   8
ENDBRANCH   1   7
BRANCH   4  21
ATOM     21  C   UNL     1      47.174   3.655  16.782  0.00  0.00    +0.000 C 
BRANCH  21  22
ATOM     22  N   UNL     1      47.057   4.644  15.746  0.00  0.00    +0.000 N 
ATOM     23  C   UNL     1      47.085   4.329  14.412  0.00  0.00    +0.000 C 
ATOM     24  O   UNL     1      47.169   3.171  14.013  0.00  0.00    +0.000 OA
ATOM     25  H   UNL     1      47.223   5.605  16.026  0.00  0.00    +0.000 HD
BRANCH  23  26
ATOM     26  C   UNL     1      46.922   5.456  13.486  0.00  0.00    +0.000 A 
ATOM     27  C   UNL     1      45.863   5.460  12.587  0.00  0.00    +0.000 A 
ATOM     28  S   UNL     1      45.769   6.881  11.650  0.00  0.00    +0.000 S 
ATOM     29  C   UNL     1      47.173   7.517  12.372  0.00  0.00    +0.000 A 
ATOM     30  N   UNL     1      47.657   8.734  12.005  0.00  0.00    +0.000 NA
ATOM     31  C   UNL     1      48.748   9.077  12.604  0.00  0.00    +0.000 A 
ATOM     32  N   UNL     1      49.397   8.316  13.540  0.00  0.00    +0.000 N 
ATOM     33  C   UNL     1      48.915   7.108  13.983  0.00  0.00    +0.000 A 
ATOM     34  O   UNL     1      49.471   6.499  14.892  0.00  0.00    +0.000 OA
ATOM     35  C   UNL     1      47.701   6.663  13.323  0.00  0.00    +0.000 A 
ATOM     36  H   UNL     1      50.239   8.651  13.985  0.00  0.00    +0.000 HD
ENDBRANCH  23  26
ENDBRANCH  21  22
ENDBRANCH   4  21
TORSDOF 9
ENDMDL
MODEL 8
REMARK VINA RESULT:    -6.727      3.248      5.446
REMARK INTER + INTRA:         -11.171
REMARK INTER:                 -10.169
REMARK INTRA:                  -1.002
REMARK UNBOUND:                -1.101
REMARK  Name = 
REMARK  9 active torsions:
REMARK  status: ('A' for Active; 'I' for Inactive)
REMARK    1  A    between atoms: N_1  and  C_2
REMARK    2  A    between atoms: C_2  and  C_3
REMARK    3  A    between atoms: C_3  and  N_4
REMARK    4  A    between atoms: C_3  and  C_26
REMARK    5  A    between atoms: N_4  and  C_5
REMARK    6  A    between atoms: C_5  and  C_6
REMARK    7  A    between atoms: C_9  and  C_10
REMARK    8  A    between atoms: C_10  and  N_11
REMARK    9  A    between atoms: C_12  and  C_14
REMARK                            x       y       z     vdW  Elec       q    Type
REMARK                         _______ _______ _______ _____ _____    ______ ____
ROOT
ATOM      1  C   UNL     1      47.880   6.158  14.641  0.00  0.00    +0.000 A 
ATOM      2  C   UNL     1      47.178   4.968  14.467  0.00  0.00    +0.000 A 
ATOM      3  C   UNL     1      47.240   4.005  15.467  0.00  0.00    +0.000 A 
ATOM      4  C   UNL     1      47.986   4.250  16.622  0.00  0.00    +0.000 A 
ATOM      5  C   UNL     1      48.668   5.457  16.703  0.00  0.00    +0.000 A 
ATOM      6  N   UNL     1      48.616   6.411  15.752  0.00  0.00    +0.000 NA
ENDROOT
BRANCH   1   7
ATOM      7  C   UNL     1      47.775   7.271  13.618  0.00  0.00    +0.000 C 
BRANCH   7   8
ATOM      8  N   UNL     1      47.052   6.868  12.407  0.00  0.00    +0.000 NA
ATOM      9  H   UNL     1      47.236   5.881  12.225  0.00  0.00    +0.000 HD
BRANCH   8  10
ATOM     10  C   UNL     1      45.590   7.070  12.508  0.00  0.00    +0.000 C 
BRANCH  10  11
ATOM     11  C   UNL     1      44.833   5.800  12.104  0.00  0.00    +0.000 A 
ATOM     12  C   UNL     1      45.252   5.024  11.022  0.00  0.00    +0.000 A 
ATOM     13  C   UNL     1      44.496   3.916  10.647  0.00  0.00    +0.000 A 
ATOM     14  C   UNL     1      43.347   3.603  11.359  0.00  0.00    +0.000 A 
ATOM     15  C   UNL     1      43.012   4.405  12.440  0.00  0.00    +0.000 A 
ATOM     16  N   UNL     1      43.730   5.479  12.836  0.00  0.00    +0.000 NA
ENDBRANCH  10  11
BRANCH  10  17
ATOM     17  C   UNL     1      45.100   8.299  11.674  0.00  0.00    +0.000 C 
BRANCH  17  18
ATOM     18  N   UNL     1      43.729   8.210  11.160  0.00  0.00    +0.000 NA
ATOM     19  H   UNL     1      43.312   9.140  11.163  0.00  0.00    +0.000 HD
ATOM     20  H   UNL     1      43.169   7.630  11.783  0.00  0.00    +0.000 HD
ENDBRANCH  17  18
ENDBRANCH  10  17
ENDBRANCH   8  10
ENDBRANCH   7   8
ENDBRANCH   1   7
BRANCH   4  21
ATOM     21  C   UNL     1      48.096   3.246  17.726  0.00  0.00    +0.000 C 
BRANCH  21  22
ATOM     22  N   UNL     1      49.470   2.917  17.988  0.00  0.00    +0.000 N 
ATOM     23  C   UNL     1      50.222   2.142  17.143  0.00  0.00    +0.000 C 
ATOM     24  O   UNL     1      49.782   1.711  16.081  0.00  0.00    +0.000 OA
ATOM     25  H   UNL     1      49.787   3.050  18.942  0.00  0.00    +0.000 HD
BRANCH  23  26
ATOM     26  C   UNL     1      51.617   1.926  17.545  0.00  0.00    +0.000 A 
ATOM     27  C   UNL     1      52.089   0.632  17.720  0.00  0.00    +0.000 A 
ATOM     28  S   UNL     1      53.751   0.557  18.096  0.00  0.00    +0.000 S 
ATOM     29  C   UNL     1      53.885   2.254  18.093  0.00  0.00    +0.000 A 
ATOM     30  N   UNL     1      55.074   2.861  18.357  0.00  0.00    +0.000 NA
ATOM     31  C   UNL     1      55.024   4.151  18.359  0.00  0.00    +0.000 A 
ATOM     32  N   UNL     1      53.896   4.890  18.119  0.00  0.00    +0.000 N 
ATOM     33  C   UNL     1      52.689   4.322  17.793  0.00  0.00    +0.000 A 
ATOM     34  O   UNL     1      51.723   5.016  17.489  0.00  0.00    +0.000 OA
ATOM     35  C   UNL     1      52.682   2.870  17.799  0.00  0.00    +0.000 A 
ATOM     36  H   UNL     1      53.929   5.899  18.119  0.00  0.00    +0.000 HD
ENDBRANCH  23  26
ENDBRANCH  21  22
ENDBRANCH   4  21
TORSDOF 9
ENDMDL
MODEL 9
REMARK VINA RESULT:    -6.372      4.026      9.534
REMARK INTER + INTRA:         -10.640
REMARK INTER:                  -9.656
REMARK INTRA:                  -0.983
REMARK UNBOUND:                -1.101
REMARK  Name = 
REMARK  9 active torsions:
REMARK  status: ('A' for Active; 'I' for Inactive)
REMARK    1  A    between atoms: N_1  and  C_2
REMARK    2  A    between atoms: C_2  and  C_3
REMARK    3  A    between atoms: C_3  and  N_4
REMARK    4  A    between atoms: C_3  and  C_26
REMARK    5  A    between atoms: N_4  and  C_5
REMARK    6  A    between atoms: C_5  and  C_6
REMARK    7  A    between atoms: C_9  and  C_10
REMARK    8  A    between atoms: C_10  and  N_11
REMARK    9  A    between atoms: C_12  and  C_14
REMARK                            x       y       z     vdW  Elec       q    Type
REMARK                         _______ _______ _______ _____ _____    ______ ____
ROOT
ATOM      1  C   UNL     1      51.249   2.608  17.507  0.00  0.00    +0.000 A 
ATOM      2  C   UNL     1      50.766   3.816  18.004  0.00  0.00    +0.000 A 
ATOM      3  C   UNL     1      49.428   4.133  17.805  0.00  0.00    +0.000 A 
ATOM      4  C   UNL     1      48.596   3.237  17.129  0.00  0.00    +0.000 A 
ATOM      5  C   UNL     1      49.166   2.065  16.652  0.00  0.00    +0.000 A 
ATOM      6  N   UNL     1      50.458   1.730  16.840  0.00  0.00    +0.000 NA
ENDROOT
BRANCH   1   7
ATOM      7  C   UNL     1      52.678   2.182  17.772  0.00  0.00    +0.000 C 
BRANCH   7   8
ATOM      8  N   UNL     1      53.148   2.557  19.110  0.00  0.00    +0.000 NA
ATOM      9  H   UNL     1      53.082   1.745  19.723  0.00  0.00    +0.000 HD
BRANCH   8  10
ATOM     10  C   UNL     1      54.543   3.051  19.119  0.00  0.00    +0.000 C 
BRANCH  10  11
ATOM     11  C   UNL     1      54.771   4.070  17.998  0.00  0.00    +0.000 A 
ATOM     12  C   UNL     1      54.134   5.312  18.012  0.00  0.00    +0.000 A 
ATOM     13  C   UNL     1      54.314   6.181  16.939  0.00  0.00    +0.000 A 
ATOM     14  C   UNL     1      55.129   5.798  15.883  0.00  0.00    +0.000 A 
ATOM     15  C   UNL     1      55.751   4.561  15.955  0.00  0.00    +0.000 A 
ATOM     16  N   UNL     1      55.605   3.701  16.987  0.00  0.00    +0.000 NA
ENDBRANCH  10  11
BRANCH  10  17
ATOM     17  C   UNL     1      55.586   1.888  19.037  0.00  0.00    +0.000 C 
BRANCH  17  18
ATOM     18  N   UNL     1      55.218   0.656  19.741  0.00  0.00    +0.000 NA
ATOM     19  H   UNL     1      56.036   0.051  19.803  0.00  0.00    +0.000 HD
ATOM     20  H   UNL     1      54.515   0.152  19.202  0.00  0.00    +0.000 HD
ENDBRANCH  17  18
ENDBRANCH  10  17
ENDBRANCH   8  10
ENDBRANCH   7   8
ENDBRANCH   1   7
BRANCH   4  21
ATOM     21  C   UNL     1      47.151   3.530  16.878  0.00  0.00    +0.000 C 
BRANCH  21  22
ATOM     22  N   UNL     1      46.997   4.540  15.867  0.00  0.00    +0.000 N 
ATOM     23  C   UNL     1      47.013   4.258  14.526  0.00  0.00    +0.000 C 
ATOM     24  O   UNL     1      47.117   3.112  14.098  0.00  0.00    +0.000 OA
ATOM     25  H   UNL     1      47.145   5.498  16.168  0.00  0.00    +0.000 HD
BRANCH  23  26
ATOM     26  C   UNL     1      46.812   5.402  13.629  0.00  0.00    +0.000 A 
ATOM     27  C   UNL     1      47.872   6.258  13.360  0.00  0.00    +0.000 A 
ATOM     28  S   UNL     1      47.494   7.477  12.229  0.00  0.00    +0.000 S 
ATOM     29  C   UNL     1      45.884   6.938  12.103  0.00  0.00    +0.000 A 
ATOM     30  N   UNL     1      44.999   7.569  11.285  0.00  0.00    +0.000 NA
ATOM     31  C   UNL     1      43.804   7.080  11.314  0.00  0.00    +0.000 A 
ATOM     32  N   UNL     1      43.415   6.015  12.084  0.00  0.00    +0.000 N 
ATOM     33  C   UNL     1      44.287   5.313  12.880  0.00  0.00    +0.000 A 
ATOM     34  O   UNL     1      43.925   4.306  13.481  0.00  0.00    +0.000 OA
ATOM     35  C   UNL     1      45.640   5.836  12.903  0.00  0.00    +0.000 A 
ATOM     36  H   UNL     1      42.467   5.671  12.047  0.00  0.00    +0.000 HD
ENDBRANCH  23  26
ENDBRANCH  21  22
ENDBRANCH   4  21
TORSDOF 9
ENDMDL
