MODEL 1
REMARK VINA RESULT:    -9.253      0.000      0.000
REMARK INTER + INTRA:         -12.520
REMARK INTER:                 -11.957
REMARK INTRA:                  -0.563
REMARK UNBOUND:                -0.563
REMARK  Name = 
REMARK  5 active torsions:
REMARK  status: ('A' for Active; 'I' for Inactive)
REMARK    1  A    between atoms: C_2  and  C_4
REMARK    2  A    between atoms: N_8  and  C_9
REMARK    3  A    between atoms: C_9  and  C_10
REMARK    4  A    between atoms: C_10  and  C_11
REMARK    5  A    between atoms: C_15  and  C_16
REMARK                            x       y       z     vdW  Elec       q    Type
REMARK                         _______ _______ _______ _____ _____    ______ ____
ROOT
ATOM      1  C   UNL     1      43.404   4.421  11.303  0.00  0.00    +0.000 C 
ENDROOT
BRANCH   1   6
ATOM      2  C   UNL     1      46.454   2.447   7.758  0.00  0.00    +0.000 A 
ATOM      3  C   UNL     1      45.678   1.804   8.716  0.00  0.00    +0.000 A 
ATOM      4  C   UNL     1      44.776   2.553   9.472  0.00  0.00    +0.000 A 
ATOM      5  C   UNL     1      44.682   3.927   9.275  0.00  0.00    +0.000 A 
ATOM      6  N   UNL     1      43.742   4.722   9.915  0.00  0.00    +0.000 N 
ATOM      7  N   UNL     1      45.459   4.566   8.378  0.00  0.00    +0.000 NA
ATOM      8  C   UNL     1      46.331   3.822   7.646  0.00  0.00    +0.000 A 
ATOM      9  H   UNL     1      43.999   5.687   9.718  0.00  0.00    +0.000 HD
BRANCH   2  11
ATOM     10  N   UNL     1      48.471   2.422   6.410  0.00  0.00    +0.000 N 
ATOM     11  C   UNL     1      47.381   1.725   6.862  0.00  0.00    +0.000 C 
ATOM     12  O   UNL     1      47.212   0.551   6.573  0.00  0.00    +0.000 OA
ATOM     13  H   UNL     1      49.162   1.889   5.896  0.00  0.00    +0.000 HD
ATOM     14  H   UNL     1      48.772   3.290   6.828  0.00  0.00    +0.000 HD
ENDBRANCH   2  11
ENDBRANCH   1   6
BRANCH   1  15
ATOM     15  C   UNL     1      43.608   5.656  12.184  0.00  0.00    +0.000 C 
BRANCH  15  16
ATOM     16  C   UNL     1      45.070   5.969  12.405  0.00  0.00    +0.000 A 
ATOM     17  C   UNL     1      45.776   6.683  11.443  0.00  0.00    +0.000 A 
ATOM     18  C   UNL     1      47.124   6.938  11.655  0.00  0.00    +0.000 A 
ATOM     19  C   UNL     1      47.733   6.469  12.813  0.00  0.00    +0.000 A 
ATOM     20  C   UNL     1      46.981   5.748  13.739  0.00  0.00    +0.000 A 
ATOM     21  N   UNL     1      45.662   5.491  13.530  0.00  0.00    +0.000 NA
BRANCH  20  22
ATOM     22  C   UNL     1      47.560   5.194  14.976  0.00  0.00    +0.000 A 
ATOM     23  C   UNL     1      48.643   5.808  15.614  0.00  0.00    +0.000 A 
ATOM     24  N   UNL     1      49.203   5.395  16.785  0.00  0.00    +0.000 NA
ATOM     25  C   UNL     1      48.660   4.298  17.355  0.00  0.00    +0.000 A 
ATOM     26  C   UNL     1      47.608   3.599  16.798  0.00  0.00    +0.000 A 
ATOM     27  F   UNL     1      47.112   2.512  17.402  0.00  0.00    +0.000 F 
ATOM     28  C   UNL     1      47.058   4.041  15.601  0.00  0.00    +0.000 A 
ENDBRANCH  20  22
ENDBRANCH  15  16
ENDBRANCH   1  15
TORSDOF 5
ENDMDL
MODEL 2
REMARK VINA RESULT:    -9.087      2.714      3.979
REMARK INTER + INTRA:         -12.306
REMARK INTER:                 -11.481
REMARK INTRA:                  -0.825
REMARK UNBOUND:                -0.563
REMARK  Name = 
REMARK  5 active torsions:
REMARK  status: ('A' for Active; 'I' for Inactive)
REMARK    1  A    between atoms: C_2  and  C_4
REMARK    2  A    between atoms: N_8  and  C_9
REMARK    3  A    between atoms: C_9  and  C_10
REMARK    4  A    between atoms: C_10  and  C_11
REMARK    5  A    between atoms: C_15  and  C_16
REMARK                            x       y       z     vdW  Elec       q    Type
REMARK                         _______ _______ _______ _____ _____    ______ ____
ROOT
ATOM      1  C   UNL     1      43.286   4.424  11.173  0.00  0.00    +0.000 C 
ENDROOT
BRANCH   1   6
ATOM      2  C   UNL     1      46.485   2.525   7.720  0.00  0.00    +0.000 A 
ATOM      3  C   UNL     1      45.620   1.862   8.584  0.00  0.00    +0.000 A 
ATOM      4  C   UNL     1      44.701   2.606   9.325  0.00  0.00    +0.000 A 
ATOM      5  C   UNL     1      44.677   3.993   9.207  0.00  0.00    +0.000 A 
ATOM      6  N   UNL     1      43.729   4.790   9.832  0.00  0.00    +0.000 N 
ATOM      7  N   UNL     1      45.539   4.647   8.403  0.00  0.00    +0.000 NA
ATOM      8  C   UNL     1      46.427   3.908   7.685  0.00  0.00    +0.000 A 
ATOM      9  H   UNL     1      44.039   5.753   9.711  0.00  0.00    +0.000 HD
BRANCH   2  11
ATOM     10  N   UNL     1      48.538   2.521   6.428  0.00  0.00    +0.000 N 
ATOM     11  C   UNL     1      47.440   1.815   6.844  0.00  0.00    +0.000 C 
ATOM     12  O   UNL     1      47.285   0.643   6.541  0.00  0.00    +0.000 OA
ATOM     13  H   UNL     1      49.246   1.996   5.928  0.00  0.00    +0.000 HD
ATOM     14  H   UNL     1      48.823   3.387   6.861  0.00  0.00    +0.000 HD
ENDBRANCH   2  11
ENDBRANCH   1   6
BRANCH   1  15
ATOM     15  C   UNL     1      43.508   5.585  12.146  0.00  0.00    +0.000 C 
BRANCH  15  16
ATOM     16  C   UNL     1      44.947   5.691  12.597  0.00  0.00    +0.000 A 
ATOM     17  C   UNL     1      45.487   4.705  13.416  0.00  0.00    +0.000 A 
ATOM     18  C   UNL     1      46.803   4.835  13.839  0.00  0.00    +0.000 A 
ATOM     19  C   UNL     1      47.541   5.944  13.442  0.00  0.00    +0.000 A 
ATOM     20  C   UNL     1      46.946   6.908  12.630  0.00  0.00    +0.000 A 
ATOM     21  N   UNL     1      45.655   6.786  12.220  0.00  0.00    +0.000 NA
BRANCH  20  22
ATOM     22  C   UNL     1      47.653   8.124  12.190  0.00  0.00    +0.000 A 
ATOM     23  C   UNL     1      47.034   9.380  12.218  0.00  0.00    +0.000 A 
ATOM     24  N   UNL     1      47.629  10.557  11.882  0.00  0.00    +0.000 NA
ATOM     25  C   UNL     1      48.917  10.485  11.483  0.00  0.00    +0.000 A 
ATOM     26  C   UNL     1      49.615   9.298  11.391  0.00  0.00    +0.000 A 
ATOM     27  F   UNL     1      50.889   9.283  10.981  0.00  0.00    +0.000 F 
ATOM     28  C   UNL     1      48.982   8.111  11.738  0.00  0.00    +0.000 A 
ENDBRANCH  20  22
ENDBRANCH  15  16
ENDBRANCH   1  15
TORSDOF 5
ENDMDL
MODEL 3
REMARK VINA RESULT:    -8.131      2.553      3.155
REMARK INTER + INTRA:         -11.071
REMARK INTER:                 -10.236
REMARK INTRA:                  -0.835
REMARK UNBOUND:                -0.563
REMARK  Name = 
REMARK  5 active torsions:
REMARK  status: ('A' for Active; 'I' for Inactive)
REMARK    1  A    between atoms: C_2  and  C_4
REMARK    2  A    between atoms: N_8  and  C_9
REMARK    3  A    between atoms: C_9  and  C_10
REMARK    4  A    between atoms: C_10  and  C_11
REMARK    5  A    between atoms: C_15  and  C_16
REMARK                            x       y       z     vdW  Elec       q    Type
REMARK                         _______ _______ _______ _____ _____    ______ ____
ROOT
ATOM      1  C   UNL     1      43.493   5.156  10.899  0.00  0.00    +0.000 C 
ENDROOT
BRANCH   1   6
ATOM      2  C   UNL     1      46.255   2.044   7.992  0.00  0.00    +0.000 A 
ATOM      3  C   UNL     1      45.470   1.753   9.102  0.00  0.00    +0.000 A 
ATOM      4  C   UNL     1      44.655   2.752   9.636  0.00  0.00    +0.000 A 
ATOM      5  C   UNL     1      44.654   4.022   9.068  0.00  0.00    +0.000 A 
ATOM      6  N   UNL     1      43.800   5.035   9.477  0.00  0.00    +0.000 N 
ATOM      7  N   UNL     1      45.442   4.325   8.016  0.00  0.00    +0.000 NA
ATOM      8  C   UNL     1      46.229   3.340   7.505  0.00  0.00    +0.000 A 
ATOM      9  H   UNL     1      44.120   5.885   9.016  0.00  0.00    +0.000 HD
BRANCH   2  11
ATOM     10  N   UNL     1      46.794  -0.283   7.567  0.00  0.00    +0.000 N 
ATOM     11  C   UNL     1      47.091   1.031   7.316  0.00  0.00    +0.000 C 
ATOM     12  O   UNL     1      47.976   1.345   6.534  0.00  0.00    +0.000 OA
ATOM     13  H   UNL     1      47.290  -0.970   7.011  0.00  0.00    +0.000 HD
ATOM     14  H   UNL     1      45.925  -0.571   7.992  0.00  0.00    +0.000 HD
ENDBRANCH   2  11
ENDBRANCH   1   6
BRANCH   1  15
ATOM     15  C   UNL     1      44.276   6.316  11.520  0.00  0.00    +0.000 C 
BRANCH  15  16
ATOM     16  C   UNL     1      45.411   5.839  12.398  0.00  0.00    +0.000 A 
ATOM     17  C   UNL     1      45.517   4.490  12.716  0.00  0.00    +0.000 A 
ATOM     18  C   UNL     1      46.552   4.078  13.544  0.00  0.00    +0.000 A 
ATOM     19  C   UNL     1      47.446   5.021  14.040  0.00  0.00    +0.000 A 
ATOM     20  C   UNL     1      47.285   6.363  13.699  0.00  0.00    +0.000 A 
ATOM     21  N   UNL     1      46.268   6.769  12.893  0.00  0.00    +0.000 NA
BRANCH  20  22
ATOM     22  C   UNL     1      48.173   7.425  14.205  0.00  0.00    +0.000 A 
ATOM     23  C   UNL     1      49.329   7.124  14.935  0.00  0.00    +0.000 A 
ATOM     24  N   UNL     1      50.229   8.038  15.392  0.00  0.00    +0.000 NA
ATOM     25  C   UNL     1      49.962   9.333  15.117  0.00  0.00    +0.000 A 
ATOM     26  C   UNL     1      48.838   9.743  14.429  0.00  0.00    +0.000 A 
ATOM     27  F   UNL     1      48.618  11.042  14.190  0.00  0.00    +0.000 F 
ATOM     28  C   UNL     1      47.934   8.789  13.977  0.00  0.00    +0.000 A 
ENDBRANCH  20  22
ENDBRANCH  15  16
ENDBRANCH   1  15
TORSDOF 5
ENDMDL
MODEL 4
REMARK VINA RESULT:    -8.015      3.359      7.865
REMARK INTER + INTRA:         -10.921
REMARK INTER:                 -10.221
REMARK INTRA:                  -0.699
REMARK UNBOUND:                -0.563
REMARK  Name = 
REMARK  5 active torsions:
REMARK  status: ('A' for Active; 'I' for Inactive)
REMARK    1  A    between atoms: C_2  and  C_4
REMARK    2  A    between atoms: N_8  and  C_9
REMARK    3  A    between atoms: C_9  and  C_10
REMARK    4  A    between atoms: C_10  and  C_11
REMARK    5  A    between atoms: C_15  and  C_16
REMARK                            x       y       z     vdW  Elec       q    Type
REMARK                         _______ _______ _______ _____ _____    ______ ____
ROOT
ATOM      1  C   UNL     1      47.062   6.625  12.809  0.00  0.00    +0.000 C 
ENDROOT
BRANCH   1   6
ATOM      2  C   UNL     1      48.569   4.045  16.913  0.00  0.00    +0.000 A 
ATOM      3  C   UNL     1      48.723   5.394  16.610  0.00  0.00    +0.000 A 
ATOM      4  C   UNL     1      48.065   5.917  15.496  0.00  0.00    +0.000 A 
ATOM      5  C   UNL     1      47.288   5.084  14.697  0.00  0.00    +0.000 A 
ATOM      6  N   UNL     1      46.525   5.548  13.635  0.00  0.00    +0.000 N 
ATOM      7  N   UNL     1      47.166   3.767  14.959  0.00  0.00    +0.000 NA
ATOM      8  C   UNL     1      47.810   3.272  16.050  0.00  0.00    +0.000 A 
ATOM      9  H   UNL     1      46.196   4.724  13.135  0.00  0.00    +0.000 HD
BRANCH   2  11
ATOM     10  N   UNL     1      48.349   3.262  19.198  0.00  0.00    +0.000 N 
ATOM     11  C   UNL     1      49.168   3.422  18.111  0.00  0.00    +0.000 C 
ATOM     12  O   UNL     1      50.322   3.024  18.121  0.00  0.00    +0.000 OA
ATOM     13  H   UNL     1      48.728   2.728  19.971  0.00  0.00    +0.000 HD
ATOM     14  H   UNL     1      47.344   3.338  19.137  0.00  0.00    +0.000 HD
ENDBRANCH   2  11
ENDBRANCH   1   6
BRANCH   1  15
ATOM     15  C   UNL     1      45.963   7.225  11.930  0.00  0.00    +0.000 C 
BRANCH  15  16
ATOM     16  C   UNL     1      45.090   6.166  11.295  0.00  0.00    +0.000 A 
ATOM     17  C   UNL     1      43.768   6.027  11.703  0.00  0.00    +0.000 A 
ATOM     18  C   UNL     1      42.992   5.032  11.125  0.00  0.00    +0.000 A 
ATOM     19  C   UNL     1      43.555   4.198  10.166  0.00  0.00    +0.000 A 
ATOM     20  C   UNL     1      44.890   4.374   9.803  0.00  0.00    +0.000 A 
ATOM     21  N   UNL     1      45.653   5.344  10.373  0.00  0.00    +0.000 NA
BRANCH  20  22
ATOM     22  C   UNL     1      45.566   3.514   8.816  0.00  0.00    +0.000 A 
ATOM     23  C   UNL     1      46.297   4.058   7.753  0.00  0.00    +0.000 A 
ATOM     24  N   UNL     1      46.995   3.339   6.831  0.00  0.00    +0.000 NA
ATOM     25  C   UNL     1      46.958   1.996   6.964  0.00  0.00    +0.000 A 
ATOM     26  C   UNL     1      46.247   1.354   7.957  0.00  0.00    +0.000 A 
ATOM     27  F   UNL     1      46.238   0.018   8.039  0.00  0.00    +0.000 F 
ATOM     28  C   UNL     1      45.542   2.112   8.884  0.00  0.00    +0.000 A 
ENDBRANCH  20  22
ENDBRANCH  15  16
ENDBRANCH   1  15
TORSDOF 5
ENDMDL
MODEL 5
REMARK VINA RESULT:    -7.389      3.692      7.186
REMARK INTER + INTRA:         -10.112
REMARK INTER:                  -9.257
REMARK INTRA:                  -0.856
REMARK UNBOUND:                -0.563
REMARK  Name = 
REMARK  5 active torsions:
REMARK  status: ('A' for Active; 'I' for Inactive)
REMARK    1  A    between atoms: C_2  and  C_4
REMARK    2  A    between atoms: N_8  and  C_9
REMARK    3  A    between atoms: C_9  and  C_10
REMARK    4  A    between atoms: C_10  and  C_11
REMARK    5  A    between atoms: C_15  and  C_16
REMARK                            x       y       z     vdW  Elec       q    Type
REMARK                         _______ _______ _______ _____ _____    ______ ____
ROOT
ATOM      1  C   UNL     1      46.951   4.328  13.890  0.00  0.00    +0.000 C 
ENDROOT
BRANCH   1   6
ATOM      2  C   UNL     1      49.484   8.370  12.155  0.00  0.00    +0.000 A 
ATOM      3  C   UNL     1      48.379   7.720  11.616  0.00  0.00    +0.000 A 
ATOM      4  C   UNL     1      47.741   6.733  12.368  0.00  0.00    +0.000 A 
ATOM      5  C   UNL     1      48.227   6.399  13.628  0.00  0.00    +0.000 A 
ATOM      6  N   UNL     1      47.590   5.503  14.474  0.00  0.00    +0.000 N 
ATOM      7  N   UNL     1      49.322   6.995  14.143  0.00  0.00    +0.000 NA
ATOM      8  C   UNL     1      49.932   7.957  13.400  0.00  0.00    +0.000 A 
ATOM      9  H   UNL     1      48.234   5.325  15.242  0.00  0.00    +0.000 HD
BRANCH   2  11
ATOM     10  N   UNL     1      51.530   9.346  11.292  0.00  0.00    +0.000 N 
ATOM     11  C   UNL     1      50.177   9.476  11.464  0.00  0.00    +0.000 C 
ATOM     12  O   UNL     1      49.571  10.440  11.024  0.00  0.00    +0.000 OA
ATOM     13  H   UNL     1      51.980  10.047  10.715  0.00  0.00    +0.000 HD
ATOM     14  H   UNL     1      52.010   8.465  11.408  0.00  0.00    +0.000 HD
ENDBRANCH   2  11
ENDBRANCH   1   6
BRANCH   1  15
ATOM     15  C   UNL     1      45.432   4.401  14.067  0.00  0.00    +0.000 C 
BRANCH  15  16
ATOM     16  C   UNL     1      44.708   4.582  12.752  0.00  0.00    +0.000 A 
ATOM     17  C   UNL     1      43.486   5.246  12.723  0.00  0.00    +0.000 A 
ATOM     18  C   UNL     1      42.826   5.379  11.509  0.00  0.00    +0.000 A 
ATOM     19  C   UNL     1      43.395   4.840  10.361  0.00  0.00    +0.000 A 
ATOM     20  C   UNL     1      44.616   4.173  10.449  0.00  0.00    +0.000 A 
ATOM     21  N   UNL     1      45.260   4.036  11.639  0.00  0.00    +0.000 NA
BRANCH  20  22
ATOM     22  C   UNL     1      45.269   3.550   9.284  0.00  0.00    +0.000 A 
ATOM     23  C   UNL     1      45.764   4.322   8.226  0.00  0.00    +0.000 A 
ATOM     24  N   UNL     1      46.426   3.834   7.141  0.00  0.00    +0.000 NA
ATOM     25  C   UNL     1      46.601   2.495   7.096  0.00  0.00    +0.000 A 
ATOM     26  C   UNL     1      46.129   1.639   8.070  0.00  0.00    +0.000 A 
ATOM     27  F   UNL     1      46.323   0.318   7.973  0.00  0.00    +0.000 F 
ATOM     28  C   UNL     1      45.454   2.164   9.166  0.00  0.00    +0.000 A 
ENDBRANCH  20  22
ENDBRANCH  15  16
ENDBRANCH   1  15
TORSDOF 5
ENDMDL
MODEL 6
REMARK VINA RESULT:    -7.206      3.157      5.509
REMARK INTER + INTRA:          -9.876
REMARK INTER:                  -9.086
REMARK INTRA:                  -0.790
REMARK UNBOUND:                -0.563
REMARK  Name = 
REMARK  5 active torsions:
REMARK  status: ('A' for Active; 'I' for Inactive)
REMARK    1  A    between atoms: C_2  and  C_4
REMARK    2  A    between atoms: N_8  and  C_9
REMARK    3  A    between atoms: C_9  and  C_10
REMARK    4  A    between atoms: C_10  and  C_11
REMARK    5  A    between atoms: C_15  and  C_16
REMARK                            x       y       z     vdW  Elec       q    Type
REMARK                         _______ _______ _______ _____ _____    ______ ____
ROOT
ATOM      1  C   UNL     1      48.525   6.617  14.459  0.00  0.00    +0.000 C 
ENDROOT
BRANCH   1   6
ATOM      2  C   UNL     1      45.100   4.010  11.769  0.00  0.00    +0.000 A 
ATOM      3  C   UNL     1      45.974   3.567  12.755  0.00  0.00    +0.000 A 
ATOM      4  C   UNL     1      46.704   4.505  13.486  0.00  0.00    +0.000 A 
ATOM      5  C   UNL     1      46.565   5.861  13.204  0.00  0.00    +0.000 A 
ATOM      6  N   UNL     1      47.178   6.857  13.951  0.00  0.00    +0.000 N 
ATOM      7  N   UNL     1      45.751   6.298  12.223  0.00  0.00    +0.000 NA
ATOM      8  C   UNL     1      45.044   5.372  11.521  0.00  0.00    +0.000 A 
ATOM      9  H   UNL     1      47.043   7.725  13.438  0.00  0.00    +0.000 HD
BRANCH   2  11
ATOM     10  N   UNL     1      44.846   2.317  10.050  0.00  0.00    +0.000 N 
ATOM     11  C   UNL     1      44.234   3.095  10.997  0.00  0.00    +0.000 C 
ATOM     12  O   UNL     1      43.038   3.000  11.221  0.00  0.00    +0.000 OA
ATOM     13  H   UNL     1      44.271   1.610   9.609  0.00  0.00    +0.000 HD
ATOM     14  H   UNL     1      45.847   2.185  10.019  0.00  0.00    +0.000 HD
ENDBRANCH   2  11
ENDBRANCH   1   6
BRANCH   1  15
ATOM     15  C   UNL     1      48.540   6.680  15.988  0.00  0.00    +0.000 C 
BRANCH  15  16
ATOM     16  C   UNL     1      48.563   5.306  16.620  0.00  0.00    +0.000 A 
ATOM     17  C   UNL     1      47.367   4.670  16.932  0.00  0.00    +0.000 A 
ATOM     18  C   UNL     1      47.411   3.421  17.535  0.00  0.00    +0.000 A 
ATOM     19  C   UNL     1      48.644   2.843  17.818  0.00  0.00    +0.000 A 
ATOM     20  C   UNL     1      49.813   3.531  17.495  0.00  0.00    +0.000 A 
ATOM     21  N   UNL     1      49.771   4.758  16.911  0.00  0.00    +0.000 NA
BRANCH  20  22
ATOM     22  C   UNL     1      51.156   2.999  17.788  0.00  0.00    +0.000 A 
ATOM     23  C   UNL     1      52.120   3.771  18.446  0.00  0.00    +0.000 A 
ATOM     24  N   UNL     1      53.362   3.341  18.801  0.00  0.00    +0.000 NA
ATOM     25  C   UNL     1      53.672   2.067  18.476  0.00  0.00    +0.000 A 
ATOM     26  C   UNL     1      52.808   1.228  17.803  0.00  0.00    +0.000 A 
ATOM     27  F   UNL     1      53.169  -0.025  17.499  0.00  0.00    +0.000 F 
ATOM     28  C   UNL     1      51.548   1.693  17.450  0.00  0.00    +0.000 A 
ENDBRANCH  20  22
ENDBRANCH  15  16
ENDBRANCH   1  15
TORSDOF 5
ENDMDL
MODEL 7
REMARK VINA RESULT:    -7.076      4.083      8.131
REMARK INTER + INTRA:          -9.708
REMARK INTER:                  -8.885
REMARK INTRA:                  -0.823
REMARK UNBOUND:                -0.563
REMARK  Name = 
REMARK  5 active torsions:
REMARK  status: ('A' for Active; 'I' for Inactive)
REMARK    1  A    between atoms: C_2  and  C_4
REMARK    2  A    between atoms: N_8  and  C_9
REMARK    3  A    between atoms: C_9  and  C_10
REMARK    4  A    between atoms: C_10  and  C_11
REMARK    5  A    between atoms: C_15  and  C_16
REMARK                            x       y       z     vdW  Elec       q    Type
REMARK                         _______ _______ _______ _____ _____    ______ ____
ROOT
ATOM      1  C   UNL     1      49.230   7.099  13.265  0.00  0.00    +0.000 C 
ENDROOT
BRANCH   1   6
ATOM      2  C   UNL     1      48.484   5.043  17.845  0.00  0.00    +0.000 A 
ATOM      3  C   UNL     1      49.112   6.235  17.502  0.00  0.00    +0.000 A 
ATOM      4  C   UNL     1      49.040   6.684  16.183  0.00  0.00    +0.000 A 
ATOM      5  C   UNL     1      48.364   5.927  15.231  0.00  0.00    +0.000 A 
ATOM      6  N   UNL     1      48.164   6.354  13.926  0.00  0.00    +0.000 N 
ATOM      7  N   UNL     1      47.787   4.749  15.545  0.00  0.00    +0.000 NA
ATOM      8  C   UNL     1      47.864   4.327  16.835  0.00  0.00    +0.000 A 
ATOM      9  H   UNL     1      47.795   5.554  13.415  0.00  0.00    +0.000 HD
BRANCH   2  11
ATOM     10  N   UNL     1      48.398   3.168  19.382  0.00  0.00    +0.000 N 
ATOM     11  C   UNL     1      48.446   4.529  19.230  0.00  0.00    +0.000 C 
ATOM     12  O   UNL     1      48.501   5.275  20.195  0.00  0.00    +0.000 OA
ATOM     13  H   UNL     1      48.493   2.818  20.328  0.00  0.00    +0.000 HD
ATOM     14  H   UNL     1      48.610   2.529  18.629  0.00  0.00    +0.000 HD
ENDBRANCH   2  11
ENDBRANCH   1   6
BRANCH   1  15
ATOM     15  C   UNL     1      48.650   8.041  12.207  0.00  0.00    +0.000 C 
BRANCH  15  16
ATOM     16  C   UNL     1      47.183   7.781  11.947  0.00  0.00    +0.000 A 
ATOM     17  C   UNL     1      46.232   8.693  12.390  0.00  0.00    +0.000 A 
ATOM     18  C   UNL     1      44.890   8.423  12.163  0.00  0.00    +0.000 A 
ATOM     19  C   UNL     1      44.532   7.248  11.511  0.00  0.00    +0.000 A 
ATOM     20  C   UNL     1      45.526   6.362  11.099  0.00  0.00    +0.000 A 
ATOM     21  N   UNL     1      46.841   6.622  11.327  0.00  0.00    +0.000 NA
BRANCH  20  22
ATOM     22  C   UNL     1      45.226   5.085  10.428  0.00  0.00    +0.000 A 
ATOM     23  C   UNL     1      44.544   4.055  11.087  0.00  0.00    +0.000 A 
ATOM     24  N   UNL     1      44.180   2.869  10.526  0.00  0.00    +0.000 NA
ATOM     25  C   UNL     1      44.522   2.687   9.232  0.00  0.00    +0.000 A 
ATOM     26  C   UNL     1      45.219   3.624   8.496  0.00  0.00    +0.000 A 
ATOM     27  F   UNL     1      45.541   3.389   7.218  0.00  0.00    +0.000 F 
ATOM     28  C   UNL     1      45.580   4.825   9.094  0.00  0.00    +0.000 A 
ENDBRANCH  20  22
ENDBRANCH  15  16
ENDBRANCH   1  15
TORSDOF 5
ENDMDL
MODEL 8
REMARK VINA RESULT:    -6.912      3.947      7.444
REMARK INTER + INTRA:          -9.495
REMARK INTER:                  -9.260
REMARK INTRA:                  -0.235
REMARK UNBOUND:                -0.563
REMARK  Name = 
REMARK  5 active torsions:
REMARK  status: ('A' for Active; 'I' for Inactive)
REMARK    1  A    between atoms: C_2  and  C_4
REMARK    2  A    between atoms: N_8  and  C_9
REMARK    3  A    between atoms: C_9  and  C_10
REMARK    4  A    between atoms: C_10  and  C_11
REMARK    5  A    between atoms: C_15  and  C_16
REMARK                            x       y       z     vdW  Elec       q    Type
REMARK                         _______ _______ _______ _____ _____    ______ ____
ROOT
ATOM      1  C   UNL     1      47.344   5.305  13.579  0.00  0.00    +0.000 C 
ENDROOT
BRANCH   1   6
ATOM      2  C   UNL     1      45.583   9.771  11.929  0.00  0.00    +0.000 A 
ATOM      3  C   UNL     1      44.990   8.514  11.883  0.00  0.00    +0.000 A 
ATOM      4  C   UNL     1      45.592   7.455  12.564  0.00  0.00    +0.000 A 
ATOM      5  C   UNL     1      46.780   7.665  13.257  0.00  0.00    +0.000 A 
ATOM      6  N   UNL     1      47.383   6.690  14.039  0.00  0.00    +0.000 N 
ATOM      7  N   UNL     1      47.384   8.870  13.274  0.00  0.00    +0.000 NA
ATOM      8  C   UNL     1      46.784   9.893  12.609  0.00  0.00    +0.000 A 
ATOM      9  H   UNL     1      48.301   7.051  14.290  0.00  0.00    +0.000 HD
BRANCH   2  11
ATOM     10  N   UNL     1      45.657  11.516  10.246  0.00  0.00    +0.000 N 
ATOM     11  C   UNL     1      44.979  10.964  11.301  0.00  0.00    +0.000 C 
ATOM     12  O   UNL     1      43.905  11.412  11.670  0.00  0.00    +0.000 OA
ATOM     13  H   UNL     1      45.182  12.257   9.745  0.00  0.00    +0.000 HD
ATOM     14  H   UNL     1      46.396  11.028   9.760  0.00  0.00    +0.000 HD
ENDBRANCH   2  11
ENDBRANCH   1   6
BRANCH   1  15
ATOM     15  C   UNL     1      46.045   4.629  14.025  0.00  0.00    +0.000 C 
BRANCH  15  16
ATOM     16  C   UNL     1      45.074   4.439  12.882  0.00  0.00    +0.000 A 
ATOM     17  C   UNL     1      43.712   4.617  13.098  0.00  0.00    +0.000 A 
ATOM     18  C   UNL     1      42.835   4.414  12.041  0.00  0.00    +0.000 A 
ATOM     19  C   UNL     1      43.337   4.030  10.803  0.00  0.00    +0.000 A 
ATOM     20  C   UNL     1      44.711   3.854  10.645  0.00  0.00    +0.000 A 
ATOM     21  N   UNL     1      45.570   4.047  11.681  0.00  0.00    +0.000 NA
BRANCH  20  22
ATOM     22  C   UNL     1      45.317   3.423   9.372  0.00  0.00    +0.000 A 
ATOM     23  C   UNL     1      45.648   4.344   8.372  0.00  0.00    +0.000 A 
ATOM     24  N   UNL     1      46.258   4.038   7.193  0.00  0.00    +0.000 NA
ATOM     25  C   UNL     1      46.550   2.736   6.989  0.00  0.00    +0.000 A 
ATOM     26  C   UNL     1      46.243   1.741   7.896  0.00  0.00    +0.000 A 
ATOM     27  F   UNL     1      46.548   0.463   7.639  0.00  0.00    +0.000 F 
ATOM     28  C   UNL     1      45.618   2.081   9.089  0.00  0.00    +0.000 A 
ENDBRANCH  20  22
ENDBRANCH  15  16
ENDBRANCH   1  15
TORSDOF 5
ENDMDL
MODEL 9
REMARK VINA RESULT:    -6.781      3.835      7.217
REMARK INTER + INTRA:          -9.327
REMARK INTER:                  -8.138
REMARK INTRA:                  -1.189
REMARK UNBOUND:                -0.563
REMARK  Name = 
REMARK  5 active torsions:
REMARK  status: ('A' for Active; 'I' for Inactive)
REMARK    1  A    between atoms: C_2  and  C_4
REMARK    2  A    between atoms: N_8  and  C_9
REMARK    3  A    between atoms: C_9  and  C_10
REMARK    4  A    between atoms: C_10  and  C_11
REMARK    5  A    between atoms: C_15  and  C_16
REMARK                            x       y       z     vdW  Elec       q    Type
REMARK                         _______ _______ _______ _____ _____    ______ ____
ROOT
ATOM      1  C   UNL     1      48.925   8.184  12.822  0.00  0.00    +0.000 C 
ENDROOT
BRANCH   1   6
ATOM      2  C   UNL     1      47.821   4.894  16.526  0.00  0.00    +0.000 A 
ATOM      3  C   UNL     1      47.560   4.812  15.163  0.00  0.00    +0.000 A 
ATOM      4  C   UNL     1      48.119   5.761  14.307  0.00  0.00    +0.000 A 
ATOM      5  C   UNL     1      48.908   6.783  14.828  0.00  0.00    +0.000 A 
ATOM      6  N   UNL     1      49.579   7.702  14.034  0.00  0.00    +0.000 N 
ATOM      7  N   UNL     1      49.134   6.895  16.152  0.00  0.00    +0.000 NA
ATOM      8  C   UNL     1      48.584   5.960  16.974  0.00  0.00    +0.000 A 
ATOM      9  H   UNL     1      49.935   8.419  14.664  0.00  0.00    +0.000 HD
BRANCH   2  11
ATOM     10  N   UNL     1      47.928   3.886  18.730  0.00  0.00    +0.000 N 
ATOM     11  C   UNL     1      47.333   3.892  17.496  0.00  0.00    +0.000 C 
ATOM     12  O   UNL     1      46.411   3.137  17.231  0.00  0.00    +0.000 OA
ATOM     13  H   UNL     1      47.511   3.281  19.428  0.00  0.00    +0.000 HD
ATOM     14  H   UNL     1      48.499   4.650  19.062  0.00  0.00    +0.000 HD
ENDBRANCH   2  11
ENDBRANCH   1   6
BRANCH   1  15
ATOM     15  C   UNL     1      47.881   9.250  13.163  0.00  0.00    +0.000 C 
BRANCH  15  16
ATOM     16  C   UNL     1      46.565   9.014  12.457  0.00  0.00    +0.000 A 
ATOM     17  C   UNL     1      45.856  10.093  11.940  0.00  0.00    +0.000 A 
ATOM     18  C   UNL     1      44.639   9.857  11.318  0.00  0.00    +0.000 A 
ATOM     19  C   UNL     1      44.156   8.555  11.234  0.00  0.00    +0.000 A 
ATOM     20  C   UNL     1      44.902   7.512  11.780  0.00  0.00    +0.000 A 
ATOM     21  N   UNL     1      46.092   7.743  12.397  0.00  0.00    +0.000 NA
BRANCH  20  22
ATOM     22  C   UNL     1      44.447   6.110  11.757  0.00  0.00    +0.000 A 
ATOM     23  C   UNL     1      43.164   5.766  11.314  0.00  0.00    +0.000 A 
ATOM     24  N   UNL     1      42.683   4.497  11.209  0.00  0.00    +0.000 NA
ATOM     25  C   UNL     1      43.523   3.505  11.576  0.00  0.00    +0.000 A 
ATOM     26  C   UNL     1      44.798   3.732  12.053  0.00  0.00    +0.000 A 
ATOM     27  F   UNL     1      45.587   2.711  12.411  0.00  0.00    +0.000 F 
ATOM     28  C   UNL     1      45.262   5.038  12.152  0.00  0.00    +0.000 A 
ENDBRANCH  20  22
ENDBRANCH  15  16
ENDBRANCH   1  15
TORSDOF 5
ENDMDL
