MODEL 1
REMARK VINA RESULT:    -8.414      0.000      0.000
REMARK INTER + INTRA:         -10.922
REMARK INTER:                 -10.381
REMARK INTRA:                  -0.541
REMARK UNBOUND:                -0.541
REMARK  Name = 
REMARK  4 active torsions:
REMARK  status: ('A' for Active; 'I' for Inactive)
REMARK    1  A    between atoms: C_2  and  C_4
REMARK    2  A    between atoms: C_7  and  N_8
REMARK    3  A    between atoms: N_8  and  C_9
REMARK    4  A    between atoms: C_9  and  C_10
REMARK                            x       y       z     vdW  Elec       q    Type
REMARK                         _______ _______ _______ _____ _____    ______ ____
ROOT
ATOM      1  N   UNL     1      43.897   4.731  10.199  0.00  0.00    +0.000 N 
ATOM      2  H   UNL     1      43.012   5.058   9.810  0.00  0.00    +0.000 HD
ENDROOT
BRANCH   1   6
ATOM      3  C   UNL     1      46.454   2.567   7.736  0.00  0.00    +0.000 A 
ATOM      4  C   UNL     1      45.648   1.856   8.613  0.00  0.00    +0.000 A 
ATOM      5  C   UNL     1      44.754   2.559   9.423  0.00  0.00    +0.000 A 
ATOM      6  C   UNL     1      44.671   3.955   9.343  0.00  0.00    +0.000 A 
ATOM      7  C   UNL     1      45.553   4.561   8.438  0.00  0.00    +0.000 A 
ATOM      8  N   UNL     1      46.429   3.922   7.623  0.00  0.00    +0.000 NA
BRANCH   3  10
ATOM      9  N   UNL     1      48.518   2.548   6.428  0.00  0.00    +0.000 N 
ATOM     10  C   UNL     1      47.423   1.844   6.852  0.00  0.00    +0.000 C 
ATOM     11  O   UNL     1      47.270   0.667   6.535  0.00  0.00    +0.000 OA
ATOM     12  H   UNL     1      49.232   2.041   5.927  0.00  0.00    +0.000 HD
ATOM     13  H   UNL     1      48.742   3.436   6.864  0.00  0.00    +0.000 HD
ENDBRANCH   3  10
ENDBRANCH   1   6
BRANCH   1  14
ATOM     14  C   UNL     1      43.763   4.391  11.624  0.00  0.00    +0.000 C 
BRANCH  14  15
ATOM     15  C   UNL     1      45.082   4.552  12.378  0.00  0.00    +0.000 A 
ATOM     16  N   UNL     1      45.515   3.514  13.105  0.00  0.00    +0.000 NA
ATOM     17  C   UNL     1      46.716   3.695  13.635  0.00  0.00    +0.000 A 
ATOM     18  N   UNL     1      47.486   4.762  13.485  0.00  0.00    +0.000 NA
ATOM     19  C   UNL     1      46.973   5.757  12.772  0.00  0.00    +0.000 A 
ATOM     20  N   UNL     1      47.716   6.896  12.625  0.00  0.00    +0.000 N 
ATOM     21  C   UNL     1      49.047   7.010  13.221  0.00  0.00    +0.000 C 
ATOM     22  C   UNL     1      49.089   8.170  14.226  0.00  0.00    +0.000 C 
ATOM     23  O   UNL     1      48.602   9.391  13.643  0.00  0.00    +0.000 OA
ATOM     24  C   UNL     1      47.242   9.229  13.210  0.00  0.00    +0.000 C 
ATOM     25  C   UNL     1      47.112   8.133  12.142  0.00  0.00    +0.000 C 
ATOM     26  N   UNL     1      45.772   5.684  12.195  0.00  0.00    +0.000 NA
ENDBRANCH  14  15
ENDBRANCH   1  14
TORSDOF 4
ENDMDL
MODEL 2
REMARK VINA RESULT:    -7.886      2.509      3.313
REMARK INTER + INTRA:         -10.271
REMARK INTER:                  -9.952
REMARK INTRA:                  -0.319
REMARK UNBOUND:                -0.541
REMARK  Name = 
REMARK  4 active torsions:
REMARK  status: ('A' for Active; 'I' for Inactive)
REMARK    1  A    between atoms: C_2  and  C_4
REMARK    2  A    between atoms: C_7  and  N_8
REMARK    3  A    between atoms: N_8  and  C_9
REMARK    4  A    between atoms: C_9  and  C_10
REMARK                            x       y       z     vdW  Elec       q    Type
REMARK                         _______ _______ _______ _____ _____    ______ ____
ROOT
ATOM      1  N   UNL     1      44.412   4.575  11.099  0.00  0.00    +0.000 N 
ATOM      2  H   UNL     1      43.446   4.897  11.032  0.00  0.00    +0.000 HD
ENDROOT
BRANCH   1   6
ATOM      3  C   UNL     1      46.190   2.904   7.733  0.00  0.00    +0.000 A 
ATOM      4  C   UNL     1      45.602   2.042   8.647  0.00  0.00    +0.000 A 
ATOM      5  C   UNL     1      44.965   2.583   9.767  0.00  0.00    +0.000 A 
ATOM      6  C   UNL     1      44.918   3.970   9.955  0.00  0.00    +0.000 A 
ATOM      7  C   UNL     1      45.569   4.734   8.976  0.00  0.00    +0.000 A 
ATOM      8  N   UNL     1      46.189   4.257   7.868  0.00  0.00    +0.000 NA
BRANCH   3  10
ATOM      9  N   UNL     1      47.096   3.227   5.487  0.00  0.00    +0.000 N 
ATOM     10  C   UNL     1      46.880   2.357   6.522  0.00  0.00    +0.000 C 
ATOM     11  O   UNL     1      47.263   1.192   6.455  0.00  0.00    +0.000 OA
ATOM     12  H   UNL     1      47.658   2.901   4.714  0.00  0.00    +0.000 HD
ATOM     13  H   UNL     1      46.972   4.222   5.636  0.00  0.00    +0.000 HD
ENDBRANCH   3  10
ENDBRANCH   1   6
BRANCH   1  14
ATOM     14  C   UNL     1      44.705   4.039  12.438  0.00  0.00    +0.000 C 
BRANCH  14  15
ATOM     15  C   UNL     1      45.938   4.694  13.060  0.00  0.00    +0.000 A 
ATOM     16  N   UNL     1      46.579   5.625  12.341  0.00  0.00    +0.000 NA
ATOM     17  C   UNL     1      47.566   6.220  12.995  0.00  0.00    +0.000 A 
ATOM     18  N   UNL     1      47.929   5.988  14.247  0.00  0.00    +0.000 NA
ATOM     19  C   UNL     1      47.261   5.032  14.881  0.00  0.00    +0.000 A 
ATOM     20  N   UNL     1      47.629   4.729  16.163  0.00  0.00    +0.000 N 
ATOM     21  C   UNL     1      48.716   5.450  16.826  0.00  0.00    +0.000 C 
ATOM     22  C   UNL     1      49.844   4.483  17.214  0.00  0.00    +0.000 C 
ATOM     23  O   UNL     1      49.344   3.362  17.962  0.00  0.00    +0.000 OA
ATOM     24  C   UNL     1      48.384   2.631  17.181  0.00  0.00    +0.000 C 
ATOM     25  C   UNL     1      47.175   3.502  16.807  0.00  0.00    +0.000 C 
ATOM     26  N   UNL     1      46.250   4.366  14.318  0.00  0.00    +0.000 NA
ENDBRANCH  14  15
ENDBRANCH   1  14
TORSDOF 4
ENDMDL
MODEL 3
REMARK VINA RESULT:    -7.522      1.761      2.663
REMARK INTER + INTRA:          -9.821
REMARK INTER:                  -9.396
REMARK INTRA:                  -0.425
REMARK UNBOUND:                -0.541
REMARK  Name = 
REMARK  4 active torsions:
REMARK  status: ('A' for Active; 'I' for Inactive)
REMARK    1  A    between atoms: C_2  and  C_4
REMARK    2  A    between atoms: C_7  and  N_8
REMARK    3  A    between atoms: N_8  and  C_9
REMARK    4  A    between atoms: C_9  and  C_10
REMARK                            x       y       z     vdW  Elec       q    Type
REMARK                         _______ _______ _______ _____ _____    ______ ____
ROOT
ATOM      1  N   UNL     1      43.761   4.890   9.775  0.00  0.00    +0.000 N 
ATOM      2  H   UNL     1      42.802   4.801   9.438  0.00  0.00    +0.000 HD
ENDROOT
BRANCH   1   6
ATOM      3  C   UNL     1      46.252   2.084   7.986  0.00  0.00    +0.000 A 
ATOM      4  C   UNL     1      46.434   3.416   7.647  0.00  0.00    +0.000 A 
ATOM      5  C   UNL     1      45.634   4.381   8.265  0.00  0.00    +0.000 A 
ATOM      6  C   UNL     1      44.673   4.005   9.211  0.00  0.00    +0.000 A 
ATOM      7  C   UNL     1      44.566   2.628   9.449  0.00  0.00    +0.000 A 
ATOM      8  N   UNL     1      45.326   1.656   8.886  0.00  0.00    +0.000 NA
BRANCH   3  10
ATOM      9  N   UNL     1      46.804  -0.275   7.664  0.00  0.00    +0.000 N 
ATOM     10  C   UNL     1      47.094   1.024   7.343  0.00  0.00    +0.000 C 
ATOM     11  O   UNL     1      47.988   1.291   6.545  0.00  0.00    +0.000 OA
ATOM     12  H   UNL     1      47.287  -0.999   7.154  0.00  0.00    +0.000 HD
ATOM     13  H   UNL     1      45.939  -0.491   8.147  0.00  0.00    +0.000 HD
ENDBRANCH   3  10
ENDBRANCH   1   6
BRANCH   1  14
ATOM     14  C   UNL     1      43.796   5.211  11.210  0.00  0.00    +0.000 C 
BRANCH  14  15
ATOM     15  C   UNL     1      44.442   6.569  11.478  0.00  0.00    +0.000 A 
ATOM     16  N   UNL     1      43.808   7.660  11.028  0.00  0.00    +0.000 NA
ATOM     17  C   UNL     1      44.375   8.799  11.398  0.00  0.00    +0.000 A 
ATOM     18  N   UNL     1      45.452   8.929  12.158  0.00  0.00    +0.000 NA
ATOM     19  C   UNL     1      46.035   7.800  12.541  0.00  0.00    +0.000 A 
ATOM     20  N   UNL     1      47.174   7.885  13.294  0.00  0.00    +0.000 N 
ATOM     21  C   UNL     1      47.725   9.183  13.684  0.00  0.00    +0.000 C 
ATOM     22  C   UNL     1      49.143   9.356  13.120  0.00  0.00    +0.000 C 
ATOM     23  O   UNL     1      49.984   8.239  13.455  0.00  0.00    +0.000 OA
ATOM     24  C   UNL     1      49.438   7.025  12.915  0.00  0.00    +0.000 C 
ATOM     25  C   UNL     1      48.041   6.728  13.482  0.00  0.00    +0.000 C 
ATOM     26  N   UNL     1      45.552   6.597  12.224  0.00  0.00    +0.000 NA
ENDBRANCH  14  15
ENDBRANCH   1  14
TORSDOF 4
ENDMDL
MODEL 4
REMARK VINA RESULT:    -7.258      2.587      3.163
REMARK INTER + INTRA:          -9.496
REMARK INTER:                  -9.004
REMARK INTRA:                  -0.492
REMARK UNBOUND:                -0.541
REMARK  Name = 
REMARK  4 active torsions:
REMARK  status: ('A' for Active; 'I' for Inactive)
REMARK    1  A    between atoms: C_2  and  C_4
REMARK    2  A    between atoms: C_7  and  N_8
REMARK    3  A    between atoms: N_8  and  C_9
REMARK    4  A    between atoms: C_9  and  C_10
REMARK                            x       y       z     vdW  Elec       q    Type
REMARK                         _______ _______ _______ _____ _____    ______ ____
ROOT
ATOM      1  N   UNL     1      43.642   4.127  10.381  0.00  0.00    +0.000 N 
ATOM      2  H   UNL     1      42.667   3.839  10.295  0.00  0.00    +0.000 HD
ENDROOT
BRANCH   1   6
ATOM      3  C   UNL     1      46.425   2.771   7.606  0.00  0.00    +0.000 A 
ATOM      4  C   UNL     1      45.803   1.827   8.409  0.00  0.00    +0.000 A 
ATOM      5  C   UNL     1      44.837   2.255   9.322  0.00  0.00    +0.000 A 
ATOM      6  C   UNL     1      44.500   3.612   9.417  0.00  0.00    +0.000 A 
ATOM      7  C   UNL     1      45.215   4.470   8.570  0.00  0.00    +0.000 A 
ATOM      8  N   UNL     1      46.152   4.102   7.661  0.00  0.00    +0.000 NA
BRANCH   3  10
ATOM      9  N   UNL     1      47.469   2.991   5.407  0.00  0.00    +0.000 N 
ATOM     10  C   UNL     1      47.465   2.346   6.615  0.00  0.00    +0.000 C 
ATOM     11  O   UNL     1      48.298   1.480   6.869  0.00  0.00    +0.000 OA
ATOM     12  H   UNL     1      48.232   2.793   4.777  0.00  0.00    +0.000 HD
ATOM     13  H   UNL     1      46.926   3.839   5.290  0.00  0.00    +0.000 HD
ENDBRANCH   3  10
ENDBRANCH   1   6
BRANCH   1  14
ATOM     14  C   UNL     1      44.049   4.224  11.790  0.00  0.00    +0.000 C 
BRANCH  14  15
ATOM     15  C   UNL     1      44.674   5.581  12.114  0.00  0.00    +0.000 A 
ATOM     16  N   UNL     1      45.721   5.602  12.949  0.00  0.00    +0.000 NA
ATOM     17  C   UNL     1      46.271   6.799  13.089  0.00  0.00    +0.000 A 
ATOM     18  N   UNL     1      45.893   7.912  12.477  0.00  0.00    +0.000 NA
ATOM     19  C   UNL     1      44.831   7.811  11.687  0.00  0.00    +0.000 A 
ATOM     20  N   UNL     1      44.380   8.943  11.066  0.00  0.00    +0.000 N 
ATOM     21  C   UNL     1      45.057  10.227  11.251  0.00  0.00    +0.000 C 
ATOM     22  C   UNL     1      44.103  11.253  11.877  0.00  0.00    +0.000 C 
ATOM     23  O   UNL     1      42.870  11.344  11.143  0.00  0.00    +0.000 OA
ATOM     24  C   UNL     1      42.204  10.070  11.129  0.00  0.00    +0.000 C 
ATOM     25  C   UNL     1      43.058   8.990  10.450  0.00  0.00    +0.000 C 
ATOM     26  N   UNL     1      44.198   6.655  11.475  0.00  0.00    +0.000 NA
ENDBRANCH  14  15
ENDBRANCH   1  14
TORSDOF 4
ENDMDL
MODEL 5
REMARK VINA RESULT:    -6.940      5.014      8.092
REMARK INTER + INTRA:          -9.104
REMARK INTER:                  -8.743
REMARK INTRA:                  -0.361
REMARK UNBOUND:                -0.541
REMARK  Name = 
REMARK  4 active torsions:
REMARK  status: ('A' for Active; 'I' for Inactive)
REMARK    1  A    between atoms: C_2  and  C_4
REMARK    2  A    between atoms: C_7  and  N_8
REMARK    3  A    between atoms: N_8  and  C_9
REMARK    4  A    between atoms: C_9  and  C_10
REMARK                            x       y       z     vdW  Elec       q    Type
REMARK                         _______ _______ _______ _____ _____    ______ ____
ROOT
ATOM      1  N   UNL     1      48.627   4.214  17.306  0.00  0.00    +0.000 N 
ATOM      2  H   UNL     1      48.817   5.208  17.178  0.00  0.00    +0.000 HD
ENDROOT
BRANCH   1   6
ATOM      3  C   UNL     1      51.977   1.767  17.560  0.00  0.00    +0.000 A 
ATOM      4  C   UNL     1      52.079   3.053  18.069  0.00  0.00    +0.000 A 
ATOM      5  C   UNL     1      50.954   3.881  18.029  0.00  0.00    +0.000 A 
ATOM      6  C   UNL     1      49.748   3.414  17.491  0.00  0.00    +0.000 A 
ATOM      7  C   UNL     1      49.779   2.107  16.986  0.00  0.00    +0.000 A 
ATOM      8  N   UNL     1      50.840   1.262  17.013  0.00  0.00    +0.000 NA
BRANCH   3  10
ATOM      9  N   UNL     1      53.044  -0.295  18.324  0.00  0.00    +0.000 N 
ATOM     10  C   UNL     1      53.164   0.853  17.588  0.00  0.00    +0.000 C 
ATOM     11  O   UNL     1      54.195   1.097  16.966  0.00  0.00    +0.000 OA
ATOM     12  H   UNL     1      53.791  -0.970  18.259  0.00  0.00    +0.000 HD
ATOM     13  H   UNL     1      52.129  -0.587  18.651  0.00  0.00    +0.000 HD
ENDBRANCH   3  10
ENDBRANCH   1   6
BRANCH   1  14
ATOM     14  C   UNL     1      47.505   3.771  16.464  0.00  0.00    +0.000 C 
BRANCH  14  15
ATOM     15  C   UNL     1      47.303   4.680  15.253  0.00  0.00    +0.000 A 
ATOM     16  N   UNL     1      48.219   5.632  15.028  0.00  0.00    +0.000 NA
ATOM     17  C   UNL     1      48.030   6.300  13.900  0.00  0.00    +0.000 A 
ATOM     18  N   UNL     1      47.066   6.091  13.016  0.00  0.00    +0.000 NA
ATOM     19  C   UNL     1      46.185   5.148  13.325  0.00  0.00    +0.000 A 
ATOM     20  N   UNL     1      45.149   4.924  12.461  0.00  0.00    +0.000 N 
ATOM     21  C   UNL     1      45.023   5.689  11.220  0.00  0.00    +0.000 C 
ATOM     22  C   UNL     1      43.705   6.475  11.204  0.00  0.00    +0.000 C 
ATOM     23  O   UNL     1      42.580   5.624  11.483  0.00  0.00    +0.000 OA
ATOM     24  C   UNL     1      42.720   5.022  12.781  0.00  0.00    +0.000 C 
ATOM     25  C   UNL     1      43.982   4.150  12.868  0.00  0.00    +0.000 C 
ATOM     26  N   UNL     1      46.277   4.414  14.437  0.00  0.00    +0.000 NA
ENDBRANCH  14  15
ENDBRANCH   1  14
TORSDOF 4
ENDMDL
MODEL 6
REMARK VINA RESULT:    -6.692      3.421      5.382
REMARK INTER + INTRA:          -8.798
REMARK INTER:                  -8.352
REMARK INTRA:                  -0.447
REMARK UNBOUND:                -0.541
REMARK  Name = 
REMARK  4 active torsions:
REMARK  status: ('A' for Active; 'I' for Inactive)
REMARK    1  A    between atoms: C_2  and  C_4
REMARK    2  A    between atoms: C_7  and  N_8
REMARK    3  A    between atoms: N_8  and  C_9
REMARK    4  A    between atoms: C_9  and  C_10
REMARK                            x       y       z     vdW  Elec       q    Type
REMARK                         _______ _______ _______ _____ _____    ______ ____
ROOT
ATOM      1  N   UNL     1      46.391   7.343  13.313  0.00  0.00    +0.000 N 
ATOM      2  H   UNL     1      46.203   7.390  14.314  0.00  0.00    +0.000 HD
ENDROOT
BRANCH   1   6
ATOM      3  C   UNL     1      44.624   4.010  11.568  0.00  0.00    +0.000 A 
ATOM      4  C   UNL     1      44.920   5.087  10.745  0.00  0.00    +0.000 A 
ATOM      5  C   UNL     1      45.549   6.203  11.302  0.00  0.00    +0.000 A 
ATOM      6  C   UNL     1      45.878   6.226  12.664  0.00  0.00    +0.000 A 
ATOM      7  C   UNL     1      45.504   5.090  13.394  0.00  0.00    +0.000 A 
ATOM      8  N   UNL     1      44.904   3.979  12.898  0.00  0.00    +0.000 NA
BRANCH   3  10
ATOM      9  N   UNL     1      44.549   2.203   9.924  0.00  0.00    +0.000 N 
ATOM     10  C   UNL     1      43.950   2.797  11.002  0.00  0.00    +0.000 C 
ATOM     11  O   UNL     1      42.923   2.331  11.487  0.00  0.00    +0.000 OA
ATOM     12  H   UNL     1      44.169   1.324   9.606  0.00  0.00    +0.000 HD
ATOM     13  H   UNL     1      45.496   2.463   9.671  0.00  0.00    +0.000 HD
ENDBRANCH   3  10
ENDBRANCH   1   6
BRANCH   1  14
ATOM     14  C   UNL     1      47.731   7.861  12.995  0.00  0.00    +0.000 C 
BRANCH  14  15
ATOM     15  C   UNL     1      48.783   7.382  13.994  0.00  0.00    +0.000 A 
ATOM     16  N   UNL     1      49.994   7.951  13.945  0.00  0.00    +0.000 NA
ATOM     17  C   UNL     1      50.809   7.560  14.914  0.00  0.00    +0.000 A 
ATOM     18  N   UNL     1      50.519   6.709  15.887  0.00  0.00    +0.000 NA
ATOM     19  C   UNL     1      49.307   6.170  15.848  0.00  0.00    +0.000 A 
ATOM     20  N   UNL     1      48.977   5.254  16.810  0.00  0.00    +0.000 N 
ATOM     21  C   UNL     1      49.926   4.891  17.863  0.00  0.00    +0.000 C 
ATOM     22  C   UNL     1      50.252   3.393  17.800  0.00  0.00    +0.000 C 
ATOM     23  O   UNL     1      49.057   2.593  17.789  0.00  0.00    +0.000 OA
ATOM     24  C   UNL     1      48.251   2.919  16.645  0.00  0.00    +0.000 C 
ATOM     25  C   UNL     1      47.811   4.390  16.660  0.00  0.00    +0.000 C 
ATOM     26  N   UNL     1      48.406   6.489  14.916  0.00  0.00    +0.000 NA
ENDBRANCH  14  15
ENDBRANCH   1  14
TORSDOF 4
ENDMDL
MODEL 7
REMARK VINA RESULT:    -6.329      1.638      2.524
REMARK INTER + INTRA:          -8.349
REMARK INTER:                  -8.274
REMARK INTRA:                  -0.075
REMARK UNBOUND:                -0.541
REMARK  Name = 
REMARK  4 active torsions:
REMARK  status: ('A' for Active; 'I' for Inactive)
REMARK    1  A    between atoms: C_2  and  C_4
REMARK    2  A    between atoms: C_7  and  N_8
REMARK    3  A    between atoms: N_8  and  C_9
REMARK    4  A    between atoms: C_9  and  C_10
REMARK                            x       y       z     vdW  Elec       q    Type
REMARK                         _______ _______ _______ _____ _____    ______ ____
ROOT
ATOM      1  N   UNL     1      43.674   3.977  11.220  0.00  0.00    +0.000 N 
ATOM      2  H   UNL     1      44.155   3.833  12.108  0.00  0.00    +0.000 HD
ENDROOT
BRANCH   1   6
ATOM      3  C   UNL     1      46.078   3.071   7.952  0.00  0.00    +0.000 A 
ATOM      4  C   UNL     1      45.489   2.015   8.632  0.00  0.00    +0.000 A 
ATOM      5  C   UNL     1      44.647   2.297   9.710  0.00  0.00    +0.000 A 
ATOM      6  C   UNL     1      44.399   3.622  10.088  0.00  0.00    +0.000 A 
ATOM      7  C   UNL     1      45.071   4.599   9.341  0.00  0.00    +0.000 A 
ATOM      8  N   UNL     1      45.887   4.376   8.281  0.00  0.00    +0.000 NA
BRANCH   3  10
ATOM      9  N   UNL     1      46.991   3.730   5.783  0.00  0.00    +0.000 N 
ATOM     10  C   UNL     1      46.986   2.803   6.791  0.00  0.00    +0.000 C 
ATOM     11  O   UNL     1      47.715   1.816   6.742  0.00  0.00    +0.000 OA
ATOM     12  H   UNL     1      47.678   3.619   5.052  0.00  0.00    +0.000 HD
ATOM     13  H   UNL     1      46.555   4.633   5.931  0.00  0.00    +0.000 HD
ENDBRANCH   3  10
ENDBRANCH   1   6
BRANCH   1  14
ATOM     14  C   UNL     1      42.851   5.195  11.247  0.00  0.00    +0.000 C 
BRANCH  14  15
ATOM     15  C   UNL     1      43.697   6.454  11.434  0.00  0.00    +0.000 A 
ATOM     16  N   UNL     1      43.271   7.583  10.853  0.00  0.00    +0.000 NA
ATOM     17  C   UNL     1      43.998   8.648  11.156  0.00  0.00    +0.000 A 
ATOM     18  N   UNL     1      45.046   8.678  11.966  0.00  0.00    +0.000 NA
ATOM     19  C   UNL     1      45.419   7.513  12.480  0.00  0.00    +0.000 A 
ATOM     20  N   UNL     1      46.521   7.489  13.290  0.00  0.00    +0.000 N 
ATOM     21  C   UNL     1      47.259   8.714  13.597  0.00  0.00    +0.000 C 
ATOM     22  C   UNL     1      48.710   8.606  13.107  0.00  0.00    +0.000 C 
ATOM     23  O   UNL     1      49.341   7.407  13.588  0.00  0.00    +0.000 OA
ATOM     24  C   UNL     1      48.630   6.248  13.123  0.00  0.00    +0.000 C 
ATOM     25  C   UNL     1      47.179   6.232  13.630  0.00  0.00    +0.000 C 
ATOM     26  N   UNL     1      44.761   6.377  12.241  0.00  0.00    +0.000 NA
ENDBRANCH  14  15
ENDBRANCH   1  14
TORSDOF 4
ENDMDL
MODEL 8
REMARK VINA RESULT:    -6.030      3.845      4.899
REMARK INTER + INTRA:          -7.980
REMARK INTER:                  -7.629
REMARK INTRA:                  -0.351
REMARK UNBOUND:                -0.541
REMARK  Name = 
REMARK  4 active torsions:
REMARK  status: ('A' for Active; 'I' for Inactive)
REMARK    1  A    between atoms: C_2  and  C_4
REMARK    2  A    between atoms: C_7  and  N_8
REMARK    3  A    between atoms: N_8  and  C_9
REMARK    4  A    between atoms: C_9  and  C_10
REMARK                            x       y       z     vdW  Elec       q    Type
REMARK                         _______ _______ _______ _____ _____    ______ ____
ROOT
ATOM      1  N   UNL     1      46.075   5.732  13.718  0.00  0.00    +0.000 N 
ATOM      2  H   UNL     1      45.464   5.679  14.534  0.00  0.00    +0.000 HD
ENDROOT
BRANCH   1   6
ATOM      3  C   UNL     1      45.026   3.702  10.246  0.00  0.00    +0.000 A 
ATOM      4  C   UNL     1      44.930   3.017  11.447  0.00  0.00    +0.000 A 
ATOM      5  C   UNL     1      45.240   3.690  12.631  0.00  0.00    +0.000 A 
ATOM      6  C   UNL     1      45.634   5.034  12.601  0.00  0.00    +0.000 A 
ATOM      7  C   UNL     1      45.718   5.609  11.325  0.00  0.00    +0.000 A 
ATOM      8  N   UNL     1      45.417   5.001  10.150  0.00  0.00    +0.000 NA
BRANCH   3  10
ATOM      9  N   UNL     1      44.516   1.654   9.014  0.00  0.00    +0.000 N 
ATOM     10  C   UNL     1      44.700   3.010   8.958  0.00  0.00    +0.000 C 
ATOM     11  O   UNL     1      44.574   3.619   7.899  0.00  0.00    +0.000 OA
ATOM     12  H   UNL     1      44.186   1.195   8.178  0.00  0.00    +0.000 HD
ATOM     13  H   UNL     1      44.409   1.200   9.914  0.00  0.00    +0.000 HD
ENDBRANCH   3  10
ENDBRANCH   1   6
BRANCH   1  14
ATOM     14  C   UNL     1      47.493   5.729  14.110  0.00  0.00    +0.000 C 
BRANCH  14  15
ATOM     15  C   UNL     1      47.707   5.094  15.483  0.00  0.00    +0.000 A 
ATOM     16  N   UNL     1      46.987   4.005  15.786  0.00  0.00    +0.000 NA
ATOM     17  C   UNL     1      47.313   3.454  16.945  0.00  0.00    +0.000 A 
ATOM     18  N   UNL     1      48.262   3.867  17.771  0.00  0.00    +0.000 NA
ATOM     19  C   UNL     1      48.911   4.967  17.411  0.00  0.00    +0.000 A 
ATOM     20  N   UNL     1      49.873   5.454  18.253  0.00  0.00    +0.000 N 
ATOM     21  C   UNL     1      50.192   4.773  19.508  0.00  0.00    +0.000 C 
ATOM     22  C   UNL     1      49.929   5.698  20.704  0.00  0.00    +0.000 C 
ATOM     23  O   UNL     1      50.585   6.967  20.544  0.00  0.00    +0.000 OA
ATOM     24  C   UNL     1      50.109   7.628  19.360  0.00  0.00    +0.000 C 
ATOM     25  C   UNL     1      50.398   6.806  18.095  0.00  0.00    +0.000 C 
ATOM     26  N   UNL     1      48.664   5.606  16.265  0.00  0.00    +0.000 NA
ENDBRANCH  14  15
ENDBRANCH   1  14
TORSDOF 4
ENDMDL
