MODEL 1
REMARK VINA RESULT:    -6.542      0.000      0.000
REMARK INTER + INTRA:          -8.560
REMARK INTER:                  -8.263
REMARK INTRA:                  -0.297
REMARK UNBOUND:                -0.297
REMARK  Name = 
REMARK  5 active torsions:
REMARK  status: ('A' for Active; 'I' for Inactive)
REMARK    1  A    between atoms: N_1  and  C_2
REMARK    2  A    between atoms: C_2  and  C_3
REMARK    3  A    between atoms: N_6  and  C_7
REMARK    4  A    between atoms: C_7  and  C_8
REMARK    5  A    between atoms: C_15  and  C_16
REMARK                            x       y       z     vdW  Elec       q    Type
REMARK                         _______ _______ _______ _____ _____    ______ ____
ROOT
ATOM      1  C   UNL     1      44.757   6.047  11.773  0.00  0.00    +0.000 A 
ATOM      2  N   UNL     1      43.987   5.886  12.854  0.00  0.00    +0.000 NA
ATOM      3  S   UNL     1      43.334   4.373  12.838  0.00  0.00    +0.000 S 
ATOM      4  C   UNL     1      44.050   3.868  11.363  0.00  0.00    +0.000 A 
ATOM      5  C   UNL     1      43.889   2.662  10.667  0.00  0.00    +0.000 A 
ATOM      6  C   UNL     1      44.575   2.503   9.463  0.00  0.00    +0.000 A 
ATOM      7  F   UNL     1      44.373   1.362   8.785  0.00  0.00    +0.000 F 
ATOM      8  C   UNL     1      45.428   3.489   8.973  0.00  0.00    +0.000 A 
ATOM      9  C   UNL     1      45.596   4.680   9.702  0.00  0.00    +0.000 A 
ATOM     10  C   UNL     1      44.871   4.898  10.899  0.00  0.00    +0.000 A 
ENDROOT
BRANCH   8  11
ATOM     11  C   UNL     1      46.147   3.358   7.678  0.00  0.00    +0.000 C 
ATOM     12  N   UNL     1      46.677   2.146   7.351  0.00  0.00    +0.000 N 
ATOM     13  O   UNL     1      46.242   4.303   6.903  0.00  0.00    +0.000 OA
ATOM     14  H   UNL     1      46.620   1.330   7.948  0.00  0.00    +0.000 HD
ATOM     15  H   UNL     1      47.128   2.056   6.449  0.00  0.00    +0.000 HD
ENDBRANCH   8  11
BRANCH   1  16
ATOM     16  C   UNL     1      45.348   7.417  11.538  0.00  0.00    +0.000 C 
BRANCH  16  20
ATOM     17  C   UNL     1      49.360   8.323  12.932  0.00  0.00    +0.000 C 
ATOM     18  C   UNL     1      48.745   6.935  13.156  0.00  0.00    +0.000 C 
ATOM     19  C   UNL     1      47.496   6.680  12.310  0.00  0.00    +0.000 C 
ATOM     20  N   UNL     1      46.483   7.748  12.429  0.00  0.00    +0.000 NA
ATOM     21  C   UNL     1      47.066   9.059  12.109  0.00  0.00    +0.000 C 
ATOM     22  C   UNL     1      48.244   9.370  13.038  0.00  0.00    +0.000 C 
BRANCH  17  23
ATOM     23  C   UNL     1      50.121   8.489  11.602  0.00  0.00    +0.000 C 
BRANCH  23  24
ATOM     24  N   UNL     1      50.993   7.360  11.300  0.00  0.00    +0.000 NA
ATOM     25  H   UNL     1      51.171   6.836  12.158  0.00  0.00    +0.000 HD
ATOM     26  H   UNL     1      51.902   7.697  10.988  0.00  0.00    +0.000 HD
ENDBRANCH  23  24
ENDBRANCH  17  23
ENDBRANCH  16  20
ENDBRANCH   1  16
TORSDOF 5
ENDMDL
MODEL 2
REMARK VINA RESULT:    -6.520      3.767      4.950
REMARK INTER + INTRA:          -8.532
REMARK INTER:                  -8.319
REMARK INTRA:                  -0.213
REMARK UNBOUND:                -0.297
REMARK  Name = 
REMARK  5 active torsions:
REMARK  status: ('A' for Active; 'I' for Inactive)
REMARK    1  A    between atoms: N_1  and  C_2
REMARK    2  A    between atoms: C_2  and  C_3
REMARK    3  A    between atoms: N_6  and  C_7
REMARK    4  A    between atoms: C_7  and  C_8
REMARK    5  A    between atoms: C_15  and  C_16
REMARK                            x       y       z     vdW  Elec       q    Type
REMARK                         _______ _______ _______ _____ _____    ______ ____
ROOT
ATOM      1  C   UNL     1      47.231   6.992  13.669  0.00  0.00    +0.000 A 
ATOM      2  N   UNL     1      47.187   8.326  13.740  0.00  0.00    +0.000 NA
ATOM      3  S   UNL     1      45.894   8.877  12.881  0.00  0.00    +0.000 S 
ATOM      4  C   UNL     1      45.338   7.339  12.360  0.00  0.00    +0.000 A 
ATOM      5  C   UNL     1      44.268   7.024  11.510  0.00  0.00    +0.000 A 
ATOM      6  C   UNL     1      44.034   5.680  11.221  0.00  0.00    +0.000 A 
ATOM      7  F   UNL     1      43.036   5.399  10.369  0.00  0.00    +0.000 F 
ATOM      8  C   UNL     1      44.807   4.667  11.782  0.00  0.00    +0.000 A 
ATOM      9  C   UNL     1      45.858   5.004  12.654  0.00  0.00    +0.000 A 
ATOM     10  C   UNL     1      46.160   6.361  12.925  0.00  0.00    +0.000 A 
ENDROOT
BRANCH   8  11
ATOM     11  C   UNL     1      44.599   3.229  11.468  0.00  0.00    +0.000 C 
ATOM     12  N   UNL     1      44.026   2.435  12.416  0.00  0.00    +0.000 N 
ATOM     13  O   UNL     1      44.903   2.764  10.375  0.00  0.00    +0.000 OA
ATOM     14  H   UNL     1      43.745   2.767  13.331  0.00  0.00    +0.000 HD
ATOM     15  H   UNL     1      43.849   1.467  12.177  0.00  0.00    +0.000 HD
ENDBRANCH   8  11
BRANCH   1  16
ATOM     16  C   UNL     1      48.421   6.300  14.290  0.00  0.00    +0.000 C 
BRANCH  16  20
ATOM     17  C   UNL     1      48.573   3.629  17.711  0.00  0.00    +0.000 C 
ATOM     18  C   UNL     1      47.399   3.577  16.725  0.00  0.00    +0.000 C 
ATOM     19  C   UNL     1      47.671   4.319  15.416  0.00  0.00    +0.000 C 
ATOM     20  N   UNL     1      48.149   5.702  15.617  0.00  0.00    +0.000 NA
ATOM     21  C   UNL     1      49.338   5.722  16.481  0.00  0.00    +0.000 C 
ATOM     22  C   UNL     1      49.032   5.088  17.841  0.00  0.00    +0.000 C 
BRANCH  17  23
ATOM     23  C   UNL     1      49.768   2.726  17.347  0.00  0.00    +0.000 C 
BRANCH  23  24
ATOM     24  N   UNL     1      49.470   1.798  16.263  0.00  0.00    +0.000 NA
ATOM     25  H   UNL     1      49.643   2.260  15.369  0.00  0.00    +0.000 HD
ATOM     26  H   UNL     1      48.478   1.566  16.267  0.00  0.00    +0.000 HD
ENDBRANCH  23  24
ENDBRANCH  17  23
ENDBRANCH  16  20
ENDBRANCH   1  16
TORSDOF 5
ENDMDL
MODEL 3
REMARK VINA RESULT:    -6.257      4.354      5.778
REMARK INTER + INTRA:          -8.200
REMARK INTER:                  -7.768
REMARK INTRA:                  -0.432
REMARK UNBOUND:                -0.297
REMARK  Name = 
REMARK  5 active torsions:
REMARK  status: ('A' for Active; 'I' for Inactive)
REMARK    1  A    between atoms: N_1  and  C_2
REMARK    2  A    between atoms: C_2  and  C_3
REMARK    3  A    between atoms: N_6  and  C_7
REMARK    4  A    between atoms: C_7  and  C_8
REMARK    5  A    between atoms: C_15  and  C_16
REMARK                            x       y       z     vdW  Elec       q    Type
REMARK                         _______ _______ _______ _____ _____    ______ ____
ROOT
ATOM      1  C   UNL     1      47.938   6.874  13.976  0.00  0.00    +0.000 A 
ATOM      2  N   UNL     1      48.892   7.551  13.327  0.00  0.00    +0.000 NA
ATOM      3  S   UNL     1      48.554   7.556  11.714  0.00  0.00    +0.000 S 
ATOM      4  C   UNL     1      47.111   6.632  11.814  0.00  0.00    +0.000 A 
ATOM      5  C   UNL     1      46.278   6.176  10.783  0.00  0.00    +0.000 A 
ATOM      6  C   UNL     1      45.161   5.415  11.131  0.00  0.00    +0.000 A 
ATOM      7  F   UNL     1      44.401   4.946  10.130  0.00  0.00    +0.000 F 
ATOM      8  C   UNL     1      44.850   5.142  12.460  0.00  0.00    +0.000 A 
ATOM      9  C   UNL     1      45.684   5.634  13.480  0.00  0.00    +0.000 A 
ATOM     10  C   UNL     1      46.857   6.361  13.160  0.00  0.00    +0.000 A 
ENDROOT
BRANCH   8  11
ATOM     11  C   UNL     1      43.684   4.309  12.857  0.00  0.00    +0.000 C 
ATOM     12  N   UNL     1      43.797   2.953  12.773  0.00  0.00    +0.000 N 
ATOM     13  O   UNL     1      42.651   4.817  13.280  0.00  0.00    +0.000 OA
ATOM     14  H   UNL     1      44.629   2.480  12.441  0.00  0.00    +0.000 HD
ATOM     15  H   UNL     1      43.014   2.394  13.085  0.00  0.00    +0.000 HD
ENDBRANCH   8  11
BRANCH   1  16
ATOM     16  C   UNL     1      48.132   6.647  15.456  0.00  0.00    +0.000 C 
BRANCH  16  20
ATOM     17  C   UNL     1      48.954   2.995  17.660  0.00  0.00    +0.000 C 
ATOM     18  C   UNL     1      50.038   4.068  17.485  0.00  0.00    +0.000 C 
ATOM     19  C   UNL     1      49.489   5.412  17.002  0.00  0.00    +0.000 C 
ATOM     20  N   UNL     1      48.639   5.298  15.800  0.00  0.00    +0.000 NA
ATOM     21  C   UNL     1      47.545   4.342  16.023  0.00  0.00    +0.000 C 
ATOM     22  C   UNL     1      48.097   2.961  16.388  0.00  0.00    +0.000 C 
BRANCH  17  23
ATOM     23  C   UNL     1      48.059   3.173  18.901  0.00  0.00    +0.000 C 
BRANCH  23  24
ATOM     24  N   UNL     1      48.788   3.666  20.064  0.00  0.00    +0.000 NA
ATOM     25  H   UNL     1      49.600   4.198  19.749  0.00  0.00    +0.000 HD
ATOM     26  H   UNL     1      49.162   2.882  20.597  0.00  0.00    +0.000 HD
ENDBRANCH  23  24
ENDBRANCH  17  23
ENDBRANCH  16  20
ENDBRANCH   1  16
TORSDOF 5
ENDMDL
MODEL 4
REMARK VINA RESULT:    -6.090      4.759      6.177
REMARK INTER + INTRA:          -7.990
REMARK INTER:                  -7.410
REMARK INTRA:                  -0.580
REMARK UNBOUND:                -0.297
REMARK  Name = 
REMARK  5 active torsions:
REMARK  status: ('A' for Active; 'I' for Inactive)
REMARK    1  A    between atoms: N_1  and  C_2
REMARK    2  A    between atoms: C_2  and  C_3
REMARK    3  A    between atoms: N_6  and  C_7
REMARK    4  A    between atoms: C_7  and  C_8
REMARK    5  A    between atoms: C_15  and  C_16
REMARK                            x       y       z     vdW  Elec       q    Type
REMARK                         _______ _______ _______ _____ _____    ______ ____
ROOT
ATOM      1  C   UNL     1      49.001   7.012  14.528  0.00  0.00    +0.000 A 
ATOM      2  N   UNL     1      49.711   8.050  14.074  0.00  0.00    +0.000 NA
ATOM      3  S   UNL     1      49.156   8.480  12.584  0.00  0.00    +0.000 S 
ATOM      4  C   UNL     1      47.939   7.275  12.475  0.00  0.00    +0.000 A 
ATOM      5  C   UNL     1      47.068   6.988  11.413  0.00  0.00    +0.000 A 
ATOM      6  C   UNL     1      46.173   5.930  11.568  0.00  0.00    +0.000 A 
ATOM      7  F   UNL     1      45.380   5.638  10.525  0.00  0.00    +0.000 F 
ATOM      8  C   UNL     1      46.107   5.196  12.749  0.00  0.00    +0.000 A 
ATOM      9  C   UNL     1      46.971   5.519  13.812  0.00  0.00    +0.000 A 
ATOM     10  C   UNL     1      47.931   6.550  13.668  0.00  0.00    +0.000 A 
ENDROOT
BRANCH   8  11
ATOM     11  C   UNL     1      45.184   4.044  12.929  0.00  0.00    +0.000 C 
ATOM     12  N   UNL     1      45.653   2.791  12.670  0.00  0.00    +0.000 N 
ATOM     13  O   UNL     1      44.036   4.203  13.329  0.00  0.00    +0.000 OA
ATOM     14  H   UNL     1      46.594   2.600  12.348  0.00  0.00    +0.000 HD
ATOM     15  H   UNL     1      45.031   2.011  12.837  0.00  0.00    +0.000 HD
ENDBRANCH   8  11
BRANCH   1  16
ATOM     16  C   UNL     1      49.440   6.385  15.830  0.00  0.00    +0.000 C 
BRANCH  16  20
ATOM     17  C   UNL     1      47.499   5.957  19.692  0.00  0.00    +0.000 C 
ATOM     18  C   UNL     1      47.044   5.123  18.487  0.00  0.00    +0.000 C 
ATOM     19  C   UNL     1      48.041   5.137  17.327  0.00  0.00    +0.000 C 
ATOM     20  N   UNL     1      48.446   6.499  16.922  0.00  0.00    +0.000 NA
ATOM     21  C   UNL     1      48.977   7.248  18.070  0.00  0.00    +0.000 C 
ATOM     22  C   UNL     1      47.933   7.340  19.187  0.00  0.00    +0.000 C 
BRANCH  17  23
ATOM     23  C   UNL     1      48.621   5.322  20.535  0.00  0.00    +0.000 C 
BRANCH  23  24
ATOM     24  N   UNL     1      48.449   3.886  20.723  0.00  0.00    +0.000 NA
ATOM     25  H   UNL     1      48.899   3.606  21.596  0.00  0.00    +0.000 HD
ATOM     26  H   UNL     1      48.935   3.378  19.986  0.00  0.00    +0.000 HD
ENDBRANCH  23  24
ENDBRANCH  17  23
ENDBRANCH  16  20
ENDBRANCH   1  16
TORSDOF 5
ENDMDL
MODEL 5
REMARK VINA RESULT:    -5.911      3.512      6.260
REMARK INTER + INTRA:          -7.763
REMARK INTER:                  -7.912
REMARK INTRA:                   0.150
REMARK UNBOUND:                -0.297
REMARK  Name = 
REMARK  5 active torsions:
REMARK  status: ('A' for Active; 'I' for Inactive)
REMARK    1  A    between atoms: N_1  and  C_2
REMARK    2  A    between atoms: C_2  and  C_3
REMARK    3  A    between atoms: N_6  and  C_7
REMARK    4  A    between atoms: C_7  and  C_8
REMARK    5  A    between atoms: C_15  and  C_16
REMARK                            x       y       z     vdW  Elec       q    Type
REMARK                         _______ _______ _______ _____ _____    ______ ____
ROOT
ATOM      1  C   UNL     1      44.809   4.297  12.751  0.00  0.00    +0.000 A 
ATOM      2  N   UNL     1      45.652   3.401  13.275  0.00  0.00    +0.000 NA
ATOM      3  S   UNL     1      47.057   4.153  13.692  0.00  0.00    +0.000 S 
ATOM      4  C   UNL     1      46.600   5.723  13.170  0.00  0.00    +0.000 A 
ATOM      5  C   UNL     1      47.350   6.908  13.160  0.00  0.00    +0.000 A 
ATOM      6  C   UNL     1      46.747   8.061  12.659  0.00  0.00    +0.000 A 
ATOM      7  F   UNL     1      47.494   9.175  12.613  0.00  0.00    +0.000 F 
ATOM      8  C   UNL     1      45.428   8.060  12.213  0.00  0.00    +0.000 A 
ATOM      9  C   UNL     1      44.685   6.867  12.258  0.00  0.00    +0.000 A 
ATOM     10  C   UNL     1      45.283   5.665  12.707  0.00  0.00    +0.000 A 
ENDROOT
BRANCH   8  11
ATOM     11  C   UNL     1      44.771   9.268  11.646  0.00  0.00    +0.000 C 
ATOM     12  N   UNL     1      43.691   9.096  10.833  0.00  0.00    +0.000 N 
ATOM     13  O   UNL     1      45.164  10.396  11.920  0.00  0.00    +0.000 OA
ATOM     14  H   UNL     1      43.317   8.189  10.581  0.00  0.00    +0.000 HD
ATOM     15  H   UNL     1      43.225   9.925  10.486  0.00  0.00    +0.000 HD
ENDBRANCH   8  11
BRANCH   1  16
ATOM     16  C   UNL     1      43.507   3.780  12.187  0.00  0.00    +0.000 C 
BRANCH  16  20
ATOM     17  C   UNL     1      44.988   3.148   8.154  0.00  0.00    +0.000 C 
ATOM     18  C   UNL     1      43.928   4.219   8.442  0.00  0.00    +0.000 C 
ATOM     19  C   UNL     1      43.782   4.544   9.930  0.00  0.00    +0.000 C 
ATOM     20  N   UNL     1      43.588   3.347  10.774  0.00  0.00    +0.000 NA
ATOM     21  C   UNL     1      44.671   2.377  10.559  0.00  0.00    +0.000 C 
ATOM     22  C   UNL     1      44.740   1.956   9.088  0.00  0.00    +0.000 C 
BRANCH  17  23
ATOM     23  C   UNL     1      46.447   3.629   8.280  0.00  0.00    +0.000 C 
BRANCH  23  24
ATOM     24  N   UNL     1      46.935   4.290   7.075  0.00  0.00    +0.000 NA
ATOM     25  H   UNL     1      46.226   4.945   6.742  0.00  0.00    +0.000 HD
ATOM     26  H   UNL     1      47.054   3.608   6.328  0.00  0.00    +0.000 HD
ENDBRANCH  23  24
ENDBRANCH  17  23
ENDBRANCH  16  20
ENDBRANCH   1  16
TORSDOF 5
ENDMDL
MODEL 6
REMARK VINA RESULT:    -5.647      2.972      4.320
REMARK INTER + INTRA:          -7.430
REMARK INTER:                  -7.134
REMARK INTRA:                  -0.296
REMARK UNBOUND:                -0.297
REMARK  Name = 
REMARK  5 active torsions:
REMARK  status: ('A' for Active; 'I' for Inactive)
REMARK    1  A    between atoms: N_1  and  C_2
REMARK    2  A    between atoms: C_2  and  C_3
REMARK    3  A    between atoms: N_6  and  C_7
REMARK    4  A    between atoms: C_7  and  C_8
REMARK    5  A    between atoms: C_15  and  C_16
REMARK                            x       y       z     vdW  Elec       q    Type
REMARK                         _______ _______ _______ _____ _____    ______ ____
ROOT
ATOM      1  C   UNL     1      47.519   7.537  12.437  0.00  0.00    +0.000 A 
ATOM      2  N   UNL     1      47.315   8.855  12.539  0.00  0.00    +0.000 NA
ATOM      3  S   UNL     1      45.729   9.186  12.239  0.00  0.00    +0.000 S 
ATOM      4  C   UNL     1      45.245   7.566  11.942  0.00  0.00    +0.000 A 
ATOM      5  C   UNL     1      43.991   7.072  11.554  0.00  0.00    +0.000 A 
ATOM      6  C   UNL     1      43.861   5.698  11.355  0.00  0.00    +0.000 A 
ATOM      7  F   UNL     1      42.668   5.247  10.938  0.00  0.00    +0.000 F 
ATOM      8  C   UNL     1      44.925   4.826  11.568  0.00  0.00    +0.000 A 
ATOM      9  C   UNL     1      46.167   5.339  11.984  0.00  0.00    +0.000 A 
ATOM     10  C   UNL     1      46.350   6.735  12.141  0.00  0.00    +0.000 A 
ENDROOT
BRANCH   8  11
ATOM     11  C   UNL     1      44.822   3.361  11.333  0.00  0.00    +0.000 C 
ATOM     12  N   UNL     1      44.533   2.554  12.394  0.00  0.00    +0.000 N 
ATOM     13  O   UNL     1      44.963   2.882  10.214  0.00  0.00    +0.000 OA
ATOM     14  H   UNL     1      44.397   2.896  13.337  0.00  0.00    +0.000 HD
ATOM     15  H   UNL     1      44.423   1.564  12.216  0.00  0.00    +0.000 HD
ENDBRANCH   8  11
BRANCH   1  16
ATOM     16  C   UNL     1      48.941   7.043  12.552  0.00  0.00    +0.000 C 
BRANCH  16  20
ATOM     17  C   UNL     1      49.496   7.219  16.856  0.00  0.00    +0.000 C 
ATOM     18  C   UNL     1      50.655   7.535  15.901  0.00  0.00    +0.000 C 
ATOM     19  C   UNL     1      50.206   7.768  14.457  0.00  0.00    +0.000 C 
ATOM     20  N   UNL     1      49.348   6.687  13.931  0.00  0.00    +0.000 NA
ATOM     21  C   UNL     1      48.187   6.469  14.806  0.00  0.00    +0.000 C 
ATOM     22  C   UNL     1      48.637   6.115  16.226  0.00  0.00    +0.000 C 
BRANCH  17  23
ATOM     23  C   UNL     1      48.617   8.428  17.233  0.00  0.00    +0.000 C 
BRANCH  23  24
ATOM     24  N   UNL     1      47.546   8.085  18.161  0.00  0.00    +0.000 NA
ATOM     25  H   UNL     1      47.480   8.808  18.879  0.00  0.00    +0.000 HD
ATOM     26  H   UNL     1      47.776   7.225  18.655  0.00  0.00    +0.000 HD
ENDBRANCH  23  24
ENDBRANCH  17  23
ENDBRANCH  16  20
ENDBRANCH   1  16
TORSDOF 5
ENDMDL
MODEL 7
REMARK VINA RESULT:    -5.456      3.959      7.086
REMARK INTER + INTRA:          -7.188
REMARK INTER:                  -6.738
REMARK INTRA:                  -0.450
REMARK UNBOUND:                -0.297
REMARK  Name = 
REMARK  5 active torsions:
REMARK  status: ('A' for Active; 'I' for Inactive)
REMARK    1  A    between atoms: N_1  and  C_2
REMARK    2  A    between atoms: C_2  and  C_3
REMARK    3  A    between atoms: N_6  and  C_7
REMARK    4  A    between atoms: C_7  and  C_8
REMARK    5  A    between atoms: C_15  and  C_16
REMARK                            x       y       z     vdW  Elec       q    Type
REMARK                         _______ _______ _______ _____ _____    ______ ____
ROOT
ATOM      1  C   UNL     1      48.103   7.659  12.690  0.00  0.00    +0.000 A 
ATOM      2  N   UNL     1      47.433   8.631  13.317  0.00  0.00    +0.000 NA
ATOM      3  S   UNL     1      48.243  10.055  13.138  0.00  0.00    +0.000 S 
ATOM      4  C   UNL     1      49.546   9.422  12.217  0.00  0.00    +0.000 A 
ATOM      5  C   UNL     1      50.692  10.074  11.739  0.00  0.00    +0.000 A 
ATOM      6  C   UNL     1      51.624   9.321  11.025  0.00  0.00    +0.000 A 
ATOM      7  F   UNL     1      52.738   9.948  10.615  0.00  0.00    +0.000 F 
ATOM      8  C   UNL     1      51.418   7.971  10.754  0.00  0.00    +0.000 A 
ATOM      9  C   UNL     1      50.248   7.344  11.218  0.00  0.00    +0.000 A 
ATOM     10  C   UNL     1      49.308   8.064  11.996  0.00  0.00    +0.000 A 
ENDROOT
BRANCH   8  11
ATOM     11  C   UNL     1      52.409   7.138  10.021  0.00  0.00    +0.000 C 
ATOM     12  N   UNL     1      53.387   6.515  10.737  0.00  0.00    +0.000 N 
ATOM     13  O   UNL     1      52.339   6.985   8.807  0.00  0.00    +0.000 OA
ATOM     14  H   UNL     1      53.486   6.598  11.741  0.00  0.00    +0.000 HD
ATOM     15  H   UNL     1      54.031   5.917  10.235  0.00  0.00    +0.000 HD
ENDBRANCH   8  11
BRANCH   1  16
ATOM     16  C   UNL     1      47.587   6.248  12.844  0.00  0.00    +0.000 C 
BRANCH  16  20
ATOM     17  C   UNL     1      43.728   4.618  11.699  0.00  0.00    +0.000 C 
ATOM     18  C   UNL     1      44.403   5.707  10.855  0.00  0.00    +0.000 C 
ATOM     19  C   UNL     1      45.881   5.909  11.193  0.00  0.00    +0.000 C 
ATOM     20  N   UNL     1      46.128   6.110  12.635  0.00  0.00    +0.000 NA
ATOM     21  C   UNL     1      45.564   5.003  13.420  0.00  0.00    +0.000 C 
ATOM     22  C   UNL     1      44.057   4.877  13.175  0.00  0.00    +0.000 C 
BRANCH  17  23
ATOM     23  C   UNL     1      44.102   3.173  11.316  0.00  0.00    +0.000 C 
BRANCH  23  24
ATOM     24  N   UNL     1      43.058   2.209  11.643  0.00  0.00    +0.000 NA
ATOM     25  H   UNL     1      43.130   1.960  12.630  0.00  0.00    +0.000 HD
ATOM     26  H   UNL     1      43.211   1.344  11.128  0.00  0.00    +0.000 HD
ENDBRANCH  23  24
ENDBRANCH  17  23
ENDBRANCH  16  20
ENDBRANCH   1  16
TORSDOF 5
ENDMDL
MODEL 8
REMARK VINA RESULT:    -5.286      4.997      6.258
REMARK INTER + INTRA:          -6.974
REMARK INTER:                  -6.542
REMARK INTRA:                  -0.432
REMARK UNBOUND:                -0.297
REMARK  Name = 
REMARK  5 active torsions:
REMARK  status: ('A' for Active; 'I' for Inactive)
REMARK    1  A    between atoms: N_1  and  C_2
REMARK    2  A    between atoms: C_2  and  C_3
REMARK    3  A    between atoms: N_6  and  C_7
REMARK    4  A    between atoms: C_7  and  C_8
REMARK    5  A    between atoms: C_15  and  C_16
REMARK                            x       y       z     vdW  Elec       q    Type
REMARK                         _______ _______ _______ _____ _____    ______ ____
ROOT
ATOM      1  C   UNL     1      48.478   6.389  14.973  0.00  0.00    +0.000 A 
ATOM      2  N   UNL     1      49.374   7.331  14.662  0.00  0.00    +0.000 NA
ATOM      3  S   UNL     1      49.098   7.862  13.127  0.00  0.00    +0.000 S 
ATOM      4  C   UNL     1      47.763   6.834  12.803  0.00  0.00    +0.000 A 
ATOM      5  C   UNL     1      47.023   6.688  11.621  0.00  0.00    +0.000 A 
ATOM      6  C   UNL     1      45.985   5.756  11.609  0.00  0.00    +0.000 A 
ATOM      7  F   UNL     1      45.317   5.594  10.456  0.00  0.00    +0.000 F 
ATOM      8  C   UNL     1      45.656   5.014  12.740  0.00  0.00    +0.000 A 
ATOM      9  C   UNL     1      46.394   5.197  13.924  0.00  0.00    +0.000 A 
ATOM     10  C   UNL     1      47.491   6.093  13.955  0.00  0.00    +0.000 A 
ENDROOT
BRANCH   8  11
ATOM     11  C   UNL     1      44.575   3.993  12.746  0.00  0.00    +0.000 C 
ATOM     12  N   UNL     1      44.897   2.706  12.432  0.00  0.00    +0.000 N 
ATOM     13  O   UNL     1      43.425   4.284  13.052  0.00  0.00    +0.000 OA
ATOM     14  H   UNL     1      45.832   2.407  12.182  0.00  0.00    +0.000 HD
ATOM     15  H   UNL     1      44.163   2.011  12.480  0.00  0.00    +0.000 HD
ENDBRANCH   8  11
BRANCH   1  16
ATOM     16  C   UNL     1      48.642   5.683  16.298  0.00  0.00    +0.000 C 
BRANCH  16  20
ATOM     17  C   UNL     1      51.437   6.197  19.581  0.00  0.00    +0.000 C 
ATOM     18  C   UNL     1      50.322   7.221  19.332  0.00  0.00    +0.000 C 
ATOM     19  C   UNL     1      49.236   6.716  18.380  0.00  0.00    +0.000 C 
ATOM     20  N   UNL     1      49.774   6.180  17.112  0.00  0.00    +0.000 NA
ATOM     21  C   UNL     1      50.766   5.127  17.371  0.00  0.00    +0.000 C 
ATOM     22  C   UNL     1      51.919   5.665  18.225  0.00  0.00    +0.000 C 
BRANCH  17  23
ATOM     23  C   UNL     1      51.050   5.026  20.505  0.00  0.00    +0.000 C 
BRANCH  23  24
ATOM     24  N   UNL     1      52.171   4.143  20.806  0.00  0.00    +0.000 NA
ATOM     25  H   UNL     1      51.819   3.293  21.247  0.00  0.00    +0.000 HD
ATOM     26  H   UNL     1      52.781   4.579  21.495  0.00  0.00    +0.000 HD
ENDBRANCH  23  24
ENDBRANCH  17  23
ENDBRANCH  16  20
ENDBRANCH   1  16
TORSDOF 5
ENDMDL
MODEL 9
REMARK VINA RESULT:    -5.184      2.617      3.673
REMARK INTER + INTRA:          -6.845
REMARK INTER:                  -6.681
REMARK INTRA:                  -0.164
REMARK UNBOUND:                -0.297
REMARK  Name = 
REMARK  5 active torsions:
REMARK  status: ('A' for Active; 'I' for Inactive)
REMARK    1  A    between atoms: N_1  and  C_2
REMARK    2  A    between atoms: C_2  and  C_3
REMARK    3  A    between atoms: N_6  and  C_7
REMARK    4  A    between atoms: C_7  and  C_8
REMARK    5  A    between atoms: C_15  and  C_16
REMARK                            x       y       z     vdW  Elec       q    Type
REMARK                         _______ _______ _______ _____ _____    ______ ____
ROOT
ATOM      1  C   UNL     1      47.718   7.360  13.092  0.00  0.00    +0.000 A 
ATOM      2  N   UNL     1      48.365   7.189  14.249  0.00  0.00    +0.000 NA
ATOM      3  S   UNL     1      47.940   5.737  14.902  0.00  0.00    +0.000 S 
ATOM      4  C   UNL     1      46.849   5.277  13.660  0.00  0.00    +0.000 A 
ATOM      5  C   UNL     1      46.038   4.136  13.570  0.00  0.00    +0.000 A 
ATOM      6  C   UNL     1      45.214   4.005  12.452  0.00  0.00    +0.000 A 
ATOM      7  F   UNL     1      44.409   2.932  12.404  0.00  0.00    +0.000 F 
ATOM      8  C   UNL     1      45.213   4.950  11.431  0.00  0.00    +0.000 A 
ATOM      9  C   UNL     1      46.056   6.073  11.528  0.00  0.00    +0.000 A 
ATOM     10  C   UNL     1      46.863   6.267  12.675  0.00  0.00    +0.000 A 
ENDROOT
BRANCH   8  11
ATOM     11  C   UNL     1      44.323   4.850  10.244  0.00  0.00    +0.000 C 
ATOM     12  N   UNL     1      44.880   4.530   9.042  0.00  0.00    +0.000 N 
ATOM     13  O   UNL     1      43.113   5.021  10.338  0.00  0.00    +0.000 OA
ATOM     14  H   UNL     1      45.870   4.368   8.908  0.00  0.00    +0.000 HD
ATOM     15  H   UNL     1      44.260   4.422   8.248  0.00  0.00    +0.000 HD
ENDBRANCH   8  11
BRANCH   1  16
ATOM     16  C   UNL     1      47.876   8.691  12.396  0.00  0.00    +0.000 C 
BRANCH  16  20
ATOM     17  C   UNL     1      51.979   8.988  11.004  0.00  0.00    +0.000 C 
ATOM     18  C   UNL     1      51.040  10.201  10.947  0.00  0.00    +0.000 C 
ATOM     19  C   UNL     1      49.772  10.027  11.785  0.00  0.00    +0.000 C 
ATOM     20  N   UNL     1      49.052   8.770  11.500  0.00  0.00    +0.000 NA
ATOM     21  C   UNL     1      49.941   7.611  11.661  0.00  0.00    +0.000 C 
ATOM     22  C   UNL     1      51.154   7.724  10.731  0.00  0.00    +0.000 C 
BRANCH  17  23
ATOM     23  C   UNL     1      52.766   8.837  12.321  0.00  0.00    +0.000 C 
BRANCH  23  24
ATOM     24  N   UNL     1      53.559   7.615  12.372  0.00  0.00    +0.000 NA
ATOM     25  H   UNL     1      54.207   7.603  11.583  0.00  0.00    +0.000 HD
ATOM     26  H   UNL     1      52.956   6.803  12.246  0.00  0.00    +0.000 HD
ENDBRANCH  23  24
ENDBRANCH  17  23
ENDBRANCH  16  20
ENDBRANCH   1  16
TORSDOF 5
ENDMDL
