MODEL 1
REMARK VINA RESULT:    -7.959      0.000      0.000
REMARK INTER + INTRA:         -11.593
REMARK INTER:                 -10.751
REMARK INTRA:                  -0.842
REMARK UNBOUND:                -0.842
REMARK  Name = 
REMARK  9 active torsions:
REMARK  status: ('A' for Active; 'I' for Inactive)
REMARK    1  A    between atoms: C_1  and  C_2
REMARK    2  A    between atoms: C_2  and  C_3
REMARK    3  A    between atoms: C_2  and  O_4
REMARK    4  A    between atoms: O_4  and  C_5
REMARK    5  A    between atoms: C_7  and  C_8
REMARK    6  A    between atoms: C_8  and  N_9
REMARK    7  A    between atoms: C_13  and  O_14
REMARK    8  A    between atoms: C_15  and  C_16
REMARK    9  A    between atoms: C_24  and  N_25
REMARK                            x       y       z     vdW  Elec       q    Type
REMARK                         _______ _______ _______ _____ _____    ______ ____
ROOT
ATOM      1  N   UNL     1      44.116   4.267  10.380  0.00  0.00    +0.000 N 
ATOM      2  C   UNL     1      43.720   3.074  10.928  0.00  0.00    +0.000 A 
ATOM      3  N   UNL     1      44.308   2.044  10.347  0.00  0.00    +0.000 NA
ATOM      4  C   UNL     1      45.098   2.604   9.371  0.00  0.00    +0.000 A 
ATOM      5  C   UNL     1      45.925   2.005   8.408  0.00  0.00    +0.000 A 
ATOM      6  C   UNL     1      46.593   2.847   7.512  0.00  0.00    +0.000 A 
ATOM      7  C   UNL     1      46.400   4.228   7.640  0.00  0.00    +0.000 A 
ATOM      8  N   UNL     1      45.608   4.857   8.553  0.00  0.00    +0.000 NA
ATOM      9  C   UNL     1      44.998   3.986   9.375  0.00  0.00    +0.000 A 
ENDROOT
BRANCH   6  10
ATOM     10  C   UNL     1      47.486   2.389   6.420  0.00  0.00    +0.000 C 
ATOM     11  N   UNL     1      47.421   3.046   5.228  0.00  0.00    +0.000 N 
ATOM     12  O   UNL     1      48.265   1.457   6.580  0.00  0.00    +0.000 OA
ATOM     13  H   UNL     1      46.779   3.821   5.086  0.00  0.00    +0.000 HD
ATOM     14  H   UNL     1      48.026   2.757   4.474  0.00  0.00    +0.000 HD
ENDBRANCH   6  10
BRANCH   5  15
ATOM     15  O   UNL     1      46.030   0.635   8.368  0.00  0.00    +0.000 OA
ATOM     16  H   UNL     1      45.348   0.346   7.724  0.00  0.00    +0.000 HD
ENDBRANCH   5  15
BRANCH   1  17
ATOM     17  C   UNL     1      43.546   5.571  10.652  0.00  0.00    +0.000 C 
BRANCH  17  20
ATOM     18  C   UNL     1      45.242   8.688  12.108  0.00  0.00    +0.000 A 
ATOM     19  C   UNL     1      44.421   7.891  11.296  0.00  0.00    +0.000 A 
ATOM     20  C   UNL     1      44.477   6.494  11.388  0.00  0.00    +0.000 A 
ATOM     21  C   UNL     1      45.379   5.961  12.301  0.00  0.00    +0.000 A 
ATOM     22  N   UNL     1      46.156   6.698  13.124  0.00  0.00    +0.000 NA
ATOM     23  C   UNL     1      46.049   8.037  13.049  0.00  0.00    +0.000 A 
BRANCH  23  24
ATOM     24  N   UNL     1      46.758   8.711  14.042  0.00  0.00    +0.000 N 
ATOM     25  H   UNL     1      47.107   7.995  14.676  0.00  0.00    +0.000 HD
ATOM     26  H   UNL     1      46.131   9.350  14.521  0.00  0.00    +0.000 HD
ENDBRANCH  23  24
BRANCH  18  27
ATOM     27  O   UNL     1      45.086  10.044  11.971  0.00  0.00    +0.000 OA
BRANCH  27  29
ATOM     28  C   UNL     1      43.030  11.201  11.508  0.00  0.00    +0.000 C 
ATOM     29  C   UNL     1      44.245  10.507  10.897  0.00  0.00    +0.000 C 
ATOM     30  C   UNL     1      45.026  11.516  10.052  0.00  0.00    +0.000 C 
ENDBRANCH  27  29
ENDBRANCH  18  27
ENDBRANCH  17  20
ENDBRANCH   1  17
TORSDOF 7
ENDMDL
MODEL 2
REMARK VINA RESULT:    -7.799      1.716      3.293
REMARK INTER + INTRA:         -11.377
REMARK INTER:                 -10.797
REMARK INTRA:                  -0.579
REMARK UNBOUND:                -0.842
REMARK  Name = 
REMARK  9 active torsions:
REMARK  status: ('A' for Active; 'I' for Inactive)
REMARK    1  A    between atoms: C_1  and  C_2
REMARK    2  A    between atoms: C_2  and  C_3
REMARK    3  A    between atoms: C_2  and  O_4
REMARK    4  A    between atoms: O_4  and  C_5
REMARK    5  A    between atoms: C_7  and  C_8
REMARK    6  A    between atoms: C_8  and  N_9
REMARK    7  A    between atoms: C_13  and  O_14
REMARK    8  A    between atoms: C_15  and  C_16
REMARK    9  A    between atoms: C_24  and  N_25
REMARK                            x       y       z     vdW  Elec       q    Type
REMARK                         _______ _______ _______ _____ _____    ______ ____
ROOT
ATOM      1  N   UNL     1      44.223   4.373  10.308  0.00  0.00    +0.000 N 
ATOM      2  C   UNL     1      43.743   3.203  10.839  0.00  0.00    +0.000 A 
ATOM      3  N   UNL     1      44.271   2.143  10.256  0.00  0.00    +0.000 NA
ATOM      4  C   UNL     1      45.109   2.659   9.296  0.00  0.00    +0.000 A 
ATOM      5  C   UNL     1      45.909   2.016   8.338  0.00  0.00    +0.000 A 
ATOM      6  C   UNL     1      46.643   2.821   7.460  0.00  0.00    +0.000 A 
ATOM      7  C   UNL     1      46.539   4.210   7.599  0.00  0.00    +0.000 A 
ATOM      8  N   UNL     1      45.777   4.881   8.507  0.00  0.00    +0.000 NA
ATOM      9  C   UNL     1      45.099   4.045   9.312  0.00  0.00    +0.000 A 
ENDROOT
BRANCH   6  10
ATOM     10  C   UNL     1      47.520   2.315   6.375  0.00  0.00    +0.000 C 
ATOM     11  N   UNL     1      47.452   2.933   5.163  0.00  0.00    +0.000 N 
ATOM     12  O   UNL     1      48.289   1.379   6.559  0.00  0.00    +0.000 OA
ATOM     13  H   UNL     1      46.818   3.712   5.001  0.00  0.00    +0.000 HD
ATOM     14  H   UNL     1      48.047   2.611   4.413  0.00  0.00    +0.000 HD
ENDBRANCH   6  10
BRANCH   5  15
ATOM     15  O   UNL     1      45.926   0.642   8.286  0.00  0.00    +0.000 OA
ATOM     16  H   UNL     1      45.325   0.408   7.545  0.00  0.00    +0.000 HD
ENDBRANCH   5  15
BRANCH   1  17
ATOM     17  C   UNL     1      43.735   5.709  10.585  0.00  0.00    +0.000 C 
BRANCH  17  20
ATOM     18  C   UNL     1      46.368   6.656  13.210  0.00  0.00    +0.000 A 
ATOM     19  C   UNL     1      45.527   5.867  12.409  0.00  0.00    +0.000 A 
ATOM     20  C   UNL     1      44.583   6.469  11.567  0.00  0.00    +0.000 A 
ATOM     21  C   UNL     1      44.523   7.857  11.583  0.00  0.00    +0.000 A 
ATOM     22  N   UNL     1      45.341   8.647  12.311  0.00  0.00    +0.000 NA
ATOM     23  C   UNL     1      46.271   8.046  13.075  0.00  0.00    +0.000 A 
BRANCH  23  24
ATOM     24  N   UNL     1      47.174   8.934  13.659  0.00  0.00    +0.000 N 
ATOM     25  H   UNL     1      46.883   9.036  14.628  0.00  0.00    +0.000 HD
ATOM     26  H   UNL     1      47.130   9.820  13.168  0.00  0.00    +0.000 HD
ENDBRANCH  23  24
BRANCH  18  27
ATOM     27  O   UNL     1      47.284   5.975  13.970  0.00  0.00    +0.000 OA
BRANCH  27  29
ATOM     28  C   UNL     1      47.117   3.580  13.841  0.00  0.00    +0.000 C 
ATOM     29  C   UNL     1      46.818   4.816  14.687  0.00  0.00    +0.000 C 
ATOM     30  C   UNL     1      47.573   4.712  16.012  0.00  0.00    +0.000 C 
ENDBRANCH  27  29
ENDBRANCH  18  27
ENDBRANCH  17  20
ENDBRANCH   1  17
TORSDOF 7
ENDMDL
MODEL 3
REMARK VINA RESULT:    -6.684      3.872      7.490
REMARK INTER + INTRA:          -9.871
REMARK INTER:                  -8.945
REMARK INTRA:                  -0.925
REMARK UNBOUND:                -0.842
REMARK  Name = 
REMARK  9 active torsions:
REMARK  status: ('A' for Active; 'I' for Inactive)
REMARK    1  A    between atoms: C_1  and  C_2
REMARK    2  A    between atoms: C_2  and  C_3
REMARK    3  A    between atoms: C_2  and  O_4
REMARK    4  A    between atoms: O_4  and  C_5
REMARK    5  A    between atoms: C_7  and  C_8
REMARK    6  A    between atoms: C_8  and  N_9
REMARK    7  A    between atoms: C_13  and  O_14
REMARK    8  A    between atoms: C_15  and  C_16
REMARK    9  A    between atoms: C_24  and  N_25
REMARK                            x       y       z     vdW  Elec       q    Type
REMARK                         _______ _______ _______ _____ _____    ______ ____
ROOT
ATOM      1  N   UNL     1      48.316   7.042  13.136  0.00  0.00    +0.000 N 
ATOM      2  C   UNL     1      48.819   8.113  13.830  0.00  0.00    +0.000 A 
ATOM      3  N   UNL     1      48.919   7.862  15.121  0.00  0.00    +0.000 NA
ATOM      4  C   UNL     1      48.439   6.581  15.262  0.00  0.00    +0.000 A 
ATOM      5  C   UNL     1      48.262   5.791  16.409  0.00  0.00    +0.000 A 
ATOM      6  C   UNL     1      47.714   4.514  16.239  0.00  0.00    +0.000 A 
ATOM      7  C   UNL     1      47.385   4.108  14.940  0.00  0.00    +0.000 A 
ATOM      8  N   UNL     1      47.534   4.837  13.798  0.00  0.00    +0.000 NA
ATOM      9  C   UNL     1      48.061   6.049  14.039  0.00  0.00    +0.000 A 
ENDROOT
BRANCH   6  10
ATOM     10  C   UNL     1      47.437   3.555  17.336  0.00  0.00    +0.000 C 
ATOM     11  N   UNL     1      48.409   3.363  18.272  0.00  0.00    +0.000 N 
ATOM     12  O   UNL     1      46.370   2.959  17.410  0.00  0.00    +0.000 OA
ATOM     13  H   UNL     1      49.298   3.855  18.220  0.00  0.00    +0.000 HD
ATOM     14  H   UNL     1      48.239   2.722  19.033  0.00  0.00    +0.000 HD
ENDBRANCH   6  10
BRANCH   5  15
ATOM     15  O   UNL     1      48.611   6.298  17.638  0.00  0.00    +0.000 OA
ATOM     16  H   UNL     1      49.276   5.669  17.993  0.00  0.00    +0.000 HD
ENDBRANCH   5  15
BRANCH   1  17
ATOM     17  C   UNL     1      47.914   7.029  11.744  0.00  0.00    +0.000 C 
BRANCH  17  20
ATOM     18  C   UNL     1      44.512   5.553  10.764  0.00  0.00    +0.000 A 
ATOM     19  C   UNL     1      45.900   5.757  10.802  0.00  0.00    +0.000 A 
ATOM     20  C   UNL     1      46.440   6.816  11.544  0.00  0.00    +0.000 A 
ATOM     21  C   UNL     1      45.539   7.636  12.212  0.00  0.00    +0.000 A 
ATOM     22  N   UNL     1      44.202   7.447  12.227  0.00  0.00    +0.000 NA
ATOM     23  C   UNL     1      43.713   6.394  11.546  0.00  0.00    +0.000 A 
BRANCH  23  24
ATOM     24  N   UNL     1      42.351   6.179  11.752  0.00  0.00    +0.000 N 
ATOM     25  H   UNL     1      41.897   6.368  10.862  0.00  0.00    +0.000 HD
ATOM     26  H   UNL     1      42.022   6.812  12.473  0.00  0.00    +0.000 HD
ENDBRANCH  23  24
BRANCH  18  27
ATOM     27  O   UNL     1      44.085   4.467  10.042  0.00  0.00    +0.000 OA
BRANCH  27  29
ATOM     28  C   UNL     1      43.470   2.650  11.492  0.00  0.00    +0.000 C 
ATOM     29  C   UNL     1      44.506   3.166  10.494  0.00  0.00    +0.000 C 
ATOM     30  C   UNL     1      44.565   2.216   9.296  0.00  0.00    +0.000 C 
ENDBRANCH  27  29
ENDBRANCH  18  27
ENDBRANCH  17  20
ENDBRANCH   1  17
TORSDOF 7
ENDMDL
MODEL 4
REMARK VINA RESULT:    -6.559      3.181      7.098
REMARK INTER + INTRA:          -9.701
REMARK INTER:                  -8.850
REMARK INTRA:                  -0.851
REMARK UNBOUND:                -0.842
REMARK  Name = 
REMARK  9 active torsions:
REMARK  status: ('A' for Active; 'I' for Inactive)
REMARK    1  A    between atoms: C_1  and  C_2
REMARK    2  A    between atoms: C_2  and  C_3
REMARK    3  A    between atoms: C_2  and  O_4
REMARK    4  A    between atoms: O_4  and  C_5
REMARK    5  A    between atoms: C_7  and  C_8
REMARK    6  A    between atoms: C_8  and  N_9
REMARK    7  A    between atoms: C_13  and  O_14
REMARK    8  A    between atoms: C_15  and  C_16
REMARK    9  A    between atoms: C_24  and  N_25
REMARK                            x       y       z     vdW  Elec       q    Type
REMARK                         _______ _______ _______ _____ _____    ______ ____
ROOT
ATOM      1  N   UNL     1      46.618   7.067  12.797  0.00  0.00    +0.000 N 
ATOM      2  C   UNL     1      47.340   5.958  13.154  0.00  0.00    +0.000 A 
ATOM      3  N   UNL     1      48.640   6.159  13.050  0.00  0.00    +0.000 NA
ATOM      4  C   UNL     1      48.753   7.449  12.586  0.00  0.00    +0.000 A 
ATOM      5  C   UNL     1      49.887   8.203  12.246  0.00  0.00    +0.000 A 
ATOM      6  C   UNL     1      49.683   9.501  11.764  0.00  0.00    +0.000 A 
ATOM      7  C   UNL     1      48.365   9.963  11.660  0.00  0.00    +0.000 A 
ATOM      8  N   UNL     1      47.233   9.271  11.973  0.00  0.00    +0.000 NA
ATOM      9  C   UNL     1      47.508   8.035  12.425  0.00  0.00    +0.000 A 
ENDROOT
BRANCH   6  10
ATOM     10  C   UNL     1      50.759  10.428  11.338  0.00  0.00    +0.000 C 
ATOM     11  N   UNL     1      51.902  10.459  12.080  0.00  0.00    +0.000 N 
ATOM     12  O   UNL     1      50.635  11.140  10.349  0.00  0.00    +0.000 OA
ATOM     13  H   UNL     1      52.015   9.871  12.902  0.00  0.00    +0.000 HD
ATOM     14  H   UNL     1      52.651  11.076  11.803  0.00  0.00    +0.000 HD
ENDBRANCH   6  10
BRANCH   5  15
ATOM     15  O   UNL     1      51.135   7.641  12.379  0.00  0.00    +0.000 OA
ATOM     16  H   UNL     1      51.731   8.221  11.857  0.00  0.00    +0.000 HD
ENDBRANCH   5  15
BRANCH   1  17
ATOM     17  C   UNL     1      45.182   7.142  12.626  0.00  0.00    +0.000 C 
BRANCH  17  20
ATOM     18  C   UNL     1      44.055   4.019  10.706  0.00  0.00    +0.000 A 
ATOM     19  C   UNL     1      44.557   5.306  10.953  0.00  0.00    +0.000 A 
ATOM     20  C   UNL     1      44.549   5.831  12.252  0.00  0.00    +0.000 A 
ATOM     21  C   UNL     1      44.017   5.025  13.251  0.00  0.00    +0.000 A 
ATOM     22  N   UNL     1      43.560   3.769  13.055  0.00  0.00    +0.000 NA
ATOM     23  C   UNL     1      43.623   3.271  11.806  0.00  0.00    +0.000 A 
BRANCH  23  24
ATOM     24  N   UNL     1      43.289   1.919  11.727  0.00  0.00    +0.000 N 
ATOM     25  H   UNL     1      42.298   1.860  11.949  0.00  0.00    +0.000 HD
ATOM     26  H   UNL     1      43.846   1.401  12.398  0.00  0.00    +0.000 HD
ENDBRANCH  23  24
BRANCH  18  27
ATOM     27  O   UNL     1      44.142   3.580   9.409  0.00  0.00    +0.000 OA
BRANCH  27  29
ATOM     28  C   UNL     1      45.275   1.560   8.763  0.00  0.00    +0.000 C 
ATOM     29  C   UNL     1      45.414   3.067   8.968  0.00  0.00    +0.000 C 
ATOM     30  C   UNL     1      45.783   3.723   7.637  0.00  0.00    +0.000 C 
ENDBRANCH  27  29
ENDBRANCH  18  27
ENDBRANCH  17  20
ENDBRANCH   1  17
TORSDOF 7
ENDMDL
MODEL 5
REMARK VINA RESULT:    -6.536      4.908      8.289
REMARK INTER + INTRA:          -9.670
REMARK INTER:                  -8.906
REMARK INTRA:                  -0.764
REMARK UNBOUND:                -0.842
REMARK  Name = 
REMARK  9 active torsions:
REMARK  status: ('A' for Active; 'I' for Inactive)
REMARK    1  A    between atoms: C_1  and  C_2
REMARK    2  A    between atoms: C_2  and  C_3
REMARK    3  A    between atoms: C_2  and  O_4
REMARK    4  A    between atoms: O_4  and  C_5
REMARK    5  A    between atoms: C_7  and  C_8
REMARK    6  A    between atoms: C_8  and  N_9
REMARK    7  A    between atoms: C_13  and  O_14
REMARK    8  A    between atoms: C_15  and  C_16
REMARK    9  A    between atoms: C_24  and  N_25
REMARK                            x       y       z     vdW  Elec       q    Type
REMARK                         _______ _______ _______ _____ _____    ______ ____
ROOT
ATOM      1  N   UNL     1      47.592   5.337  14.619  0.00  0.00    +0.000 N 
ATOM      2  C   UNL     1      46.807   4.230  14.807  0.00  0.00    +0.000 A 
ATOM      3  N   UNL     1      46.918   3.745  16.029  0.00  0.00    +0.000 NA
ATOM      4  C   UNL     1      47.833   4.569  16.644  0.00  0.00    +0.000 A 
ATOM      5  C   UNL     1      48.381   4.524  17.935  0.00  0.00    +0.000 A 
ATOM      6  C   UNL     1      49.329   5.497  18.272  0.00  0.00    +0.000 A 
ATOM      7  C   UNL     1      49.663   6.451  17.303  0.00  0.00    +0.000 A 
ATOM      8  N   UNL     1      49.164   6.535  16.038  0.00  0.00    +0.000 NA
ATOM      9  C   UNL     1      48.264   5.569  15.787  0.00  0.00    +0.000 A 
ENDROOT
BRANCH   6  10
ATOM     10  C   UNL     1      50.025   5.589  19.578  0.00  0.00    +0.000 C 
ATOM     11  N   UNL     1      50.668   4.478  20.036  0.00  0.00    +0.000 N 
ATOM     12  O   UNL     1      50.034   6.629  20.226  0.00  0.00    +0.000 OA
ATOM     13  H   UNL     1      50.667   3.610  19.505  0.00  0.00    +0.000 HD
ATOM     14  H   UNL     1      51.156   4.521  20.918  0.00  0.00    +0.000 HD
ENDBRANCH   6  10
BRANCH   5  15
ATOM     15  O   UNL     1      47.986   3.533  18.802  0.00  0.00    +0.000 OA
ATOM     16  H   UNL     1      47.655   4.006  19.596  0.00  0.00    +0.000 HD
ENDBRANCH   5  15
BRANCH   1  17
ATOM     17  C   UNL     1      47.847   6.011  13.362  0.00  0.00    +0.000 C 
BRANCH  17  20
ATOM     18  C   UNL     1      44.746   5.689  11.127  0.00  0.00    +0.000 A 
ATOM     19  C   UNL     1      45.973   5.380  11.732  0.00  0.00    +0.000 A 
ATOM     20  C   UNL     1      46.601   6.307  12.574  0.00  0.00    +0.000 A 
ATOM     21  C   UNL     1      45.957   7.525  12.756  0.00  0.00    +0.000 A 
ATOM     22  N   UNL     1      44.759   7.841  12.220  0.00  0.00    +0.000 NA
ATOM     23  C   UNL     1      44.154   6.914  11.455  0.00  0.00    +0.000 A 
BRANCH  23  24
ATOM     24  N   UNL     1      42.855   7.259  11.082  0.00  0.00    +0.000 N 
ATOM     25  H   UNL     1      42.905   8.213  10.732  0.00  0.00    +0.000 HD
ATOM     26  H   UNL     1      42.251   7.197  11.895  0.00  0.00    +0.000 HD
ENDBRANCH  23  24
BRANCH  18  27
ATOM     27  O   UNL     1      44.193   4.701  10.352  0.00  0.00    +0.000 OA
BRANCH  27  29
ATOM     28  C   UNL     1      43.358   2.823  11.599  0.00  0.00    +0.000 C 
ATOM     29  C   UNL     1      44.488   3.337  10.711  0.00  0.00    +0.000 C 
ATOM     30  C   UNL     1      44.552   2.490   9.439  0.00  0.00    +0.000 C 
ENDBRANCH  27  29
ENDBRANCH  18  27
ENDBRANCH  17  20
ENDBRANCH   1  17
TORSDOF 7
ENDMDL
MODEL 6
REMARK VINA RESULT:    -6.448      4.434      7.262
REMARK INTER + INTRA:          -9.551
REMARK INTER:                  -8.534
REMARK INTRA:                  -1.017
REMARK UNBOUND:                -0.842
REMARK  Name = 
REMARK  9 active torsions:
REMARK  status: ('A' for Active; 'I' for Inactive)
REMARK    1  A    between atoms: C_1  and  C_2
REMARK    2  A    between atoms: C_2  and  C_3
REMARK    3  A    between atoms: C_2  and  O_4
REMARK    4  A    between atoms: O_4  and  C_5
REMARK    5  A    between atoms: C_7  and  C_8
REMARK    6  A    between atoms: C_8  and  N_9
REMARK    7  A    between atoms: C_13  and  O_14
REMARK    8  A    between atoms: C_15  and  C_16
REMARK    9  A    between atoms: C_24  and  N_25
REMARK                            x       y       z     vdW  Elec       q    Type
REMARK                         _______ _______ _______ _____ _____    ______ ____
ROOT
ATOM      1  N   UNL     1      47.314   7.389  13.564  0.00  0.00    +0.000 N 
ATOM      2  C   UNL     1      46.596   8.522  13.279  0.00  0.00    +0.000 A 
ATOM      3  N   UNL     1      45.398   8.241  12.800  0.00  0.00    +0.000 NA
ATOM      4  C   UNL     1      45.358   6.867  12.757  0.00  0.00    +0.000 A 
ATOM      5  C   UNL     1      44.357   5.995  12.301  0.00  0.00    +0.000 A 
ATOM      6  C   UNL     1      44.619   4.621  12.355  0.00  0.00    +0.000 A 
ATOM      7  C   UNL     1      45.856   4.208  12.865  0.00  0.00    +0.000 A 
ATOM      8  N   UNL     1      46.859   5.012  13.316  0.00  0.00    +0.000 NA
ATOM      9  C   UNL     1      46.537   6.314  13.231  0.00  0.00    +0.000 A 
ENDROOT
BRANCH   6  10
ATOM     10  C   UNL     1      43.689   3.560  11.898  0.00  0.00    +0.000 C 
ATOM     11  N   UNL     1      43.721   2.363  12.549  0.00  0.00    +0.000 N 
ATOM     12  O   UNL     1      42.909   3.749  10.972  0.00  0.00    +0.000 OA
ATOM     13  H   UNL     1      44.364   2.197  13.319  0.00  0.00    +0.000 HD
ATOM     14  H   UNL     1      43.090   1.630  12.261  0.00  0.00    +0.000 HD
ENDBRANCH   6  10
BRANCH   5  15
ATOM     15  O   UNL     1      43.183   6.514  11.810  0.00  0.00    +0.000 OA
ATOM     16  H   UNL     1      42.868   5.854  11.154  0.00  0.00    +0.000 HD
ENDBRANCH   5  15
BRANCH   1  17
ATOM     17  C   UNL     1      48.713   7.325  13.934  0.00  0.00    +0.000 C 
BRANCH  17  20
ATOM     18  C   UNL     1      49.118   5.891  17.468  0.00  0.00    +0.000 A 
ATOM     19  C   UNL     1      48.767   5.978  16.112  0.00  0.00    +0.000 A 
ATOM     20  C   UNL     1      48.940   7.180  15.413  0.00  0.00    +0.000 A 
ATOM     21  C   UNL     1      49.455   8.254  16.129  0.00  0.00    +0.000 A 
ATOM     22  N   UNL     1      49.838   8.194  17.422  0.00  0.00    +0.000 NA
ATOM     23  C   UNL     1      49.706   7.015  18.058  0.00  0.00    +0.000 A 
BRANCH  23  24
ATOM     24  N   UNL     1      50.277   6.999  19.330  0.00  0.00    +0.000 N 
ATOM     25  H   UNL     1      50.507   7.966  19.548  0.00  0.00    +0.000 HD
ATOM     26  H   UNL     1      51.110   6.420  19.311  0.00  0.00    +0.000 HD
ENDBRANCH  23  24
BRANCH  18  27
ATOM     27  O   UNL     1      48.948   4.662  18.053  0.00  0.00    +0.000 OA
BRANCH  27  29
ATOM     28  C   UNL     1      49.855   2.542  17.370  0.00  0.00    +0.000 C 
ATOM     29  C   UNL     1      48.715   3.540  17.180  0.00  0.00    +0.000 C 
ATOM     30  C   UNL     1      47.394   2.872  17.567  0.00  0.00    +0.000 C 
ENDBRANCH  27  29
ENDBRANCH  18  27
ENDBRANCH  17  20
ENDBRANCH   1  17
TORSDOF 7
ENDMDL
MODEL 7
REMARK VINA RESULT:    -6.318      2.925      7.453
REMARK INTER + INTRA:          -9.376
REMARK INTER:                  -9.338
REMARK INTRA:                  -0.038
REMARK UNBOUND:                -0.842
REMARK  Name = 
REMARK  9 active torsions:
REMARK  status: ('A' for Active; 'I' for Inactive)
REMARK    1  A    between atoms: C_1  and  C_2
REMARK    2  A    between atoms: C_2  and  C_3
REMARK    3  A    between atoms: C_2  and  O_4
REMARK    4  A    between atoms: O_4  and  C_5
REMARK    5  A    between atoms: C_7  and  C_8
REMARK    6  A    between atoms: C_8  and  N_9
REMARK    7  A    between atoms: C_13  and  O_14
REMARK    8  A    between atoms: C_15  and  C_16
REMARK    9  A    between atoms: C_24  and  N_25
REMARK                            x       y       z     vdW  Elec       q    Type
REMARK                         _______ _______ _______ _____ _____    ______ ____
ROOT
ATOM      1  N   UNL     1      46.171   6.274  12.202  0.00  0.00    +0.000 N 
ATOM      2  C   UNL     1      45.989   5.296  13.145  0.00  0.00    +0.000 A 
ATOM      3  N   UNL     1      46.927   5.323  14.073  0.00  0.00    +0.000 NA
ATOM      4  C   UNL     1      47.757   6.352  13.694  0.00  0.00    +0.000 A 
ATOM      5  C   UNL     1      48.946   6.827  14.269  0.00  0.00    +0.000 A 
ATOM      6  C   UNL     1      49.598   7.888  13.629  0.00  0.00    +0.000 A 
ATOM      7  C   UNL     1      49.019   8.408  12.465  0.00  0.00    +0.000 A 
ATOM      8  N   UNL     1      47.871   7.981  11.866  0.00  0.00    +0.000 NA
ATOM      9  C   UNL     1      47.305   6.961  12.534  0.00  0.00    +0.000 A 
ENDROOT
BRANCH   6  10
ATOM     10  C   UNL     1      50.870   8.500  14.082  0.00  0.00    +0.000 C 
ATOM     11  N   UNL     1      51.917   7.669  14.345  0.00  0.00    +0.000 N 
ATOM     12  O   UNL     1      50.986   9.713  14.208  0.00  0.00    +0.000 OA
ATOM     13  H   UNL     1      51.831   6.661  14.242  0.00  0.00    +0.000 HD
ATOM     14  H   UNL     1      52.796   8.065  14.646  0.00  0.00    +0.000 HD
ENDBRANCH   6  10
BRANCH   5  15
ATOM     15  O   UNL     1      49.428   6.232  15.410  0.00  0.00    +0.000 OA
ATOM     16  H   UNL     1      49.329   6.910  16.113  0.00  0.00    +0.000 HD
ENDBRANCH   5  15
BRANCH   1  17
ATOM     17  C   UNL     1      45.439   6.421  10.960  0.00  0.00    +0.000 C 
BRANCH  17  20
ATOM     18  C   UNL     1      45.037   3.441   8.578  0.00  0.00    +0.000 A 
ATOM     19  C   UNL     1      45.353   4.728   9.039  0.00  0.00    +0.000 A 
ATOM     20  C   UNL     1      45.025   5.113  10.345  0.00  0.00    +0.000 A 
ATOM     21  C   UNL     1      44.374   4.170  11.132  0.00  0.00    +0.000 A 
ATOM     22  N   UNL     1      44.089   2.911  10.733  0.00  0.00    +0.000 NA
ATOM     23  C   UNL     1      44.457   2.552   9.490  0.00  0.00    +0.000 A 
BRANCH  23  24
ATOM     24  N   UNL     1      44.276   1.195   9.224  0.00  0.00    +0.000 N 
ATOM     25  H   UNL     1      43.274   1.063   9.100  0.00  0.00    +0.000 HD
ATOM     26  H   UNL     1      44.622   0.655  10.010  0.00  0.00    +0.000 HD
ENDBRANCH  23  24
BRANCH  18  27
ATOM     27  O   UNL     1      45.433   3.148   7.298  0.00  0.00    +0.000 OA
BRANCH  27  29
ATOM     28  C   UNL     1      47.130   1.449   7.424  0.00  0.00    +0.000 C 
ATOM     29  C   UNL     1      46.837   2.907   7.079  0.00  0.00    +0.000 C 
ATOM     30  C   UNL     1      47.160   3.149   5.604  0.00  0.00    +0.000 C 
ENDBRANCH  27  29
ENDBRANCH  18  27
ENDBRANCH  17  20
ENDBRANCH   1  17
TORSDOF 7
ENDMDL
MODEL 8
REMARK VINA RESULT:    -6.204      3.135      7.493
REMARK INTER + INTRA:          -9.221
REMARK INTER:                  -9.405
REMARK INTRA:                   0.184
REMARK UNBOUND:                -0.842
REMARK  Name = 
REMARK  9 active torsions:
REMARK  status: ('A' for Active; 'I' for Inactive)
REMARK    1  A    between atoms: C_1  and  C_2
REMARK    2  A    between atoms: C_2  and  C_3
REMARK    3  A    between atoms: C_2  and  O_4
REMARK    4  A    between atoms: O_4  and  C_5
REMARK    5  A    between atoms: C_7  and  C_8
REMARK    6  A    between atoms: C_8  and  N_9
REMARK    7  A    between atoms: C_13  and  O_14
REMARK    8  A    between atoms: C_15  and  C_16
REMARK    9  A    between atoms: C_24  and  N_25
REMARK                            x       y       z     vdW  Elec       q    Type
REMARK                         _______ _______ _______ _____ _____    ______ ____
ROOT
ATOM      1  N   UNL     1      45.867   6.605  12.121  0.00  0.00    +0.000 N 
ATOM      2  C   UNL     1      46.672   7.714  12.072  0.00  0.00    +0.000 A 
ATOM      3  N   UNL     1      47.616   7.682  12.993  0.00  0.00    +0.000 NA
ATOM      4  C   UNL     1      47.391   6.508  13.676  0.00  0.00    +0.000 A 
ATOM      5  C   UNL     1      48.049   5.955  14.785  0.00  0.00    +0.000 A 
ATOM      6  C   UNL     1      47.567   4.741  15.287  0.00  0.00    +0.000 A 
ATOM      7  C   UNL     1      46.467   4.156  14.647  0.00  0.00    +0.000 A 
ATOM      8  N   UNL     1      45.793   4.653  13.571  0.00  0.00    +0.000 NA
ATOM      9  C   UNL     1      46.311   5.820  13.149  0.00  0.00    +0.000 A 
ENDROOT
BRANCH   6  10
ATOM     10  C   UNL     1      48.122   4.026  16.462  0.00  0.00    +0.000 C 
ATOM     11  N   UNL     1      48.189   4.701  17.643  0.00  0.00    +0.000 N 
ATOM     12  O   UNL     1      48.503   2.864  16.382  0.00  0.00    +0.000 OA
ATOM     13  H   UNL     1      47.875   5.665  17.720  0.00  0.00    +0.000 HD
ATOM     14  H   UNL     1      48.556   4.231  18.458  0.00  0.00    +0.000 HD
ENDBRANCH   6  10
BRANCH   5  15
ATOM     15  O   UNL     1      49.113   6.625  15.341  0.00  0.00    +0.000 OA
ATOM     16  H   UNL     1      48.864   7.574  15.306  0.00  0.00    +0.000 HD
ENDBRANCH   5  15
BRANCH   1  17
ATOM     17  C   UNL     1      44.640   6.397  11.381  0.00  0.00    +0.000 C 
BRANCH  17  20
ATOM     18  C   UNL     1      45.607   3.673   8.858  0.00  0.00    +0.000 A 
ATOM     19  C   UNL     1      45.586   4.910   9.522  0.00  0.00    +0.000 A 
ATOM     20  C   UNL     1      44.649   5.155  10.534  0.00  0.00    +0.000 A 
ATOM     21  C   UNL     1      43.757   4.129  10.823  0.00  0.00    +0.000 A 
ATOM     22  N   UNL     1      43.773   2.915  10.232  0.00  0.00    +0.000 NA
ATOM     23  C   UNL     1      44.713   2.689   9.297  0.00  0.00    +0.000 A 
BRANCH  23  24
ATOM     24  N   UNL     1      44.762   1.365   8.861  0.00  0.00    +0.000 N 
ATOM     25  H   UNL     1      44.247   1.337   7.985  0.00  0.00    +0.000 HD
ATOM     26  H   UNL     1      44.328   0.772   9.561  0.00  0.00    +0.000 HD
ENDBRANCH  23  24
BRANCH  18  27
ATOM     27  O   UNL     1      46.586   3.517   7.910  0.00  0.00    +0.000 OA
BRANCH  27  29
ATOM     28  C   UNL     1      46.620   3.012   5.560  0.00  0.00    +0.000 C 
ATOM     29  C   UNL     1      46.425   2.443   6.964  0.00  0.00    +0.000 C 
ATOM     30  C   UNL     1      47.493   1.381   7.228  0.00  0.00    +0.000 C 
ENDBRANCH  27  29
ENDBRANCH  18  27
ENDBRANCH  17  20
ENDBRANCH   1  17
TORSDOF 7
ENDMDL
MODEL 9
REMARK VINA RESULT:    -6.172      2.852      4.367
REMARK INTER + INTRA:          -9.179
REMARK INTER:                  -8.180
REMARK INTRA:                  -0.999
REMARK UNBOUND:                -0.842
REMARK  Name = 
REMARK  9 active torsions:
REMARK  status: ('A' for Active; 'I' for Inactive)
REMARK    1  A    between atoms: C_1  and  C_2
REMARK    2  A    between atoms: C_2  and  C_3
REMARK    3  A    between atoms: C_2  and  O_4
REMARK    4  A    between atoms: O_4  and  C_5
REMARK    5  A    between atoms: C_7  and  C_8
REMARK    6  A    between atoms: C_8  and  N_9
REMARK    7  A    between atoms: C_13  and  O_14
REMARK    8  A    between atoms: C_15  and  C_16
REMARK    9  A    between atoms: C_24  and  N_25
REMARK                            x       y       z     vdW  Elec       q    Type
REMARK                         _______ _______ _______ _____ _____    ______ ____
ROOT
ATOM      1  N   UNL     1      44.640   6.271  12.174  0.00  0.00    +0.000 N 
ATOM      2  C   UNL     1      43.812   5.496  12.946  0.00  0.00    +0.000 A 
ATOM      3  N   UNL     1      43.642   4.292  12.432  0.00  0.00    +0.000 NA
ATOM      4  C   UNL     1      44.378   4.306  11.270  0.00  0.00    +0.000 A 
ATOM      5  C   UNL     1      44.546   3.322  10.283  0.00  0.00    +0.000 A 
ATOM      6  C   UNL     1      45.344   3.642   9.178  0.00  0.00    +0.000 A 
ATOM      7  C   UNL     1      45.926   4.915   9.135  0.00  0.00    +0.000 A 
ATOM      8  N   UNL     1      45.791   5.903  10.063  0.00  0.00    +0.000 NA
ATOM      9  C   UNL     1      45.010   5.525  11.090  0.00  0.00    +0.000 A 
ENDROOT
BRANCH   6  10
ATOM     10  C   UNL     1      45.613   2.738   8.034  0.00  0.00    +0.000 C 
ATOM     11  N   UNL     1      45.957   1.448   8.310  0.00  0.00    +0.000 N 
ATOM     12  O   UNL     1      45.521   3.127   6.876  0.00  0.00    +0.000 OA
ATOM     13  H   UNL     1      46.035   1.115   9.268  0.00  0.00    +0.000 HD
ATOM     14  H   UNL     1      46.136   0.813   7.547  0.00  0.00    +0.000 HD
ENDBRANCH   6  10
BRANCH   5  15
ATOM     15  O   UNL     1      43.916   2.109  10.425  0.00  0.00    +0.000 OA
ATOM     16  H   UNL     1      43.081   2.195   9.916  0.00  0.00    +0.000 HD
ENDBRANCH   5  15
BRANCH   1  17
ATOM     17  C   UNL     1      44.901   7.686  12.344  0.00  0.00    +0.000 C 
BRANCH  17  20
ATOM     18  C   UNL     1      48.423   7.407  13.837  0.00  0.00    +0.000 A 
ATOM     19  C   UNL     1      47.084   7.101  13.550  0.00  0.00    +0.000 A 
ATOM     20  C   UNL     1      46.299   7.990  12.805  0.00  0.00    +0.000 A 
ATOM     21  C   UNL     1      46.908   9.168  12.390  0.00  0.00    +0.000 A 
ATOM     22  N   UNL     1      48.204   9.476  12.616  0.00  0.00    +0.000 NA
ATOM     23  C   UNL     1      48.949   8.584  13.292  0.00  0.00    +0.000 A 
BRANCH  23  24
ATOM     24  N   UNL     1      50.305   8.905  13.335  0.00  0.00    +0.000 N 
ATOM     25  H   UNL     1      50.497   9.192  14.291  0.00  0.00    +0.000 HD
ATOM     26  H   UNL     1      50.486   9.660  12.682  0.00  0.00    +0.000 HD
ENDBRANCH  23  24
BRANCH  18  27
ATOM     27  O   UNL     1      49.118   6.455  14.540  0.00  0.00    +0.000 OA
BRANCH  27  29
ATOM     28  C   UNL     1      48.444   5.375  16.579  0.00  0.00    +0.000 C 
ATOM     29  C   UNL     1      49.152   6.585  15.974  0.00  0.00    +0.000 C 
ATOM     30  C   UNL     1      50.609   6.599  16.439  0.00  0.00    +0.000 C 
ENDBRANCH  27  29
ENDBRANCH  18  27
ENDBRANCH  17  20
ENDBRANCH   1  17
TORSDOF 7
ENDMDL
