MODEL 1
REMARK VINA RESULT:    -9.275      0.000      0.000
REMARK INTER + INTRA:         -12.670
REMARK INTER:                 -11.444
REMARK INTRA:                  -1.226
REMARK UNBOUND:                -1.226
REMARK  Name = 
REMARK  4 active torsions:
REMARK  status: ('A' for Active; 'I' for Inactive)
REMARK    1  A    between atoms: C_2  and  C_4
REMARK    2  A    between atoms: N_8  and  C_9
REMARK    3  A    between atoms: C_9  and  C_10
REMARK    4  A    between atoms: C_14  and  C_15
REMARK                            x       y       z     vdW  Elec       q    Type
REMARK                         _______ _______ _______ _____ _____    ______ ____
ROOT
ATOM      1  C   UNL     1      43.791   4.879  11.320  0.00  0.00    +0.000 C 
ATOM      2  C   UNL     1      42.444   5.178  11.969  0.00  0.00    +0.000 C 
ATOM      3  C   UNL     1      43.011   6.131  10.971  0.00  0.00    +0.000 C 
ENDROOT
BRANCH   1   8
ATOM      4  C   UNL     1      46.609   2.724   7.499  0.00  0.00    +0.000 A 
ATOM      5  C   UNL     1      46.294   4.068   7.687  0.00  0.00    +0.000 A 
ATOM      6  C   UNL     1      45.392   4.426   8.696  0.00  0.00    +0.000 A 
ATOM      7  C   UNL     1      44.819   3.437   9.490  0.00  0.00    +0.000 A 
ATOM      8  N   UNL     1      43.819   3.696  10.436  0.00  0.00    +0.000 N 
ATOM      9  N   UNL     1      45.125   2.132   9.320  0.00  0.00    +0.000 NA
ATOM     10  C   UNL     1      46.003   1.804   8.336  0.00  0.00    +0.000 A 
ATOM     11  H   UNL     1      43.665   2.803  10.904  0.00  0.00    +0.000 HD
BRANCH   4  13
ATOM     12  N   UNL     1      47.738   3.081   5.373  0.00  0.00    +0.000 N 
ATOM     13  C   UNL     1      47.505   2.243   6.428  0.00  0.00    +0.000 C 
ATOM     14  O   UNL     1      48.033   1.140   6.483  0.00  0.00    +0.000 OA
ATOM     15  H   UNL     1      48.411   2.766   4.684  0.00  0.00    +0.000 HD
ATOM     16  H   UNL     1      47.518   4.067   5.390  0.00  0.00    +0.000 HD
ENDBRANCH   4  13
ENDBRANCH   1   8
BRANCH   1  17
ATOM     17  C   UNL     1      45.048   5.014  12.171  0.00  0.00    +0.000 A 
ATOM     18  C   UNL     1      45.561   3.958  12.937  0.00  0.00    +0.000 A 
ATOM     19  C   UNL     1      46.775   4.081  13.614  0.00  0.00    +0.000 A 
ATOM     20  C   UNL     1      47.517   5.256  13.513  0.00  0.00    +0.000 A 
ATOM     21  C   UNL     1      47.065   6.336  12.738  0.00  0.00    +0.000 A 
ATOM     22  C   UNL     1      45.808   6.197  12.120  0.00  0.00    +0.000 A 
BRANCH  21  23
ATOM     23  C   UNL     1      47.904   7.518  12.448  0.00  0.00    +0.000 A 
ATOM     24  C   UNL     1      49.289   7.385  12.230  0.00  0.00    +0.000 A 
ATOM     25  C   UNL     1      50.065   8.458  11.783  0.00  0.00    +0.000 A 
ATOM     26  C   UNL     1      49.469   9.692  11.539  0.00  0.00    +0.000 A 
ATOM     27  C   UNL     1      48.108   9.855  11.778  0.00  0.00    +0.000 A 
ATOM     28 CL   UNL     1      47.357  11.366  11.440  0.00  0.00    +0.000 Cl
ATOM     29  C   UNL     1      47.336   8.789  12.247  0.00  0.00    +0.000 A 
ENDBRANCH  21  23
ENDBRANCH   1  17
TORSDOF 4
ENDMDL
MODEL 2
REMARK VINA RESULT:    -8.817      2.347      3.716
REMARK INTER + INTRA:         -12.105
REMARK INTER:                 -11.291
REMARK INTRA:                  -0.814
REMARK UNBOUND:                -1.226
REMARK  Name = 
REMARK  4 active torsions:
REMARK  status: ('A' for Active; 'I' for Inactive)
REMARK    1  A    between atoms: C_2  and  C_4
REMARK    2  A    between atoms: N_8  and  C_9
REMARK    3  A    between atoms: C_9  and  C_10
REMARK    4  A    between atoms: C_14  and  C_15
REMARK                            x       y       z     vdW  Elec       q    Type
REMARK                         _______ _______ _______ _____ _____    ______ ____
ROOT
ATOM      1  C   UNL     1      43.987   4.901  11.524  0.00  0.00    +0.000 C 
ATOM      2  C   UNL     1      42.822   5.043  12.498  0.00  0.00    +0.000 C 
ATOM      3  C   UNL     1      42.924   5.965  11.329  0.00  0.00    +0.000 C 
ENDROOT
BRANCH   1   8
ATOM      4  C   UNL     1      46.442   2.663   7.507  0.00  0.00    +0.000 A 
ATOM      5  C   UNL     1      46.029   3.987   7.638  0.00  0.00    +0.000 A 
ATOM      6  C   UNL     1      45.245   4.355   8.737  0.00  0.00    +0.000 A 
ATOM      7  C   UNL     1      44.885   3.395   9.678  0.00  0.00    +0.000 A 
ATOM      8  N   UNL     1      44.005   3.652  10.738  0.00  0.00    +0.000 N 
ATOM      9  N   UNL     1      45.288   2.111   9.564  0.00  0.00    +0.000 NA
ATOM     10  C   UNL     1      46.049   1.772   8.490  0.00  0.00    +0.000 A 
ATOM     11  H   UNL     1      44.003   2.793  11.289  0.00  0.00    +0.000 HD
BRANCH   4  13
ATOM     12  N   UNL     1      47.285   2.958   5.243  0.00  0.00    +0.000 N 
ATOM     13  C   UNL     1      47.224   2.166   6.356  0.00  0.00    +0.000 C 
ATOM     14  O   UNL     1      47.807   1.091   6.395  0.00  0.00    +0.000 OA
ATOM     15  H   UNL     1      47.883   2.637   4.491  0.00  0.00    +0.000 HD
ATOM     16  H   UNL     1      47.020   3.933   5.242  0.00  0.00    +0.000 HD
ENDBRANCH   4  13
ENDBRANCH   1   8
BRANCH   1  17
ATOM     17  C   UNL     1      45.373   5.330  11.991  0.00  0.00    +0.000 A 
ATOM     18  C   UNL     1      46.084   6.378  11.391  0.00  0.00    +0.000 A 
ATOM     19  C   UNL     1      47.300   6.817  11.914  0.00  0.00    +0.000 A 
ATOM     20  C   UNL     1      47.815   6.236  13.071  0.00  0.00    +0.000 A 
ATOM     21  C   UNL     1      47.132   5.201  13.730  0.00  0.00    +0.000 A 
ATOM     22  C   UNL     1      45.941   4.744  13.138  0.00  0.00    +0.000 A 
BRANCH  21  23
ATOM     23  C   UNL     1      47.541   4.691  15.057  0.00  0.00    +0.000 A 
ATOM     24  C   UNL     1      47.586   3.308  15.317  0.00  0.00    +0.000 A 
ATOM     25  C   UNL     1      48.135   2.804  16.499  0.00  0.00    +0.000 A 
ATOM     26  C   UNL     1      48.657   3.677  17.450  0.00  0.00    +0.000 A 
ATOM     27  C   UNL     1      48.593   5.049  17.228  0.00  0.00    +0.000 A 
ATOM     28 CL   UNL     1      49.273   6.131  18.381  0.00  0.00    +0.000 Cl
ATOM     29  C   UNL     1      48.024   5.554  16.057  0.00  0.00    +0.000 A 
ENDBRANCH  21  23
ENDBRANCH   1  17
TORSDOF 4
ENDMDL
MODEL 3
REMARK VINA RESULT:    -7.457      4.082      7.030
REMARK INTER + INTRA:         -10.427
REMARK INTER:                  -9.285
REMARK INTRA:                  -1.141
REMARK UNBOUND:                -1.226
REMARK  Name = 
REMARK  4 active torsions:
REMARK  status: ('A' for Active; 'I' for Inactive)
REMARK    1  A    between atoms: C_2  and  C_4
REMARK    2  A    between atoms: N_8  and  C_9
REMARK    3  A    between atoms: C_9  and  C_10
REMARK    4  A    between atoms: C_14  and  C_15
REMARK                            x       y       z     vdW  Elec       q    Type
REMARK                         _______ _______ _______ _____ _____    ______ ____
ROOT
ATOM      1  C   UNL     1      46.310   4.957  13.709  0.00  0.00    +0.000 C 
ATOM      2  C   UNL     1      46.322   4.041  14.927  0.00  0.00    +0.000 C 
ATOM      3  C   UNL     1      47.418   3.944  13.919  0.00  0.00    +0.000 C 
ENDROOT
BRANCH   1   8
ATOM      4  C   UNL     1      48.446   9.267  11.696  0.00  0.00    +0.000 A 
ATOM      5  C   UNL     1      48.959   7.972  11.706  0.00  0.00    +0.000 A 
ATOM      6  C   UNL     1      48.298   6.978  12.436  0.00  0.00    +0.000 A 
ATOM      7  C   UNL     1      47.144   7.297  13.145  0.00  0.00    +0.000 A 
ATOM      8  N   UNL     1      46.492   6.394  13.996  0.00  0.00    +0.000 N 
ATOM      9  N   UNL     1      46.634   8.547  13.134  0.00  0.00    +0.000 NA
ATOM     10  C   UNL     1      47.289   9.500  12.420  0.00  0.00    +0.000 A 
ATOM     11  H   UNL     1      45.651   6.885  14.301  0.00  0.00    +0.000 HD
BRANCH   4  13
ATOM     12  N   UNL     1      48.299  11.395  10.524  0.00  0.00    +0.000 N 
ATOM     13  C   UNL     1      49.100  10.395  11.003  0.00  0.00    +0.000 C 
ATOM     14  O   UNL     1      50.315  10.445  10.867  0.00  0.00    +0.000 OA
ATOM     15  H   UNL     1      48.767  12.195  10.116  0.00  0.00    +0.000 HD
ATOM     16  H   UNL     1      47.335  11.514  10.805  0.00  0.00    +0.000 HD
ENDBRANCH   4  13
ENDBRANCH   1   8
BRANCH   1  17
ATOM     17  C   UNL     1      45.277   4.696  12.619  0.00  0.00    +0.000 A 
ATOM     18  C   UNL     1      43.978   5.219  12.666  0.00  0.00    +0.000 A 
ATOM     19  C   UNL     1      43.094   5.054  11.599  0.00  0.00    +0.000 A 
ATOM     20  C   UNL     1      43.506   4.387  10.446  0.00  0.00    +0.000 A 
ATOM     21  C   UNL     1      44.804   3.867  10.333  0.00  0.00    +0.000 A 
ATOM     22  C   UNL     1      45.646   3.999  11.453  0.00  0.00    +0.000 A 
BRANCH  21  23
ATOM     23  C   UNL     1      45.342   3.328   9.065  0.00  0.00    +0.000 A 
ATOM     24  C   UNL     1      45.750   4.190   8.029  0.00  0.00    +0.000 A 
ATOM     25  C   UNL     1      46.421   3.710   6.901  0.00  0.00    +0.000 A 
ATOM     26  C   UNL     1      46.701   2.351   6.785  0.00  0.00    +0.000 A 
ATOM     27  C   UNL     1      46.279   1.477   7.782  0.00  0.00    +0.000 A 
ATOM     28 CL   UNL     1      46.658  -0.198   7.665  0.00  0.00    +0.000 Cl
ATOM     29  C   UNL     1      45.588   1.953   8.899  0.00  0.00    +0.000 A 
ENDBRANCH  21  23
ENDBRANCH   1  17
TORSDOF 4
ENDMDL
MODEL 4
REMARK VINA RESULT:    -6.948      5.029      8.343
REMARK INTER + INTRA:          -9.799
REMARK INTER:                  -8.690
REMARK INTRA:                  -1.109
REMARK UNBOUND:                -1.226
REMARK  Name = 
REMARK  4 active torsions:
REMARK  status: ('A' for Active; 'I' for Inactive)
REMARK    1  A    between atoms: C_2  and  C_4
REMARK    2  A    between atoms: N_8  and  C_9
REMARK    3  A    between atoms: C_9  and  C_10
REMARK    4  A    between atoms: C_14  and  C_15
REMARK                            x       y       z     vdW  Elec       q    Type
REMARK                         _______ _______ _______ _____ _____    ______ ____
ROOT
ATOM      1  C   UNL     1      49.257   7.976  12.674  0.00  0.00    +0.000 C 
ATOM      2  C   UNL     1      50.213   8.061  11.490  0.00  0.00    +0.000 C 
ATOM      3  C   UNL     1      50.062   9.231  12.402  0.00  0.00    +0.000 C 
ENDROOT
BRANCH   1   8
ATOM      4  C   UNL     1      48.364   6.865  17.690  0.00  0.00    +0.000 A 
ATOM      5  C   UNL     1      48.535   8.116  17.098  0.00  0.00    +0.000 A 
ATOM      6  C   UNL     1      48.919   8.192  15.755  0.00  0.00    +0.000 A 
ATOM      7  C   UNL     1      49.132   7.022  15.033  0.00  0.00    +0.000 A 
ATOM      8  N   UNL     1      49.635   7.009  13.725  0.00  0.00    +0.000 N 
ATOM      9  N   UNL     1      48.961   5.806  15.594  0.00  0.00    +0.000 NA
ATOM     10  C   UNL     1      48.587   5.751  16.900  0.00  0.00    +0.000 A 
ATOM     11  H   UNL     1      49.603   6.029  13.443  0.00  0.00    +0.000 HD
BRANCH   4  13
ATOM     12  N   UNL     1      47.130   5.685  19.423  0.00  0.00    +0.000 N 
ATOM     13  C   UNL     1      48.014   6.681  19.113  0.00  0.00    +0.000 C 
ATOM     14  O   UNL     1      48.503   7.382  19.988  0.00  0.00    +0.000 OA
ATOM     15  H   UNL     1      46.956   5.524  20.408  0.00  0.00    +0.000 HD
ATOM     16  H   UNL     1      46.881   4.946  18.780  0.00  0.00    +0.000 HD
ENDBRANCH   4  13
ENDBRANCH   1   8
BRANCH   1  17
ATOM     17  C   UNL     1      47.758   7.993  12.395  0.00  0.00    +0.000 A 
ATOM     18  C   UNL     1      46.983   9.156  12.493  0.00  0.00    +0.000 A 
ATOM     19  C   UNL     1      45.638   9.160  12.121  0.00  0.00    +0.000 A 
ATOM     20  C   UNL     1      45.049   8.004  11.612  0.00  0.00    +0.000 A 
ATOM     21  C   UNL     1      45.785   6.818  11.465  0.00  0.00    +0.000 A 
ATOM     22  C   UNL     1      47.121   6.836  11.909  0.00  0.00    +0.000 A 
BRANCH  21  23
ATOM     23  C   UNL     1      45.259   5.633  10.755  0.00  0.00    +0.000 A 
ATOM     24  C   UNL     1      45.664   5.341   9.438  0.00  0.00    +0.000 A 
ATOM     25  C   UNL     1      45.318   4.138   8.816  0.00  0.00    +0.000 A 
ATOM     26  C   UNL     1      44.558   3.195   9.503  0.00  0.00    +0.000 A 
ATOM     27  C   UNL     1      44.120   3.476  10.793  0.00  0.00    +0.000 A 
ATOM     28 CL   UNL     1      43.215   2.298  11.662  0.00  0.00    +0.000 Cl
ATOM     29  C   UNL     1      44.446   4.688  11.406  0.00  0.00    +0.000 A 
ENDBRANCH  21  23
ENDBRANCH   1  17
TORSDOF 4
ENDMDL
MODEL 5
REMARK VINA RESULT:    -6.579      4.191      6.310
REMARK INTER + INTRA:          -9.344
REMARK INTER:                  -8.914
REMARK INTRA:                  -0.430
REMARK UNBOUND:                -1.226
REMARK  Name = 
REMARK  4 active torsions:
REMARK  status: ('A' for Active; 'I' for Inactive)
REMARK    1  A    between atoms: C_2  and  C_4
REMARK    2  A    between atoms: N_8  and  C_9
REMARK    3  A    between atoms: C_9  and  C_10
REMARK    4  A    between atoms: C_14  and  C_15
REMARK                            x       y       z     vdW  Elec       q    Type
REMARK                         _______ _______ _______ _____ _____    ______ ____
ROOT
ATOM      1  C   UNL     1      47.549   8.310  13.346  0.00  0.00    +0.000 C 
ATOM      2  C   UNL     1      47.860   9.575  12.554  0.00  0.00    +0.000 C 
ATOM      3  C   UNL     1      48.451   8.273  12.128  0.00  0.00    +0.000 C 
ENDROOT
BRANCH   1   8
ATOM      4  C   UNL     1      44.546   4.535  11.366  0.00  0.00    +0.000 A 
ATOM      5  C   UNL     1      45.610   5.200  10.760  0.00  0.00    +0.000 A 
ATOM      6  C   UNL     1      46.193   6.295  11.409  0.00  0.00    +0.000 A 
ATOM      7  C   UNL     1      45.699   6.707  12.642  0.00  0.00    +0.000 A 
ATOM      8  N   UNL     1      46.142   7.864  13.299  0.00  0.00    +0.000 N 
ATOM      9  N   UNL     1      44.673   6.064  13.241  0.00  0.00    +0.000 NA
ATOM     10  C   UNL     1      44.120   5.003  12.597  0.00  0.00    +0.000 A 
ATOM     11  H   UNL     1      45.660   7.854  14.198  0.00  0.00    +0.000 HD
BRANCH   4  13
ATOM     12  N   UNL     1      44.117   3.123   9.431  0.00  0.00    +0.000 N 
ATOM     13  C   UNL     1      43.830   3.406  10.738  0.00  0.00    +0.000 C 
ATOM     14  O   UNL     1      43.018   2.736  11.362  0.00  0.00    +0.000 OA
ATOM     15  H   UNL     1      43.673   2.303   9.038  0.00  0.00    +0.000 HD
ATOM     16  H   UNL     1      44.927   3.489   8.951  0.00  0.00    +0.000 HD
ENDBRANCH   4  13
ENDBRANCH   1   8
BRANCH   1  17
ATOM     17  C   UNL     1      48.176   8.150  14.726  0.00  0.00    +0.000 A 
ATOM     18  C   UNL     1      48.241   9.198  15.654  0.00  0.00    +0.000 A 
ATOM     19  C   UNL     1      48.719   8.987  16.948  0.00  0.00    +0.000 A 
ATOM     20  C   UNL     1      49.114   7.712  17.349  0.00  0.00    +0.000 A 
ATOM     21  C   UNL     1      49.044   6.620  16.470  0.00  0.00    +0.000 A 
ATOM     22  C   UNL     1      48.615   6.884  15.156  0.00  0.00    +0.000 A 
BRANCH  21  23
ATOM     23  C   UNL     1      49.266   5.226  16.908  0.00  0.00    +0.000 A 
ATOM     24  C   UNL     1      48.271   4.245  16.732  0.00  0.00    +0.000 A 
ATOM     25  C   UNL     1      48.525   2.893  16.975  0.00  0.00    +0.000 A 
ATOM     26  C   UNL     1      49.788   2.489  17.400  0.00  0.00    +0.000 A 
ATOM     27  C   UNL     1      50.777   3.444  17.612  0.00  0.00    +0.000 A 
ATOM     28 CL   UNL     1      52.352   2.948  18.098  0.00  0.00    +0.000 Cl
ATOM     29  C   UNL     1      50.517   4.799  17.391  0.00  0.00    +0.000 A 
ENDBRANCH  21  23
ENDBRANCH   1  17
TORSDOF 4
ENDMDL
MODEL 6
REMARK VINA RESULT:    -6.530      1.580      2.479
REMARK INTER + INTRA:          -9.283
REMARK INTER:                  -9.178
REMARK INTRA:                  -0.104
REMARK UNBOUND:                -1.226
REMARK  Name = 
REMARK  4 active torsions:
REMARK  status: ('A' for Active; 'I' for Inactive)
REMARK    1  A    between atoms: C_2  and  C_4
REMARK    2  A    between atoms: N_8  and  C_9
REMARK    3  A    between atoms: C_9  and  C_10
REMARK    4  A    between atoms: C_14  and  C_15
REMARK                            x       y       z     vdW  Elec       q    Type
REMARK                         _______ _______ _______ _____ _____    ______ ____
ROOT
ATOM      1  C   UNL     1      44.053   4.019  11.816  0.00  0.00    +0.000 C 
ATOM      2  C   UNL     1      44.886   3.362  12.910  0.00  0.00    +0.000 C 
ATOM      3  C   UNL     1      43.429   3.591  13.130  0.00  0.00    +0.000 C 
ENDROOT
BRANCH   1   8
ATOM      4  C   UNL     1      46.492   2.989   7.324  0.00  0.00    +0.000 A 
ATOM      5  C   UNL     1      46.378   4.210   7.985  0.00  0.00    +0.000 A 
ATOM      6  C   UNL     1      45.546   4.307   9.107  0.00  0.00    +0.000 A 
ATOM      7  C   UNL     1      44.844   3.188   9.541  0.00  0.00    +0.000 A 
ATOM      8  N   UNL     1      43.900   3.229  10.577  0.00  0.00    +0.000 N 
ATOM      9  N   UNL     1      44.955   1.998   8.913  0.00  0.00    +0.000 NA
ATOM     10  C   UNL     1      45.767   1.923   7.825  0.00  0.00    +0.000 A 
ATOM     11  H   UNL     1      43.622   2.257  10.715  0.00  0.00    +0.000 HD
BRANCH   4  13
ATOM     12  N   UNL     1      48.627   2.511   6.258  0.00  0.00    +0.000 N 
ATOM     13  C   UNL     1      47.299   2.800   6.102  0.00  0.00    +0.000 C 
ATOM     14  O   UNL     1      46.802   2.885   4.987  0.00  0.00    +0.000 OA
ATOM     15  H   UNL     1      49.150   2.313   5.414  0.00  0.00    +0.000 HD
ATOM     16  H   UNL     1      49.028   2.209   7.135  0.00  0.00    +0.000 HD
ENDBRANCH   4  13
ENDBRANCH   1   8
BRANCH   1  17
ATOM     17  C   UNL     1      44.253   5.506  11.550  0.00  0.00    +0.000 A 
ATOM     18  C   UNL     1      43.208   6.353  11.157  0.00  0.00    +0.000 A 
ATOM     19  C   UNL     1      43.402   7.729  11.033  0.00  0.00    +0.000 A 
ATOM     20  C   UNL     1      44.641   8.291  11.332  0.00  0.00    +0.000 A 
ATOM     21  C   UNL     1      45.716   7.494  11.757  0.00  0.00    +0.000 A 
ATOM     22  C   UNL     1      45.500   6.105  11.811  0.00  0.00    +0.000 A 
BRANCH  21  23
ATOM     23  C   UNL     1      46.981   8.065  12.267  0.00  0.00    +0.000 A 
ATOM     24  C   UNL     1      47.041   8.670  13.537  0.00  0.00    +0.000 A 
ATOM     25  C   UNL     1      48.257   9.055  14.108  0.00  0.00    +0.000 A 
ATOM     26  C   UNL     1      49.447   8.838  13.417  0.00  0.00    +0.000 A 
ATOM     27  C   UNL     1      49.409   8.271  12.147  0.00  0.00    +0.000 A 
ATOM     28 CL   UNL     1      50.879   7.963  11.306  0.00  0.00    +0.000 Cl
ATOM     29  C   UNL     1      48.191   7.908  11.567  0.00  0.00    +0.000 A 
ENDBRANCH  21  23
ENDBRANCH   1  17
TORSDOF 4
ENDMDL
MODEL 7
REMARK VINA RESULT:    -6.508      4.424      6.930
REMARK INTER + INTRA:          -9.256
REMARK INTER:                  -8.178
REMARK INTRA:                  -1.078
REMARK UNBOUND:                -1.226
REMARK  Name = 
REMARK  4 active torsions:
REMARK  status: ('A' for Active; 'I' for Inactive)
REMARK    1  A    between atoms: C_2  and  C_4
REMARK    2  A    between atoms: N_8  and  C_9
REMARK    3  A    between atoms: C_9  and  C_10
REMARK    4  A    between atoms: C_14  and  C_15
REMARK                            x       y       z     vdW  Elec       q    Type
REMARK                         _______ _______ _______ _____ _____    ______ ____
ROOT
ATOM      1  C   UNL     1      48.962   8.308  12.733  0.00  0.00    +0.000 C 
ATOM      2  C   UNL     1      49.858   9.340  12.057  0.00  0.00    +0.000 C 
ATOM      3  C   UNL     1      50.224   7.895  12.001  0.00  0.00    +0.000 C 
ENDROOT
BRANCH   1   8
ATOM      4  C   UNL     1      44.817   5.147  12.835  0.00  0.00    +0.000 A 
ATOM      5  C   UNL     1      46.167   4.802  12.846  0.00  0.00    +0.000 A 
ATOM      6  C   UNL     1      47.131   5.800  12.657  0.00  0.00    +0.000 A 
ATOM      7  C   UNL     1      46.729   7.116  12.456  0.00  0.00    +0.000 A 
ATOM      8  N   UNL     1      47.619   8.151  12.139  0.00  0.00    +0.000 N 
ATOM      9  N   UNL     1      45.423   7.461  12.453  0.00  0.00    +0.000 NA
ATOM     10  C   UNL     1      44.501   6.480  12.637  0.00  0.00    +0.000 A 
ATOM     11  H   UNL     1      47.047   8.995  12.134  0.00  0.00    +0.000 HD
BRANCH   4  13
ATOM     12  N   UNL     1      44.002   2.862  12.638  0.00  0.00    +0.000 N 
ATOM     13  C   UNL     1      43.726   4.161  12.970  0.00  0.00    +0.000 C 
ATOM     14  O   UNL     1      42.617   4.484  13.374  0.00  0.00    +0.000 OA
ATOM     15  H   UNL     1      43.266   2.187  12.804  0.00  0.00    +0.000 HD
ATOM     16  H   UNL     1      44.941   2.508  12.522  0.00  0.00    +0.000 HD
ENDBRANCH   4  13
ENDBRANCH   1   8
BRANCH   1  17
ATOM     17  C   UNL     1      48.948   8.251  14.256  0.00  0.00    +0.000 A 
ATOM     18  C   UNL     1      48.487   9.310  15.049  0.00  0.00    +0.000 A 
ATOM     19  C   UNL     1      48.382   9.182  16.434  0.00  0.00    +0.000 A 
ATOM     20  C   UNL     1      48.709   7.977  17.052  0.00  0.00    +0.000 A 
ATOM     21  C   UNL     1      49.150   6.874  16.305  0.00  0.00    +0.000 A 
ATOM     22  C   UNL     1      49.301   7.061  14.918  0.00  0.00    +0.000 A 
BRANCH  21  23
ATOM     23  C   UNL     1      49.320   5.527  16.891  0.00  0.00    +0.000 A 
ATOM     24  C   UNL     1      48.251   4.610  16.918  0.00  0.00    +0.000 A 
ATOM     25  C   UNL     1      48.438   3.281  17.305  0.00  0.00    +0.000 A 
ATOM     26  C   UNL     1      49.706   2.835  17.671  0.00  0.00    +0.000 A 
ATOM     27  C   UNL     1      50.770   3.732  17.682  0.00  0.00    +0.000 A 
ATOM     28 CL   UNL     1      52.347   3.178  18.094  0.00  0.00    +0.000 Cl
ATOM     29  C   UNL     1      50.579   5.067  17.318  0.00  0.00    +0.000 A 
ENDBRANCH  21  23
ENDBRANCH   1  17
TORSDOF 4
ENDMDL
MODEL 8
REMARK VINA RESULT:    -6.280      6.087      8.426
REMARK INTER + INTRA:          -8.974
REMARK INTER:                  -8.260
REMARK INTRA:                  -0.714
REMARK UNBOUND:                -1.226
REMARK  Name = 
REMARK  4 active torsions:
REMARK  status: ('A' for Active; 'I' for Inactive)
REMARK    1  A    between atoms: C_2  and  C_4
REMARK    2  A    between atoms: N_8  and  C_9
REMARK    3  A    between atoms: C_9  and  C_10
REMARK    4  A    between atoms: C_14  and  C_15
REMARK                            x       y       z     vdW  Elec       q    Type
REMARK                         _______ _______ _______ _____ _____    ______ ____
ROOT
ATOM      1  C   UNL     1      48.317   4.913  17.268  0.00  0.00    +0.000 C 
ATOM      2  C   UNL     1      47.123   5.132  18.191  0.00  0.00    +0.000 C 
ATOM      3  C   UNL     1      47.227   3.868  17.406  0.00  0.00    +0.000 C 
ENDROOT
BRANCH   1   8
ATOM      4  C   UNL     1      52.431   1.726  17.584  0.00  0.00    +0.000 A 
ATOM      5  C   UNL     1      51.081   1.389  17.517  0.00  0.00    +0.000 A 
ATOM      6  C   UNL     1      50.118   2.402  17.593  0.00  0.00    +0.000 A 
ATOM      7  C   UNL     1      50.520   3.725  17.739  0.00  0.00    +0.000 A 
ATOM      8  N   UNL     1      49.623   4.782  17.945  0.00  0.00    +0.000 N 
ATOM      9  N   UNL     1      51.827   4.062  17.796  0.00  0.00    +0.000 NA
ATOM     10  C   UNL     1      52.748   3.066  17.721  0.00  0.00    +0.000 A 
ATOM     11  H   UNL     1      50.202   5.622  17.933  0.00  0.00    +0.000 HD
BRANCH   4  13
ATOM     12  N   UNL     1      53.339  -0.417  18.297  0.00  0.00    +0.000 N 
ATOM     13  C   UNL     1      53.519   0.727  17.568  0.00  0.00    +0.000 C 
ATOM     14  O   UNL     1      54.541   0.904  16.920  0.00  0.00    +0.000 OA
ATOM     15  H   UNL     1      54.061  -1.122  18.218  0.00  0.00    +0.000 HD
ATOM     16  H   UNL     1      52.440  -0.709  18.655  0.00  0.00    +0.000 HD
ENDBRANCH   4  13
ENDBRANCH   1   8
BRANCH   1  17
ATOM     17  C   UNL     1      48.393   5.725  15.981  0.00  0.00    +0.000 A 
ATOM     18  C   UNL     1      49.482   6.550  15.670  0.00  0.00    +0.000 A 
ATOM     19  C   UNL     1      49.572   7.191  14.434  0.00  0.00    +0.000 A 
ATOM     20  C   UNL     1      48.586   6.993  13.469  0.00  0.00    +0.000 A 
ATOM     21  C   UNL     1      47.487   6.155  13.716  0.00  0.00    +0.000 A 
ATOM     22  C   UNL     1      47.399   5.576  14.996  0.00  0.00    +0.000 A 
BRANCH  21  23
ATOM     23  C   UNL     1      46.526   5.765  12.662  0.00  0.00    +0.000 A 
ATOM     24  C   UNL     1      46.608   6.318  11.369  0.00  0.00    +0.000 A 
ATOM     25  C   UNL     1      45.826   5.835  10.317  0.00  0.00    +0.000 A 
ATOM     26  C   UNL     1      44.943   4.781  10.534  0.00  0.00    +0.000 A 
ATOM     27  C   UNL     1      44.822   4.241  11.811  0.00  0.00    +0.000 A 
ATOM     28 CL   UNL     1      43.762   2.912  12.078  0.00  0.00    +0.000 Cl
ATOM     29  C   UNL     1      45.587   4.739  12.869  0.00  0.00    +0.000 A 
ENDBRANCH  21  23
ENDBRANCH   1  17
TORSDOF 4
ENDMDL
