MODEL 1
REMARK VINA RESULT:    -8.315      0.000      0.000
REMARK INTER + INTRA:         -11.896
REMARK INTER:                 -11.474
REMARK INTRA:                  -0.421
REMARK UNBOUND:                -0.421
REMARK  Name = 
REMARK  7 active torsions:
REMARK  status: ('A' for Active; 'I' for Inactive)
REMARK    1  A    between atoms: C_2  and  C_3
REMARK    2  A    between atoms: C_6  and  C_7
REMARK    3  A    between atoms: C_7  and  N_8
REMARK    4  A    between atoms: N_8  and  C_9
REMARK    5  A    between atoms: C_12  and  C_13
REMARK    6  A    between atoms: C_19  and  C_20
REMARK    7  A    between atoms: C_20  and  O_21
REMARK                            x       y       z     vdW  Elec       q    Type
REMARK                         _______ _______ _______ _____ _____    ______ ____
ROOT
ATOM      1  C   UNL     1      43.767   5.460  11.209  0.00  0.00    +0.000 C 
ATOM      2  C   UNL     1      42.531   5.541  12.082  0.00  0.00    +0.000 C 
ATOM      3  C   UNL     1      43.552   4.491  12.395  0.00  0.00    +0.000 C 
ENDROOT
BRANCH   1   7
ATOM      4  C   UNL     1      46.973   8.313  12.014  0.00  0.00    +0.000 A 
ATOM      5  C   UNL     1      45.670   8.767  11.801  0.00  0.00    +0.000 A 
ATOM      6  C   UNL     1      44.645   7.859  11.506  0.00  0.00    +0.000 A 
ATOM      7  C   UNL     1      44.893   6.480  11.414  0.00  0.00    +0.000 A 
ATOM      8  C   UNL     1      46.229   6.057  11.559  0.00  0.00    +0.000 A 
ATOM      9  C   UNL     1      47.255   6.953  11.874  0.00  0.00    +0.000 A 
BRANCH   4  11
ATOM     10  N   UNL     1      48.862   9.945  12.724  0.00  0.00    +0.000 NA
ATOM     11  C   UNL     1      48.007   9.224  12.405  0.00  0.00    +0.000 C 
ENDBRANCH   4  11
ENDBRANCH   1   7
BRANCH   1  12
ATOM     12  N   UNL     1      43.757   4.845   9.878  0.00  0.00    +0.000 N 
ATOM     13  H   UNL     1      42.829   4.649   9.509  0.00  0.00    +0.000 HD
BRANCH  12  14
ATOM     14  C   UNL     1      44.778   4.165   9.191  0.00  0.00    +0.000 A 
ATOM     15  C   UNL     1      45.722   4.752   8.345  0.00  0.00    +0.000 A 
ATOM     16  C   UNL     1      46.623   3.954   7.619  0.00  0.00    +0.000 A 
ATOM     17  C   UNL     1      46.588   2.554   7.711  0.00  0.00    +0.000 A 
ATOM     18  C   UNL     1      45.649   1.960   8.547  0.00  0.00    +0.000 A 
ATOM     19  C   UNL     1      44.758   2.761   9.269  0.00  0.00    +0.000 A 
BRANCH  17  20
ATOM     20  C   UNL     1      47.494   1.735   6.862  0.00  0.00    +0.000 C 
ATOM     21  N   UNL     1      48.595   2.349   6.329  0.00  0.00    +0.000 N 
ATOM     22  O   UNL     1      47.268   0.551   6.642  0.00  0.00    +0.000 OA
ATOM     23  H   UNL     1      48.760   3.344   6.366  0.00  0.00    +0.000 HD
ATOM     24  H   UNL     1      49.186   1.790   5.727  0.00  0.00    +0.000 HD
ENDBRANCH  17  20
ENDBRANCH  12  14
ENDBRANCH   1  12
BRANCH   3  25
ATOM     25  C   UNL     1      43.250   3.044  12.194  0.00  0.00    +0.000 C 
BRANCH  25  26
ATOM     26  O   UNL     1      44.376   2.289  12.633  0.00  0.00    +0.000 OA
ATOM     27  H   UNL     1      44.941   2.145  11.855  0.00  0.00    +0.000 HD
ENDBRANCH  25  26
ENDBRANCH   3  25
TORSDOF 7
ENDMDL
MODEL 2
REMARK VINA RESULT:    -7.908      2.857      6.748
REMARK INTER + INTRA:         -11.334
REMARK INTER:                 -10.586
REMARK INTRA:                  -0.748
REMARK UNBOUND:                -0.421
REMARK  Name = 
REMARK  7 active torsions:
REMARK  status: ('A' for Active; 'I' for Inactive)
REMARK    1  A    between atoms: C_2  and  C_3
REMARK    2  A    between atoms: C_6  and  C_7
REMARK    3  A    between atoms: C_7  and  N_8
REMARK    4  A    between atoms: N_8  and  C_9
REMARK    5  A    between atoms: C_12  and  C_13
REMARK    6  A    between atoms: C_19  and  C_20
REMARK    7  A    between atoms: C_20  and  O_21
REMARK                            x       y       z     vdW  Elec       q    Type
REMARK                         _______ _______ _______ _____ _____    ______ ____
ROOT
ATOM      1  C   UNL     1      44.573   4.262  11.066  0.00  0.00    +0.000 C 
ATOM      2  C   UNL     1      43.663   3.358  11.873  0.00  0.00    +0.000 C 
ATOM      3  C   UNL     1      43.035   4.416  11.020  0.00  0.00    +0.000 C 
ENDROOT
BRANCH   1   7
ATOM      4  C   UNL     1      46.550   2.688   7.506  0.00  0.00    +0.000 A 
ATOM      5  C   UNL     1      46.434   4.068   7.689  0.00  0.00    +0.000 A 
ATOM      6  C   UNL     1      45.769   4.577   8.812  0.00  0.00    +0.000 A 
ATOM      7  C   UNL     1      45.201   3.728   9.775  0.00  0.00    +0.000 A 
ATOM      8  C   UNL     1      45.266   2.342   9.526  0.00  0.00    +0.000 A 
ATOM      9  C   UNL     1      45.946   1.824   8.420  0.00  0.00    +0.000 A 
BRANCH   4  11
ATOM     10  N   UNL     1      47.925   1.712   5.533  0.00  0.00    +0.000 NA
ATOM     11  C   UNL     1      47.306   2.160   6.409  0.00  0.00    +0.000 C 
ENDBRANCH   4  11
ENDBRANCH   1   7
BRANCH   1  12
ATOM     12  N   UNL     1      45.304   5.385  11.662  0.00  0.00    +0.000 N 
ATOM     13  H   UNL     1      45.386   6.204  11.062  0.00  0.00    +0.000 HD
BRANCH  12  14
ATOM     14  C   UNL     1      46.201   5.405  12.744  0.00  0.00    +0.000 A 
ATOM     15  C   UNL     1      46.195   4.517  13.823  0.00  0.00    +0.000 A 
ATOM     16  C   UNL     1      47.070   4.708  14.908  0.00  0.00    +0.000 A 
ATOM     17  C   UNL     1      47.954   5.797  14.944  0.00  0.00    +0.000 A 
ATOM     18  C   UNL     1      47.964   6.689  13.876  0.00  0.00    +0.000 A 
ATOM     19  C   UNL     1      47.094   6.491  12.799  0.00  0.00    +0.000 A 
BRANCH  17  20
ATOM     20  C   UNL     1      48.801   6.022  16.145  0.00  0.00    +0.000 C 
ATOM     21  N   UNL     1      48.172   6.125  17.357  0.00  0.00    +0.000 N 
ATOM     22  O   UNL     1      50.020   6.114  16.062  0.00  0.00    +0.000 OA
ATOM     23  H   UNL     1      47.171   6.189  17.471  0.00  0.00    +0.000 HD
ATOM     24  H   UNL     1      48.756   6.309  18.163  0.00  0.00    +0.000 HD
ENDBRANCH  17  20
ENDBRANCH  12  14
ENDBRANCH   1  12
BRANCH   3  25
ATOM     25  C   UNL     1      42.333   5.580  11.633  0.00  0.00    +0.000 C 
BRANCH  25  26
ATOM     26  O   UNL     1      42.569   5.552  13.039  0.00  0.00    +0.000 OA
ATOM     27  H   UNL     1      43.303   4.933  13.191  0.00  0.00    +0.000 HD
ENDBRANCH  25  26
ENDBRANCH   3  25
TORSDOF 7
ENDMDL
MODEL 3
REMARK VINA RESULT:    -7.175      1.219      1.873
REMARK INTER + INTRA:         -10.322
REMARK INTER:                 -10.763
REMARK INTRA:                   0.440
REMARK UNBOUND:                -0.421
REMARK  Name = 
REMARK  7 active torsions:
REMARK  status: ('A' for Active; 'I' for Inactive)
REMARK    1  A    between atoms: C_2  and  C_3
REMARK    2  A    between atoms: C_6  and  C_7
REMARK    3  A    between atoms: C_7  and  N_8
REMARK    4  A    between atoms: N_8  and  C_9
REMARK    5  A    between atoms: C_12  and  C_13
REMARK    6  A    between atoms: C_19  and  C_20
REMARK    7  A    between atoms: C_20  and  O_21
REMARK                            x       y       z     vdW  Elec       q    Type
REMARK                         _______ _______ _______ _____ _____    ______ ____
ROOT
ATOM      1  C   UNL     1      44.182   5.335  11.389  0.00  0.00    +0.000 C 
ATOM      2  C   UNL     1      42.916   5.553  12.191  0.00  0.00    +0.000 C 
ATOM      3  C   UNL     1      43.597   4.224  12.292  0.00  0.00    +0.000 C 
ENDROOT
BRANCH   1   7
ATOM      4  C   UNL     1      48.020   7.015  12.615  0.00  0.00    +0.000 A 
ATOM      5  C   UNL     1      47.641   5.745  13.054  0.00  0.00    +0.000 A 
ATOM      6  C   UNL     1      46.395   5.216  12.693  0.00  0.00    +0.000 A 
ATOM      7  C   UNL     1      45.497   5.940  11.891  0.00  0.00    +0.000 A 
ATOM      8  C   UNL     1      45.874   7.248  11.526  0.00  0.00    +0.000 A 
ATOM      9  C   UNL     1      47.123   7.776  11.864  0.00  0.00    +0.000 A 
BRANCH   4  11
ATOM     10  N   UNL     1      50.397   7.917  13.139  0.00  0.00    +0.000 NA
ATOM     11  C   UNL     1      49.327   7.526  12.905  0.00  0.00    +0.000 C 
ENDBRANCH   4  11
ENDBRANCH   1   7
BRANCH   1  12
ATOM     12  N   UNL     1      44.169   5.053   9.950  0.00  0.00    +0.000 N 
ATOM     13  H   UNL     1      43.382   5.458   9.446  0.00  0.00    +0.000 HD
BRANCH  12  14
ATOM     14  C   UNL     1      44.831   4.050   9.220  0.00  0.00    +0.000 A 
ATOM     15  C   UNL     1      44.690   2.674   9.415  0.00  0.00    +0.000 A 
ATOM     16  C   UNL     1      45.494   1.767   8.703  0.00  0.00    +0.000 A 
ATOM     17  C   UNL     1      46.466   2.216   7.796  0.00  0.00    +0.000 A 
ATOM     18  C   UNL     1      46.617   3.585   7.598  0.00  0.00    +0.000 A 
ATOM     19  C   UNL     1      45.810   4.482   8.308  0.00  0.00    +0.000 A 
BRANCH  17  20
ATOM     20  C   UNL     1      47.361   1.236   7.126  0.00  0.00    +0.000 C 
ATOM     21  N   UNL     1      47.269  -0.075   7.508  0.00  0.00    +0.000 N 
ATOM     22  O   UNL     1      48.158   1.583   6.261  0.00  0.00    +0.000 OA
ATOM     23  H   UNL     1      46.731  -0.396   8.300  0.00  0.00    +0.000 HD
ATOM     24  H   UNL     1      47.906  -0.727   7.069  0.00  0.00    +0.000 HD
ENDBRANCH  17  20
ENDBRANCH  12  14
ENDBRANCH   1  12
BRANCH   3  25
ATOM     25  C   UNL     1      42.965   2.995  11.733  0.00  0.00    +0.000 C 
BRANCH  25  26
ATOM     26  O   UNL     1      43.410   1.877  12.497  0.00  0.00    +0.000 OA
ATOM     27  H   UNL     1      43.164   1.078  12.001  0.00  0.00    +0.000 HD
ENDBRANCH  25  26
ENDBRANCH   3  25
TORSDOF 7
ENDMDL
MODEL 4
REMARK VINA RESULT:    -6.839      2.436      6.151
REMARK INTER + INTRA:          -9.859
REMARK INTER:                  -9.563
REMARK INTRA:                  -0.295
REMARK UNBOUND:                -0.421
REMARK  Name = 
REMARK  7 active torsions:
REMARK  status: ('A' for Active; 'I' for Inactive)
REMARK    1  A    between atoms: C_2  and  C_3
REMARK    2  A    between atoms: C_6  and  C_7
REMARK    3  A    between atoms: C_7  and  N_8
REMARK    4  A    between atoms: N_8  and  C_9
REMARK    5  A    between atoms: C_12  and  C_13
REMARK    6  A    between atoms: C_19  and  C_20
REMARK    7  A    between atoms: C_20  and  O_21
REMARK                            x       y       z     vdW  Elec       q    Type
REMARK                         _______ _______ _______ _____ _____    ______ ____
ROOT
ATOM      1  C   UNL     1      44.351   3.967  11.365  0.00  0.00    +0.000 C 
ATOM      2  C   UNL     1      43.048   3.252  11.659  0.00  0.00    +0.000 C 
ATOM      3  C   UNL     1      42.987   4.679  11.211  0.00  0.00    +0.000 C 
ENDROOT
BRANCH   1   7
ATOM      4  C   UNL     1      46.224   3.211   7.494  0.00  0.00    +0.000 A 
ATOM      5  C   UNL     1      45.839   2.141   8.306  0.00  0.00    +0.000 A 
ATOM      6  C   UNL     1      45.271   2.379   9.564  0.00  0.00    +0.000 A 
ATOM      7  C   UNL     1      45.076   3.684  10.045  0.00  0.00    +0.000 A 
ATOM      8  C   UNL     1      45.543   4.741   9.238  0.00  0.00    +0.000 A 
ATOM      9  C   UNL     1      46.091   4.515   7.973  0.00  0.00    +0.000 A 
BRANCH   4  11
ATOM     10  N   UNL     1      47.107   2.803   5.088  0.00  0.00    +0.000 NA
ATOM     11  C   UNL     1      46.721   2.978   6.171  0.00  0.00    +0.000 C 
ENDBRANCH   4  11
ENDBRANCH   1   7
BRANCH   1  12
ATOM     12  N   UNL     1      45.223   4.491  12.422  0.00  0.00    +0.000 N 
ATOM     13  H   UNL     1      45.001   4.159  13.358  0.00  0.00    +0.000 HD
BRANCH  12  14
ATOM     14  C   UNL     1      46.061   5.620  12.423  0.00  0.00    +0.000 A 
ATOM     15  C   UNL     1      45.808   6.822  11.758  0.00  0.00    +0.000 A 
ATOM     16  C   UNL     1      46.776   7.841  11.735  0.00  0.00    +0.000 A 
ATOM     17  C   UNL     1      48.021   7.674  12.361  0.00  0.00    +0.000 A 
ATOM     18  C   UNL     1      48.284   6.478  13.022  0.00  0.00    +0.000 A 
ATOM     19  C   UNL     1      47.314   5.470  13.044  0.00  0.00    +0.000 A 
BRANCH  17  20
ATOM     20  C   UNL     1      49.057   8.734  12.242  0.00  0.00    +0.000 C 
ATOM     21  N   UNL     1      48.826   9.754  11.360  0.00  0.00    +0.000 N 
ATOM     22  O   UNL     1      50.086   8.701  12.907  0.00  0.00    +0.000 OA
ATOM     23  H   UNL     1      48.065   9.764  10.695  0.00  0.00    +0.000 HD
ATOM     24  H   UNL     1      49.552  10.452  11.264  0.00  0.00    +0.000 HD
ENDBRANCH  17  20
ENDBRANCH  12  14
ENDBRANCH   1  12
BRANCH   3  25
ATOM     25  C   UNL     1      42.543   5.757  12.142  0.00  0.00    +0.000 C 
BRANCH  25  26
ATOM     26  O   UNL     1      42.554   5.234  13.468  0.00  0.00    +0.000 OA
ATOM     27  H   UNL     1      41.631   5.215  13.772  0.00  0.00    +0.000 HD
ENDBRANCH  25  26
ENDBRANCH   3  25
TORSDOF 7
ENDMDL
MODEL 5
REMARK VINA RESULT:    -6.163      4.396      5.711
REMARK INTER + INTRA:          -8.926
REMARK INTER:                  -8.401
REMARK INTRA:                  -0.524
REMARK UNBOUND:                -0.421
REMARK  Name = 
REMARK  7 active torsions:
REMARK  status: ('A' for Active; 'I' for Inactive)
REMARK    1  A    between atoms: C_2  and  C_3
REMARK    2  A    between atoms: C_6  and  C_7
REMARK    3  A    between atoms: C_7  and  N_8
REMARK    4  A    between atoms: N_8  and  C_9
REMARK    5  A    between atoms: C_12  and  C_13
REMARK    6  A    between atoms: C_19  and  C_20
REMARK    7  A    between atoms: C_20  and  O_21
REMARK                            x       y       z     vdW  Elec       q    Type
REMARK                         _______ _______ _______ _____ _____    ______ ____
ROOT
ATOM      1  C   UNL     1      47.574   6.304  13.966  0.00  0.00    +0.000 C 
ATOM      2  C   UNL     1      48.659   6.556  12.940  0.00  0.00    +0.000 C 
ATOM      3  C   UNL     1      48.085   7.732  13.667  0.00  0.00    +0.000 C 
ENDROOT
BRANCH   1   7
ATOM      4  C   UNL     1      48.490   4.846  17.978  0.00  0.00    +0.000 A 
ATOM      5  C   UNL     1      49.131   5.984  17.484  0.00  0.00    +0.000 A 
ATOM      6  C   UNL     1      48.868   6.434  16.185  0.00  0.00    +0.000 A 
ATOM      7  C   UNL     1      47.964   5.762  15.346  0.00  0.00    +0.000 A 
ATOM      8  C   UNL     1      47.389   4.575  15.842  0.00  0.00    +0.000 A 
ATOM      9  C   UNL     1      47.630   4.130  17.145  0.00  0.00    +0.000 A 
BRANCH   4  11
ATOM     10  N   UNL     1      48.819   4.095  20.441  0.00  0.00    +0.000 NA
ATOM     11  C   UNL     1      48.685   4.431  19.336  0.00  0.00    +0.000 C 
ENDBRANCH   4  11
ENDBRANCH   1   7
BRANCH   1  12
ATOM     12  N   UNL     1      46.180   6.038  13.596  0.00  0.00    +0.000 N 
ATOM     13  H   UNL     1      45.502   6.237  14.329  0.00  0.00    +0.000 HD
BRANCH  12  14
ATOM     14  C   UNL     1      45.657   5.239  12.565  0.00  0.00    +0.000 A 
ATOM     15  C   UNL     1      45.288   3.896  12.684  0.00  0.00    +0.000 A 
ATOM     16  C   UNL     1      44.886   3.165  11.552  0.00  0.00    +0.000 A 
ATOM     17  C   UNL     1      44.862   3.754  10.278  0.00  0.00    +0.000 A 
ATOM     18  C   UNL     1      45.232   5.089  10.150  0.00  0.00    +0.000 A 
ATOM     19  C   UNL     1      45.627   5.812  11.281  0.00  0.00    +0.000 A 
BRANCH  17  20
ATOM     20  C   UNL     1      44.520   2.930   9.089  0.00  0.00    +0.000 C 
ATOM     21  N   UNL     1      44.268   3.583   7.913  0.00  0.00    +0.000 N 
ATOM     22  O   UNL     1      44.464   1.707   9.152  0.00  0.00    +0.000 OA
ATOM     23  H   UNL     1      44.170   4.585   7.833  0.00  0.00    +0.000 HD
ATOM     24  H   UNL     1      44.005   3.014   7.119  0.00  0.00    +0.000 HD
ENDBRANCH  17  20
ENDBRANCH  12  14
ENDBRANCH   1  12
BRANCH   3  25
ATOM     25  C   UNL     1      47.250   8.741  12.953  0.00  0.00    +0.000 C 
BRANCH  25  26
ATOM     26  O   UNL     1      46.111   9.029  13.760  0.00  0.00    +0.000 OA
ATOM     27  H   UNL     1      45.384   9.252  13.154  0.00  0.00    +0.000 HD
ENDBRANCH  25  26
ENDBRANCH   3  25
TORSDOF 7
ENDMDL
MODEL 6
REMARK VINA RESULT:    -5.723      6.314      7.953
REMARK INTER + INTRA:          -8.319
REMARK INTER:                  -7.751
REMARK INTRA:                  -0.568
REMARK UNBOUND:                -0.421
REMARK  Name = 
REMARK  7 active torsions:
REMARK  status: ('A' for Active; 'I' for Inactive)
REMARK    1  A    between atoms: C_2  and  C_3
REMARK    2  A    between atoms: C_6  and  C_7
REMARK    3  A    between atoms: C_7  and  N_8
REMARK    4  A    between atoms: N_8  and  C_9
REMARK    5  A    between atoms: C_12  and  C_13
REMARK    6  A    between atoms: C_19  and  C_20
REMARK    7  A    between atoms: C_20  and  O_21
REMARK                            x       y       z     vdW  Elec       q    Type
REMARK                         _______ _______ _______ _____ _____    ______ ____
ROOT
ATOM      1  C   UNL     1      48.865   5.290  17.057  0.00  0.00    +0.000 C 
ATOM      2  C   UNL     1      49.276   6.737  17.233  0.00  0.00    +0.000 C 
ATOM      3  C   UNL     1      48.569   6.060  18.365  0.00  0.00    +0.000 C 
ENDROOT
BRANCH   1   7
ATOM      4  C   UNL     1      51.807   2.117  17.639  0.00  0.00    +0.000 A 
ATOM      5  C   UNL     1      52.192   3.455  17.741  0.00  0.00    +0.000 A 
ATOM      6  C   UNL     1      51.260   4.477  17.519  0.00  0.00    +0.000 A 
ATOM      7  C   UNL     1      49.926   4.192  17.188  0.00  0.00    +0.000 A 
ATOM      8  C   UNL     1      49.583   2.835  17.018  0.00  0.00    +0.000 A 
ATOM      9  C   UNL     1      50.501   1.809  17.257  0.00  0.00    +0.000 A 
BRANCH   4  11
ATOM     10  N   UNL     1      53.482   0.210  18.183  0.00  0.00    +0.000 NA
ATOM     11  C   UNL     1      52.730   1.067  17.952  0.00  0.00    +0.000 C 
ENDBRANCH   4  11
ENDBRANCH   1   7
BRANCH   1  12
ATOM     12  N   UNL     1      47.689   4.890  16.278  0.00  0.00    +0.000 N 
ATOM     13  H   UNL     1      47.197   4.075  16.640  0.00  0.00    +0.000 HD
BRANCH  12  14
ATOM     14  C   UNL     1      47.337   5.200  14.952  0.00  0.00    +0.000 A 
ATOM     15  C   UNL     1      47.695   6.363  14.266  0.00  0.00    +0.000 A 
ATOM     16  C   UNL     1      47.185   6.618  12.981  0.00  0.00    +0.000 A 
ATOM     17  C   UNL     1      46.295   5.726  12.363  0.00  0.00    +0.000 A 
ATOM     18  C   UNL     1      45.929   4.567  13.041  0.00  0.00    +0.000 A 
ATOM     19  C   UNL     1      46.443   4.319  14.318  0.00  0.00    +0.000 A 
BRANCH  17  20
ATOM     20  C   UNL     1      45.703   6.067  11.043  0.00  0.00    +0.000 C 
ATOM     21  N   UNL     1      45.005   7.241  10.942  0.00  0.00    +0.000 N 
ATOM     22  O   UNL     1      45.830   5.328  10.074  0.00  0.00    +0.000 OA
ATOM     23  H   UNL     1      44.757   7.820  11.731  0.00  0.00    +0.000 HD
ATOM     24  H   UNL     1      44.580   7.447  10.048  0.00  0.00    +0.000 HD
ENDBRANCH  17  20
ENDBRANCH  12  14
ENDBRANCH   1  12
BRANCH   3  25
ATOM     25  C   UNL     1      47.187   6.461  18.756  0.00  0.00    +0.000 C 
BRANCH  25  26
ATOM     26  O   UNL     1      46.377   5.290  18.796  0.00  0.00    +0.000 OA
ATOM     27  H   UNL     1      45.644   5.431  18.173  0.00  0.00    +0.000 HD
ENDBRANCH  25  26
ENDBRANCH   3  25
TORSDOF 7
ENDMDL
MODEL 7
REMARK VINA RESULT:    -5.716      4.306      6.228
REMARK INTER + INTRA:          -8.309
REMARK INTER:                  -7.639
REMARK INTRA:                  -0.670
REMARK UNBOUND:                -0.421
REMARK  Name = 
REMARK  7 active torsions:
REMARK  status: ('A' for Active; 'I' for Inactive)
REMARK    1  A    between atoms: C_2  and  C_3
REMARK    2  A    between atoms: C_6  and  C_7
REMARK    3  A    between atoms: C_7  and  N_8
REMARK    4  A    between atoms: N_8  and  C_9
REMARK    5  A    between atoms: C_12  and  C_13
REMARK    6  A    between atoms: C_19  and  C_20
REMARK    7  A    between atoms: C_20  and  O_21
REMARK                            x       y       z     vdW  Elec       q    Type
REMARK                         _______ _______ _______ _____ _____    ______ ____
ROOT
ATOM      1  C   UNL     1      48.520   7.390  13.621  0.00  0.00    +0.000 C 
ATOM      2  C   UNL     1      49.320   7.630  12.356  0.00  0.00    +0.000 C 
ATOM      3  C   UNL     1      48.826   8.820  13.118  0.00  0.00    +0.000 C 
ENDROOT
BRANCH   1   7
ATOM      4  C   UNL     1      50.716   6.092  17.164  0.00  0.00    +0.000 A 
ATOM      5  C   UNL     1      49.358   5.794  17.035  0.00  0.00    +0.000 A 
ATOM      6  C   UNL     1      48.640   6.240  15.918  0.00  0.00    +0.000 A 
ATOM      7  C   UNL     1      49.256   6.994  14.905  0.00  0.00    +0.000 A 
ATOM      8  C   UNL     1      50.607   7.344  15.098  0.00  0.00    +0.000 A 
ATOM      9  C   UNL     1      51.336   6.887  16.199  0.00  0.00    +0.000 A 
BRANCH   4  11
ATOM     10  N   UNL     1      52.111   5.153  19.141  0.00  0.00    +0.000 NA
ATOM     11  C   UNL     1      51.477   5.564  18.257  0.00  0.00    +0.000 C 
ENDBRANCH   4  11
ENDBRANCH   1   7
BRANCH   1  12
ATOM     12  N   UNL     1      47.106   7.001  13.602  0.00  0.00    +0.000 N 
ATOM     13  H   UNL     1      46.581   7.268  14.432  0.00  0.00    +0.000 HD
BRANCH  12  14
ATOM     14  C   UNL     1      46.448   6.032  12.824  0.00  0.00    +0.000 A 
ATOM     15  C   UNL     1      45.804   6.266  11.606  0.00  0.00    +0.000 A 
ATOM     16  C   UNL     1      45.077   5.241  10.976  0.00  0.00    +0.000 A 
ATOM     17  C   UNL     1      44.965   3.968  11.557  0.00  0.00    +0.000 A 
ATOM     18  C   UNL     1      45.599   3.727  12.772  0.00  0.00    +0.000 A 
ATOM     19  C   UNL     1      46.323   4.751  13.391  0.00  0.00    +0.000 A 
BRANCH  17  20
ATOM     20  C   UNL     1      44.115   2.933  10.911  0.00  0.00    +0.000 C 
ATOM     21  N   UNL     1      44.636   2.259   9.840  0.00  0.00    +0.000 N 
ATOM     22  O   UNL     1      42.985   2.687  11.318  0.00  0.00    +0.000 OA
ATOM     23  H   UNL     1      45.501   2.508   9.382  0.00  0.00    +0.000 HD
ATOM     24  H   UNL     1      44.036   1.580   9.389  0.00  0.00    +0.000 HD
ENDBRANCH  17  20
ENDBRANCH  12  14
ENDBRANCH   1  12
BRANCH   3  25
ATOM     25  C   UNL     1      47.768   9.707  12.553  0.00  0.00    +0.000 C 
BRANCH  25  26
ATOM     26  O   UNL     1      47.754  10.919  13.304  0.00  0.00    +0.000 OA
ATOM     27  H   UNL     1      46.894  10.962  13.755  0.00  0.00    +0.000 HD
ENDBRANCH  25  26
ENDBRANCH   3  25
TORSDOF 7
ENDMDL
MODEL 8
REMARK VINA RESULT:    -5.684      4.998      8.797
REMARK INTER + INTRA:          -8.265
REMARK INTER:                  -7.324
REMARK INTRA:                  -0.941
REMARK UNBOUND:                -0.421
REMARK  Name = 
REMARK  7 active torsions:
REMARK  status: ('A' for Active; 'I' for Inactive)
REMARK    1  A    between atoms: C_2  and  C_3
REMARK    2  A    between atoms: C_6  and  C_7
REMARK    3  A    between atoms: C_7  and  N_8
REMARK    4  A    between atoms: N_8  and  C_9
REMARK    5  A    between atoms: C_12  and  C_13
REMARK    6  A    between atoms: C_19  and  C_20
REMARK    7  A    between atoms: C_20  and  O_21
REMARK                            x       y       z     vdW  Elec       q    Type
REMARK                         _______ _______ _______ _____ _____    ______ ____
ROOT
ATOM      1  C   UNL     1      47.620   7.082  13.631  0.00  0.00    +0.000 C 
ATOM      2  C   UNL     1      47.291   8.549  13.446  0.00  0.00    +0.000 C 
ATOM      3  C   UNL     1      48.136   7.877  12.410  0.00  0.00    +0.000 C 
ENDROOT
BRANCH   1   7
ATOM      4  C   UNL     1      44.675   4.067  12.493  0.00  0.00    +0.000 A 
ATOM      5  C   UNL     1      44.318   5.417  12.523  0.00  0.00    +0.000 A 
ATOM      6  C   UNL     1      45.249   6.384  12.923  0.00  0.00    +0.000 A 
ATOM      7  C   UNL     1      46.554   6.031  13.304  0.00  0.00    +0.000 A 
ATOM      8  C   UNL     1      46.863   4.656  13.337  0.00  0.00    +0.000 A 
ATOM      9  C   UNL     1      45.947   3.686  12.920  0.00  0.00    +0.000 A 
BRANCH   4  11
ATOM     10  N   UNL     1      43.030   2.277  11.584  0.00  0.00    +0.000 NA
ATOM     11  C   UNL     1      43.758   3.082  12.000  0.00  0.00    +0.000 C 
ENDBRANCH   4  11
ENDBRANCH   1   7
BRANCH   1  12
ATOM     12  N   UNL     1      48.651   6.612  14.563  0.00  0.00    +0.000 N 
ATOM     13  H   UNL     1      49.399   6.074  14.131  0.00  0.00    +0.000 HD
BRANCH  12  14
ATOM     14  C   UNL     1      48.604   6.467  15.961  0.00  0.00    +0.000 A 
ATOM     15  C   UNL     1      48.287   5.292  16.646  0.00  0.00    +0.000 A 
ATOM     16  C   UNL     1      48.157   5.297  18.047  0.00  0.00    +0.000 A 
ATOM     17  C   UNL     1      48.325   6.478  18.786  0.00  0.00    +0.000 A 
ATOM     18  C   UNL     1      48.637   7.654  18.111  0.00  0.00    +0.000 A 
ATOM     19  C   UNL     1      48.768   7.640  16.718  0.00  0.00    +0.000 A 
BRANCH  17  20
ATOM     20  C   UNL     1      48.092   6.469  20.255  0.00  0.00    +0.000 C 
ATOM     21  N   UNL     1      47.079   5.683  20.734  0.00  0.00    +0.000 N 
ATOM     22  O   UNL     1      48.778   7.141  21.016  0.00  0.00    +0.000 OA
ATOM     23  H   UNL     1      46.402   5.215  20.149  0.00  0.00    +0.000 HD
ATOM     24  H   UNL     1      46.910   5.710  21.732  0.00  0.00    +0.000 HD
ENDBRANCH  17  20
ENDBRANCH  12  14
ENDBRANCH   1  12
BRANCH   3  25
ATOM     25  C   UNL     1      49.575   8.235  12.244  0.00  0.00    +0.000 C 
BRANCH  25  26
ATOM     26  O   UNL     1      50.295   7.048  11.920  0.00  0.00    +0.000 OA
ATOM     27  H   UNL     1      49.894   6.685  11.113  0.00  0.00    +0.000 HD
ENDBRANCH  25  26
ENDBRANCH   3  25
TORSDOF 7
ENDMDL
MODEL 9
REMARK VINA RESULT:    -5.670      4.534      6.571
REMARK INTER + INTRA:          -8.246
REMARK INTER:                  -7.384
REMARK INTRA:                  -0.861
REMARK UNBOUND:                -0.421
REMARK  Name = 
REMARK  7 active torsions:
REMARK  status: ('A' for Active; 'I' for Inactive)
REMARK    1  A    between atoms: C_2  and  C_3
REMARK    2  A    between atoms: C_6  and  C_7
REMARK    3  A    between atoms: C_7  and  N_8
REMARK    4  A    between atoms: N_8  and  C_9
REMARK    5  A    between atoms: C_12  and  C_13
REMARK    6  A    between atoms: C_19  and  C_20
REMARK    7  A    between atoms: C_20  and  O_21
REMARK                            x       y       z     vdW  Elec       q    Type
REMARK                         _______ _______ _______ _____ _____    ______ ____
ROOT
ATOM      1  C   UNL     1      46.132   5.030  13.357  0.00  0.00    +0.000 C 
ATOM      2  C   UNL     1      45.938   3.913  12.353  0.00  0.00    +0.000 C 
ATOM      3  C   UNL     1      44.774   4.804  12.655  0.00  0.00    +0.000 C 
ENDROOT
BRANCH   1   7
ATOM      4  C   UNL     1      48.329   8.661  12.333  0.00  0.00    +0.000 A 
ATOM      5  C   UNL     1      46.963   8.727  12.617  0.00  0.00    +0.000 A 
ATOM      6  C   UNL     1      46.246   7.560  12.910  0.00  0.00    +0.000 A 
ATOM      7  C   UNL     1      46.870   6.302  12.925  0.00  0.00    +0.000 A 
ATOM      8  C   UNL     1      48.231   6.256  12.562  0.00  0.00    +0.000 A 
ATOM      9  C   UNL     1      48.959   7.417  12.288  0.00  0.00    +0.000 A 
BRANCH   4  11
ATOM     10  N   UNL     1      49.690  10.834  11.929  0.00  0.00    +0.000 NA
ATOM     11  C   UNL     1      49.087   9.859  12.121  0.00  0.00    +0.000 C 
ENDBRANCH   4  11
ENDBRANCH   1   7
BRANCH   1  12
ATOM     12  N   UNL     1      46.143   4.800  14.805  0.00  0.00    +0.000 N 
ATOM     13  H   UNL     1      45.297   5.095  15.288  0.00  0.00    +0.000 HD
BRANCH  12  14
ATOM     14  C   UNL     1      47.226   4.583  15.676  0.00  0.00    +0.000 A 
ATOM     15  C   UNL     1      48.092   5.567  16.158  0.00  0.00    +0.000 A 
ATOM     16  C   UNL     1      49.212   5.214  16.932  0.00  0.00    +0.000 A 
ATOM     17  C   UNL     1      49.498   3.871  17.223  0.00  0.00    +0.000 A 
ATOM     18  C   UNL     1      48.643   2.884  16.743  0.00  0.00    +0.000 A 
ATOM     19  C   UNL     1      47.529   3.243  15.978  0.00  0.00    +0.000 A 
BRANCH  17  20
ATOM     20  C   UNL     1      50.739   3.524  17.966  0.00  0.00    +0.000 C 
ATOM     21  N   UNL     1      50.960   4.149  19.163  0.00  0.00    +0.000 N 
ATOM     22  O   UNL     1      51.541   2.708  17.527  0.00  0.00    +0.000 OA
ATOM     23  H   UNL     1      50.407   4.920  19.509  0.00  0.00    +0.000 HD
ATOM     24  H   UNL     1      51.823   3.928  19.644  0.00  0.00    +0.000 HD
ENDBRANCH  17  20
ENDBRANCH  12  14
ENDBRANCH   1  12
BRANCH   3  25
ATOM     25  C   UNL     1      43.580   4.284  13.382  0.00  0.00    +0.000 C 
BRANCH  25  26
ATOM     26  O   UNL     1      42.619   5.333  13.469  0.00  0.00    +0.000 OA
ATOM     27  H   UNL     1      42.183   5.247  14.334  0.00  0.00    +0.000 HD
ENDBRANCH  25  26
ENDBRANCH   3  25
TORSDOF 7
ENDMDL
