MODEL 1
REMARK VINA RESULT:    -9.176      0.000      0.000
REMARK INTER + INTRA:         -12.603
REMARK INTER:                 -11.858
REMARK INTRA:                  -0.745
REMARK UNBOUND:                -0.745
REMARK  Name = 
REMARK  5 active torsions:
REMARK  status: ('A' for Active; 'I' for Inactive)
REMARK    1  A    between atoms: C_2  and  C_4
REMARK    2  A    between atoms: C_8  and  N_9
REMARK    3  A    between atoms: N_9  and  C_10
REMARK    4  A    between atoms: C_10  and  C_11
REMARK    5  A    between atoms: C_15  and  C_16
REMARK                            x       y       z     vdW  Elec       q    Type
REMARK                         _______ _______ _______ _____ _____    ______ ____
ROOT
ATOM      1  C   UNL     1      43.268   6.422  10.975  0.00  0.00    +0.000 C 
ENDROOT
BRANCH   1   2
ATOM      2  C   UNL     1      43.524   4.960  10.770  0.00  0.00    +0.000 A 
ATOM      3  C   UNL     1      42.947   4.011  11.602  0.00  0.00    +0.000 A 
ATOM      4  N   UNL     1      43.136   2.684  11.466  0.00  0.00    +0.000 NA
ATOM      5  C   UNL     1      43.953   2.284  10.459  0.00  0.00    +0.000 A 
ATOM      6  C   UNL     1      44.599   3.133   9.556  0.00  0.00    +0.000 A 
ATOM      7  C   UNL     1      44.361   4.504   9.744  0.00  0.00    +0.000 A 
BRANCH   6   8
ATOM      8  C   UNL     1      45.468   2.628   8.472  0.00  0.00    +0.000 A 
ATOM      9  C   UNL     1      45.946   1.306   8.468  0.00  0.00    +0.000 A 
ATOM     10  C   UNL     1      46.761   0.837   7.436  0.00  0.00    +0.000 A 
ATOM     11  F   UNL     1      47.199  -0.428   7.473  0.00  0.00    +0.000 F 
ATOM     12  C   UNL     1      47.119   1.653   6.377  0.00  0.00    +0.000 A 
ATOM     13  C   UNL     1      46.653   2.953   6.363  0.00  0.00    +0.000 A 
ATOM     14  F   UNL     1      46.979   3.762   5.344  0.00  0.00    +0.000 F 
ATOM     15  C   UNL     1      45.848   3.446   7.389  0.00  0.00    +0.000 A 
ENDBRANCH   6   8
ENDBRANCH   1   2
BRANCH   1  16
ATOM     16  N   UNL     1      43.805   6.849  12.256  0.00  0.00    +0.000 N 
ATOM     17  H   UNL     1      43.154   6.775  13.037  0.00  0.00    +0.000 HD
BRANCH  16  22
ATOM     18  C   UNL     1      46.817   5.280  13.779  0.00  0.00    +0.000 A 
ATOM     19  C   UNL     1      47.787   5.905  13.012  0.00  0.00    +0.000 A 
ATOM     20  N   UNL     1      47.500   6.807  12.046  0.00  0.00    +0.000 NA
ATOM     21  C   UNL     1      46.187   7.093  11.855  0.00  0.00    +0.000 A 
ATOM     22  C   UNL     1      45.126   6.561  12.598  0.00  0.00    +0.000 A 
ATOM     23  C   UNL     1      45.478   5.626  13.572  0.00  0.00    +0.000 A 
BRANCH  18  25
ATOM     24  N   UNL     1      47.245   4.674  16.090  0.00  0.00    +0.000 N 
ATOM     25  C   UNL     1      47.218   4.273  14.781  0.00  0.00    +0.000 C 
ATOM     26  O   UNL     1      47.483   3.122  14.463  0.00  0.00    +0.000 OA
ATOM     27  H   UNL     1      47.416   3.949  16.775  0.00  0.00    +0.000 HD
ATOM     28  H   UNL     1      46.774   5.509  16.409  0.00  0.00    +0.000 HD
ENDBRANCH  18  25
ENDBRANCH  16  22
ENDBRANCH   1  16
TORSDOF 5
ENDMDL
MODEL 2
REMARK VINA RESULT:    -9.005      0.293      1.663
REMARK INTER + INTRA:         -12.382
REMARK INTER:                 -11.644
REMARK INTRA:                  -0.738
REMARK UNBOUND:                -0.745
REMARK  Name = 
REMARK  5 active torsions:
REMARK  status: ('A' for Active; 'I' for Inactive)
REMARK    1  A    between atoms: C_2  and  C_4
REMARK    2  A    between atoms: C_8  and  N_9
REMARK    3  A    between atoms: N_9  and  C_10
REMARK    4  A    between atoms: C_10  and  C_11
REMARK    5  A    between atoms: C_15  and  C_16
REMARK                            x       y       z     vdW  Elec       q    Type
REMARK                         _______ _______ _______ _____ _____    ______ ____
ROOT
ATOM      1  C   UNL     1      43.622   6.725  10.989  0.00  0.00    +0.000 C 
ENDROOT
BRANCH   1   2
ATOM      2  C   UNL     1      43.725   5.245  10.778  0.00  0.00    +0.000 A 
ATOM      3  C   UNL     1      43.025   4.359  11.584  0.00  0.00    +0.000 A 
ATOM      4  N   UNL     1      43.074   3.020  11.441  0.00  0.00    +0.000 NA
ATOM      5  C   UNL     1      43.871   2.540  10.455  0.00  0.00    +0.000 A 
ATOM      6  C   UNL     1      44.632   3.320   9.578  0.00  0.00    +0.000 A 
ATOM      7  C   UNL     1      44.538   4.707   9.772  0.00  0.00    +0.000 A 
BRANCH   6   8
ATOM      8  C   UNL     1      45.473   2.730   8.515  0.00  0.00    +0.000 A 
ATOM      9  C   UNL     1      45.868   3.476   7.390  0.00  0.00    +0.000 A 
ATOM     10  C   UNL     1      46.667   2.911   6.395  0.00  0.00    +0.000 A 
ATOM     11  F   UNL     1      47.017   3.654   5.338  0.00  0.00    +0.000 F 
ATOM     12  C   UNL     1      47.107   1.601   6.484  0.00  0.00    +0.000 A 
ATOM     13  C   UNL     1      46.731   0.857   7.586  0.00  0.00    +0.000 A 
ATOM     14  F   UNL     1      47.150  -0.413   7.700  0.00  0.00    +0.000 F 
ATOM     15  C   UNL     1      45.924   1.397   8.586  0.00  0.00    +0.000 A 
ENDBRANCH   6   8
ENDBRANCH   1   2
BRANCH   1  16
ATOM     16  N   UNL     1      44.069   7.071  12.328  0.00  0.00    +0.000 N 
ATOM     17  H   UNL     1      43.354   6.991  13.049  0.00  0.00    +0.000 HD
BRANCH  16  22
ATOM     18  C   UNL     1      46.897   5.243  13.912  0.00  0.00    +0.000 A 
ATOM     19  C   UNL     1      47.945   5.952  13.350  0.00  0.00    +0.000 A 
ATOM     20  N   UNL     1      47.766   6.989  12.500  0.00  0.00    +0.000 NA
ATOM     21  C   UNL     1      46.481   7.325  12.217  0.00  0.00    +0.000 A 
ATOM     22  C   UNL     1      45.346   6.712  12.760  0.00  0.00    +0.000 A 
ATOM     23  C   UNL     1      45.589   5.640  13.620  0.00  0.00    +0.000 A 
BRANCH  18  25
ATOM     24  N   UNL     1      47.037   4.292  16.141  0.00  0.00    +0.000 N 
ATOM     25  C   UNL     1      47.185   4.095  14.795  0.00  0.00    +0.000 C 
ATOM     26  O   UNL     1      47.512   3.006  14.343  0.00  0.00    +0.000 OA
ATOM     27  H   UNL     1      47.132   3.471  16.726  0.00  0.00    +0.000 HD
ATOM     28  H   UNL     1      46.511   5.068  16.519  0.00  0.00    +0.000 HD
ENDBRANCH  18  25
ENDBRANCH  16  22
ENDBRANCH   1  16
TORSDOF 5
ENDMDL
MODEL 3
REMARK VINA RESULT:    -8.681      2.036      3.150
REMARK INTER + INTRA:         -11.963
REMARK INTER:                 -11.133
REMARK INTRA:                  -0.831
REMARK UNBOUND:                -0.745
REMARK  Name = 
REMARK  5 active torsions:
REMARK  status: ('A' for Active; 'I' for Inactive)
REMARK    1  A    between atoms: C_2  and  C_4
REMARK    2  A    between atoms: C_8  and  N_9
REMARK    3  A    between atoms: N_9  and  C_10
REMARK    4  A    between atoms: C_10  and  C_11
REMARK    5  A    between atoms: C_15  and  C_16
REMARK                            x       y       z     vdW  Elec       q    Type
REMARK                         _______ _______ _______ _____ _____    ______ ____
ROOT
ATOM      1  C   UNL     1      44.049   6.767  11.388  0.00  0.00    +0.000 C 
ENDROOT
BRANCH   1   2
ATOM      2  C   UNL     1      43.996   5.311  11.037  0.00  0.00    +0.000 A 
ATOM      3  C   UNL     1      43.191   4.434  11.750  0.00  0.00    +0.000 A 
ATOM      4  N   UNL     1      43.098   3.117  11.479  0.00  0.00    +0.000 NA
ATOM      5  C   UNL     1      43.857   2.650  10.457  0.00  0.00    +0.000 A 
ATOM      6  C   UNL     1      44.712   3.421   9.665  0.00  0.00    +0.000 A 
ATOM      7  C   UNL     1      44.764   4.786   9.990  0.00  0.00    +0.000 A 
BRANCH   6   8
ATOM      8  C   UNL     1      45.503   2.847   8.556  0.00  0.00    +0.000 A 
ATOM      9  C   UNL     1      45.873   3.618   7.439  0.00  0.00    +0.000 A 
ATOM     10  C   UNL     1      46.625   3.067   6.401  0.00  0.00    +0.000 A 
ATOM     11  F   UNL     1      46.953   3.834   5.353  0.00  0.00    +0.000 F 
ATOM     12  C   UNL     1      47.041   1.747   6.437  0.00  0.00    +0.000 A 
ATOM     13  C   UNL     1      46.690   0.978   7.529  0.00  0.00    +0.000 A 
ATOM     14  F   UNL     1      47.087  -0.303   7.592  0.00  0.00    +0.000 F 
ATOM     15  C   UNL     1      45.929   1.504   8.572  0.00  0.00    +0.000 A 
ENDBRANCH   6   8
ENDBRANCH   1   2
BRANCH   1  16
ATOM     16  N   UNL     1      44.806   6.958  12.614  0.00  0.00    +0.000 N 
ATOM     17  H   UNL     1      44.398   6.521  13.439  0.00  0.00    +0.000 HD
BRANCH  16  22
ATOM     18  C   UNL     1      48.374   7.924  12.173  0.00  0.00    +0.000 A 
ATOM     19  C   UNL     1      48.961   6.859  12.834  0.00  0.00    +0.000 A 
ATOM     20  N   UNL     1      48.252   5.853  13.396  0.00  0.00    +0.000 NA
ATOM     21  C   UNL     1      46.901   5.925  13.277  0.00  0.00    +0.000 A 
ATOM     22  C   UNL     1      46.201   6.927  12.594  0.00  0.00    +0.000 A 
ATOM     23  C   UNL     1      46.982   7.945  12.045  0.00  0.00    +0.000 A 
BRANCH  18  25
ATOM     24  N   UNL     1      50.572   8.770  11.584  0.00  0.00    +0.000 N 
ATOM     25  C   UNL     1      49.224   9.001  11.628  0.00  0.00    +0.000 C 
ATOM     26  O   UNL     1      48.743  10.044  11.203  0.00  0.00    +0.000 OA
ATOM     27  H   UNL     1      51.130   9.469  11.111  0.00  0.00    +0.000 HD
ATOM     28  H   UNL     1      50.963   7.841  11.659  0.00  0.00    +0.000 HD
ENDBRANCH  18  25
ENDBRANCH  16  22
ENDBRANCH   1  16
TORSDOF 5
ENDMDL
MODEL 4
REMARK VINA RESULT:    -8.643      1.804      2.536
REMARK INTER + INTRA:         -11.915
REMARK INTER:                 -11.106
REMARK INTRA:                  -0.809
REMARK UNBOUND:                -0.745
REMARK  Name = 
REMARK  5 active torsions:
REMARK  status: ('A' for Active; 'I' for Inactive)
REMARK    1  A    between atoms: C_2  and  C_4
REMARK    2  A    between atoms: C_8  and  N_9
REMARK    3  A    between atoms: N_9  and  C_10
REMARK    4  A    between atoms: C_10  and  C_11
REMARK    5  A    between atoms: C_15  and  C_16
REMARK                            x       y       z     vdW  Elec       q    Type
REMARK                         _______ _______ _______ _____ _____    ______ ____
ROOT
ATOM      1  C   UNL     1      43.809   6.717  11.332  0.00  0.00    +0.000 C 
ENDROOT
BRANCH   1   2
ATOM      2  C   UNL     1      43.841   5.253  11.013  0.00  0.00    +0.000 A 
ATOM      3  C   UNL     1      43.089   4.347  11.747  0.00  0.00    +0.000 A 
ATOM      4  N   UNL     1      43.074   3.021  11.506  0.00  0.00    +0.000 NA
ATOM      5  C   UNL     1      43.857   2.576  10.493  0.00  0.00    +0.000 A 
ATOM      6  C   UNL     1      44.665   3.379   9.681  0.00  0.00    +0.000 A 
ATOM      7  C   UNL     1      44.637   4.750   9.976  0.00  0.00    +0.000 A 
BRANCH   6   8
ATOM      8  C   UNL     1      45.487   2.827   8.583  0.00  0.00    +0.000 A 
ATOM      9  C   UNL     1      45.929   1.492   8.594  0.00  0.00    +0.000 A 
ATOM     10  C   UNL     1      46.699   0.979   7.548  0.00  0.00    +0.000 A 
ATOM     11  F   UNL     1      47.103  -0.296   7.599  0.00  0.00    +0.000 F 
ATOM     12  C   UNL     1      47.047   1.763   6.461  0.00  0.00    +0.000 A 
ATOM     13  C   UNL     1      46.616   3.076   6.434  0.00  0.00    +0.000 A 
ATOM     14  F   UNL     1      46.934   3.854   5.388  0.00  0.00    +0.000 F 
ATOM     15  C   UNL     1      45.856   3.612   7.472  0.00  0.00    +0.000 A 
ENDBRANCH   6   8
ENDBRANCH   1   2
BRANCH   1  16
ATOM     16  N   UNL     1      44.546   6.978  12.557  0.00  0.00    +0.000 N 
ATOM     17  H   UNL     1      44.091   6.647  13.406  0.00  0.00    +0.000 HD
BRANCH  16  22
ATOM     18  C   UNL     1      48.178   7.733  12.258  0.00  0.00    +0.000 A 
ATOM     19  C   UNL     1      48.677   6.618  12.912  0.00  0.00    +0.000 A 
ATOM     20  N   UNL     1      47.889   5.646  13.425  0.00  0.00    +0.000 NA
ATOM     21  C   UNL     1      46.549   5.803  13.263  0.00  0.00    +0.000 A 
ATOM     22  C   UNL     1      45.936   6.861  12.582  0.00  0.00    +0.000 A 
ATOM     23  C   UNL     1      46.795   7.842  12.085  0.00  0.00    +0.000 A 
BRANCH  18  25
ATOM     24  N   UNL     1      48.563   9.944  11.333  0.00  0.00    +0.000 N 
ATOM     25  C   UNL     1      49.111   8.768  11.769  0.00  0.00    +0.000 C 
ATOM     26  O   UNL     1      50.322   8.596  11.781  0.00  0.00    +0.000 OA
ATOM     27  H   UNL     1      49.216  10.682  11.103  0.00  0.00    +0.000 HD
ATOM     28  H   UNL     1      47.619  10.219  11.567  0.00  0.00    +0.000 HD
ENDBRANCH  18  25
ENDBRANCH  16  22
ENDBRANCH   1  16
TORSDOF 5
ENDMDL
MODEL 5
REMARK VINA RESULT:    -8.479      3.964      6.975
REMARK INTER + INTRA:         -11.703
REMARK INTER:                 -10.941
REMARK INTRA:                  -0.762
REMARK UNBOUND:                -0.745
REMARK  Name = 
REMARK  5 active torsions:
REMARK  status: ('A' for Active; 'I' for Inactive)
REMARK    1  A    between atoms: C_2  and  C_4
REMARK    2  A    between atoms: C_8  and  N_9
REMARK    3  A    between atoms: N_9  and  C_10
REMARK    4  A    between atoms: C_10  and  C_11
REMARK    5  A    between atoms: C_15  and  C_16
REMARK                            x       y       z     vdW  Elec       q    Type
REMARK                         _______ _______ _______ _____ _____    ______ ____
ROOT
ATOM      1  C   UNL     1      43.712   4.792  10.620  0.00  0.00    +0.000 C 
ENDROOT
BRANCH   1   2
ATOM      2  C   UNL     1      44.810   5.074  11.599  0.00  0.00    +0.000 A 
ATOM      3  C   UNL     1      44.974   4.291  12.733  0.00  0.00    +0.000 A 
ATOM      4  N   UNL     1      45.944   4.492  13.646  0.00  0.00    +0.000 NA
ATOM      5  C   UNL     1      46.784   5.534  13.425  0.00  0.00    +0.000 A 
ATOM      6  C   UNL     1      46.727   6.401  12.329  0.00  0.00    +0.000 A 
ATOM      7  C   UNL     1      45.699   6.139  11.410  0.00  0.00    +0.000 A 
BRANCH   6   8
ATOM      8  C   UNL     1      47.685   7.511  12.144  0.00  0.00    +0.000 A 
ATOM      9  C   UNL     1      49.047   7.273  11.885  0.00  0.00    +0.000 A 
ATOM     10  C   UNL     1      49.941   8.330  11.705  0.00  0.00    +0.000 A 
ATOM     11  F   UNL     1      51.231   8.060  11.465  0.00  0.00    +0.000 F 
ATOM     12  C   UNL     1      49.519   9.647  11.765  0.00  0.00    +0.000 A 
ATOM     13  C   UNL     1      48.183   9.897  12.013  0.00  0.00    +0.000 A 
ATOM     14  F   UNL     1      47.747  11.165  12.068  0.00  0.00    +0.000 F 
ATOM     15  C   UNL     1      47.274   8.858  12.207  0.00  0.00    +0.000 A 
ENDBRANCH   6   8
ENDBRANCH   1   2
BRANCH   1  16
ATOM     16  N   UNL     1      44.241   4.769   9.267  0.00  0.00    +0.000 N 
ATOM     17  H   UNL     1      44.703   5.630   8.976  0.00  0.00    +0.000 HD
BRANCH  16  22
ATOM     18  C   UNL     1      46.487   2.453   7.411  0.00  0.00    +0.000 A 
ATOM     19  C   UNL     1      46.116   1.268   8.023  0.00  0.00    +0.000 A 
ATOM     20  N   UNL     1      45.173   1.197   8.990  0.00  0.00    +0.000 NA
ATOM     21  C   UNL     1      44.579   2.366   9.343  0.00  0.00    +0.000 A 
ATOM     22  C   UNL     1      44.839   3.613   8.763  0.00  0.00    +0.000 A 
ATOM     23  C   UNL     1      45.830   3.630   7.781  0.00  0.00    +0.000 A 
BRANCH  18  25
ATOM     24  N   UNL     1      47.397   3.262   5.311  0.00  0.00    +0.000 N 
ATOM     25  C   UNL     1      47.559   2.444   6.396  0.00  0.00    +0.000 C 
ATOM     26  O   UNL     1      48.565   1.760   6.532  0.00  0.00    +0.000 OA
ATOM     27  H   UNL     1      48.185   3.327   4.678  0.00  0.00    +0.000 HD
ATOM     28  H   UNL     1      46.736   4.027   5.304  0.00  0.00    +0.000 HD
ENDBRANCH  18  25
ENDBRANCH  16  22
ENDBRANCH   1  16
TORSDOF 5
ENDMDL
MODEL 6
REMARK VINA RESULT:    -8.250      3.836      6.959
REMARK INTER + INTRA:         -11.406
REMARK INTER:                 -10.920
REMARK INTRA:                  -0.486
REMARK UNBOUND:                -0.745
REMARK  Name = 
REMARK  5 active torsions:
REMARK  status: ('A' for Active; 'I' for Inactive)
REMARK    1  A    between atoms: C_2  and  C_4
REMARK    2  A    between atoms: C_8  and  N_9
REMARK    3  A    between atoms: N_9  and  C_10
REMARK    4  A    between atoms: C_10  and  C_11
REMARK    5  A    between atoms: C_15  and  C_16
REMARK                            x       y       z     vdW  Elec       q    Type
REMARK                         _______ _______ _______ _____ _____    ______ ____
ROOT
ATOM      1  C   UNL     1      44.368   2.704  11.874  0.00  0.00    +0.000 C 
ENDROOT
BRANCH   1   2
ATOM      2  C   UNL     1      45.323   3.731  12.401  0.00  0.00    +0.000 A 
ATOM      3  C   UNL     1      46.390   3.365  13.209  0.00  0.00    +0.000 A 
ATOM      4  N   UNL     1      47.283   4.241  13.709  0.00  0.00    +0.000 NA
ATOM      5  C   UNL     1      47.095   5.548  13.399  0.00  0.00    +0.000 A 
ATOM      6  C   UNL     1      46.062   6.050  12.601  0.00  0.00    +0.000 A 
ATOM      7  C   UNL     1      45.166   5.091  12.106  0.00  0.00    +0.000 A 
BRANCH   6   8
ATOM      8  C   UNL     1      45.924   7.489  12.293  0.00  0.00    +0.000 A 
ATOM      9  C   UNL     1      44.760   8.006  11.697  0.00  0.00    +0.000 A 
ATOM     10  C   UNL     1      44.637   9.367  11.415  0.00  0.00    +0.000 A 
ATOM     11  F   UNL     1      43.514   9.818  10.843  0.00  0.00    +0.000 F 
ATOM     12  C   UNL     1      45.652  10.258  11.721  0.00  0.00    +0.000 A 
ATOM     13  C   UNL     1      46.801   9.767  12.311  0.00  0.00    +0.000 A 
ATOM     14  F   UNL     1      47.796  10.611  12.624  0.00  0.00    +0.000 F 
ATOM     15  C   UNL     1      46.949   8.410  12.591  0.00  0.00    +0.000 A 
ENDBRANCH   6   8
ENDBRANCH   1   2
BRANCH   1  16
ATOM     16  N   UNL     1      43.949   3.054  10.527  0.00  0.00    +0.000 N 
ATOM     17  H   UNL     1      43.224   3.768  10.479  0.00  0.00    +0.000 HD
BRANCH  16  22
ATOM     18  C   UNL     1      46.379   2.147   7.858  0.00  0.00    +0.000 A 
ATOM     19  C   UNL     1      46.542   3.399   7.290  0.00  0.00    +0.000 A 
ATOM     20  N   UNL     1      45.910   4.506   7.743  0.00  0.00    +0.000 NA
ATOM     21  C   UNL     1      45.092   4.341   8.814  0.00  0.00    +0.000 A 
ATOM     22  C   UNL     1      44.886   3.136   9.497  0.00  0.00    +0.000 A 
ATOM     23  C   UNL     1      45.552   2.025   8.978  0.00  0.00    +0.000 A 
BRANCH  18  25
ATOM     24  N   UNL     1      46.706  -0.255   7.720  0.00  0.00    +0.000 N 
ATOM     25  C   UNL     1      47.074   0.984   7.269  0.00  0.00    +0.000 C 
ATOM     26  O   UNL     1      47.918   1.119   6.394  0.00  0.00    +0.000 OA
ATOM     27  H   UNL     1      47.112  -1.045   7.234  0.00  0.00    +0.000 HD
ATOM     28  H   UNL     1      45.841  -0.414   8.219  0.00  0.00    +0.000 HD
ENDBRANCH  18  25
ENDBRANCH  16  22
ENDBRANCH   1  16
TORSDOF 5
ENDMDL
MODEL 7
REMARK VINA RESULT:    -8.207      1.529      2.736
REMARK INTER + INTRA:         -11.351
REMARK INTER:                 -10.709
REMARK INTRA:                  -0.642
REMARK UNBOUND:                -0.745
REMARK  Name = 
REMARK  5 active torsions:
REMARK  status: ('A' for Active; 'I' for Inactive)
REMARK    1  A    between atoms: C_2  and  C_4
REMARK    2  A    between atoms: C_8  and  N_9
REMARK    3  A    between atoms: N_9  and  C_10
REMARK    4  A    between atoms: C_10  and  C_11
REMARK    5  A    between atoms: C_15  and  C_16
REMARK                            x       y       z     vdW  Elec       q    Type
REMARK                         _______ _______ _______ _____ _____    ______ ____
ROOT
ATOM      1  C   UNL     1      45.392   5.734  12.783  0.00  0.00    +0.000 C 
ENDROOT
BRANCH   1   2
ATOM      2  C   UNL     1      44.821   4.648  11.923  0.00  0.00    +0.000 A 
ATOM      3  C   UNL     1      43.623   4.032  12.253  0.00  0.00    +0.000 A 
ATOM      4  N   UNL     1      43.058   3.053  11.518  0.00  0.00    +0.000 NA
ATOM      5  C   UNL     1      43.729   2.660  10.408  0.00  0.00    +0.000 A 
ATOM      6  C   UNL     1      44.944   3.192   9.965  0.00  0.00    +0.000 A 
ATOM      7  C   UNL     1      45.481   4.211  10.768  0.00  0.00    +0.000 A 
BRANCH   6   8
ATOM      8  C   UNL     1      45.617   2.724   8.735  0.00  0.00    +0.000 A 
ATOM      9  C   UNL     1      45.933   3.607   7.687  0.00  0.00    +0.000 A 
ATOM     10  C   UNL     1      46.574   3.155   6.532  0.00  0.00    +0.000 A 
ATOM     11  F   UNL     1      46.853   4.028   5.556  0.00  0.00    +0.000 F 
ATOM     12  C   UNL     1      46.929   1.825   6.381  0.00  0.00    +0.000 A 
ATOM     13  C   UNL     1      46.629   0.946   7.404  0.00  0.00    +0.000 A 
ATOM     14  F   UNL     1      46.969  -0.347   7.286  0.00  0.00    +0.000 F 
ATOM     15  C   UNL     1      45.980   1.373   8.561  0.00  0.00    +0.000 A 
ENDBRANCH   6   8
ENDBRANCH   1   2
BRANCH   1  16
ATOM     16  N   UNL     1      46.819   5.530  12.965  0.00  0.00    +0.000 N 
ATOM     17  H   UNL     1      47.406   5.975  12.261  0.00  0.00    +0.000 HD
BRANCH  16  22
ATOM     18  C   UNL     1      47.718   4.583  16.450  0.00  0.00    +0.000 A 
ATOM     19  C   UNL     1      48.727   5.507  16.664  0.00  0.00    +0.000 A 
ATOM     20  N   UNL     1      49.109   6.414  15.736  0.00  0.00    +0.000 NA
ATOM     21  C   UNL     1      48.439   6.391  14.555  0.00  0.00    +0.000 A 
ATOM     22  C   UNL     1      47.375   5.537  14.245  0.00  0.00    +0.000 A 
ATOM     23  C   UNL     1      47.032   4.613  15.233  0.00  0.00    +0.000 A 
BRANCH  18  25
ATOM     24  N   UNL     1      48.192   3.597  18.617  0.00  0.00    +0.000 N 
ATOM     25  C   UNL     1      47.397   3.598  17.503  0.00  0.00    +0.000 C 
ATOM     26  O   UNL     1      46.444   2.838  17.400  0.00  0.00    +0.000 OA
ATOM     27  H   UNL     1      47.897   2.993  19.375  0.00  0.00    +0.000 HD
ATOM     28  H   UNL     1      48.792   4.375  18.854  0.00  0.00    +0.000 HD
ENDBRANCH  18  25
ENDBRANCH  16  22
ENDBRANCH   1  16
TORSDOF 5
ENDMDL
MODEL 8
REMARK VINA RESULT:    -8.202      4.318      7.668
REMARK INTER + INTRA:         -11.345
REMARK INTER:                 -10.653
REMARK INTRA:                  -0.692
REMARK UNBOUND:                -0.745
REMARK  Name = 
REMARK  5 active torsions:
REMARK  status: ('A' for Active; 'I' for Inactive)
REMARK    1  A    between atoms: C_2  and  C_4
REMARK    2  A    between atoms: C_8  and  N_9
REMARK    3  A    between atoms: N_9  and  C_10
REMARK    4  A    between atoms: C_10  and  C_11
REMARK    5  A    between atoms: C_15  and  C_16
REMARK                            x       y       z     vdW  Elec       q    Type
REMARK                         _______ _______ _______ _____ _____    ______ ____
ROOT
ATOM      1  C   UNL     1      44.335   4.978  11.127  0.00  0.00    +0.000 C 
ENDROOT
BRANCH   1   2
ATOM      2  C   UNL     1      45.577   5.528  11.759  0.00  0.00    +0.000 A 
ATOM      3  C   UNL     1      46.375   6.442  11.087  0.00  0.00    +0.000 A 
ATOM      4  N   UNL     1      47.500   6.974  11.604  0.00  0.00    +0.000 NA
ATOM      5  C   UNL     1      47.854   6.563  12.847  0.00  0.00    +0.000 A 
ATOM      6  C   UNL     1      47.144   5.646  13.629  0.00  0.00    +0.000 A 
ATOM      7  C   UNL     1      45.980   5.130  13.040  0.00  0.00    +0.000 A 
BRANCH   6   8
ATOM      8  C   UNL     1      47.582   5.251  14.984  0.00  0.00    +0.000 A 
ATOM      9  C   UNL     1      47.157   4.047  15.573  0.00  0.00    +0.000 A 
ATOM     10  C   UNL     1      47.582   3.681  16.851  0.00  0.00    +0.000 A 
ATOM     11  F   UNL     1      47.150   2.528  17.378  0.00  0.00    +0.000 F 
ATOM     12  C   UNL     1      48.442   4.484  17.580  0.00  0.00    +0.000 A 
ATOM     13  C   UNL     1      48.873   5.668  17.013  0.00  0.00    +0.000 A 
ATOM     14  F   UNL     1      49.713   6.461  17.696  0.00  0.00    +0.000 F 
ATOM     15  C   UNL     1      48.453   6.059  15.743  0.00  0.00    +0.000 A 
ENDBRANCH   6   8
ENDBRANCH   1   2
BRANCH   1  16
ATOM     16  N   UNL     1      44.473   4.968   9.680  0.00  0.00    +0.000 N 
ATOM     17  H   UNL     1      44.789   5.848   9.276  0.00  0.00    +0.000 HD
BRANCH  16  22
ATOM     18  C   UNL     1      46.389   2.751   7.385  0.00  0.00    +0.000 A 
ATOM     19  C   UNL     1      46.089   1.533   7.972  0.00  0.00    +0.000 A 
ATOM     20  N   UNL     1      45.293   1.411   9.059  0.00  0.00    +0.000 NA
ATOM     21  C   UNL     1      44.776   2.561   9.563  0.00  0.00    +0.000 A 
ATOM     22  C   UNL     1      44.972   3.840   9.027  0.00  0.00    +0.000 A 
ATOM     23  C   UNL     1      45.812   3.908   7.915  0.00  0.00    +0.000 A 
BRANCH  18  25
ATOM     24  N   UNL     1      48.627   2.544   6.469  0.00  0.00    +0.000 N 
ATOM     25  C   UNL     1      47.304   2.795   6.227  0.00  0.00    +0.000 C 
ATOM     26  O   UNL     1      46.895   3.015   5.095  0.00  0.00    +0.000 OA
ATOM     27  H   UNL     1      49.225   2.471   5.654  0.00  0.00    +0.000 HD
ATOM     28  H   UNL     1      48.946   2.094   7.316  0.00  0.00    +0.000 HD
ENDBRANCH  18  25
ENDBRANCH  16  22
ENDBRANCH   1  16
TORSDOF 5
ENDMDL
MODEL 9
REMARK VINA RESULT:    -7.857      3.832      6.839
REMARK INTER + INTRA:         -10.899
REMARK INTER:                 -10.605
REMARK INTRA:                  -0.293
REMARK UNBOUND:                -0.745
REMARK  Name = 
REMARK  5 active torsions:
REMARK  status: ('A' for Active; 'I' for Inactive)
REMARK    1  A    between atoms: C_2  and  C_4
REMARK    2  A    between atoms: C_8  and  N_9
REMARK    3  A    between atoms: N_9  and  C_10
REMARK    4  A    between atoms: C_10  and  C_11
REMARK    5  A    between atoms: C_15  and  C_16
REMARK                            x       y       z     vdW  Elec       q    Type
REMARK                         _______ _______ _______ _____ _____    ______ ____
ROOT
ATOM      1  C   UNL     1      44.076   3.281  11.798  0.00  0.00    +0.000 C 
ENDROOT
BRANCH   1   2
ATOM      2  C   UNL     1      44.241   4.770  11.762  0.00  0.00    +0.000 A 
ATOM      3  C   UNL     1      43.182   5.597  11.418  0.00  0.00    +0.000 A 
ATOM      4  N   UNL     1      43.268   6.942  11.372  0.00  0.00    +0.000 NA
ATOM      5  C   UNL     1      44.473   7.486  11.672  0.00  0.00    +0.000 A 
ATOM      6  C   UNL     1      45.619   6.769  12.029  0.00  0.00    +0.000 A 
ATOM      7  C   UNL     1      45.468   5.374  12.064  0.00  0.00    +0.000 A 
BRANCH   6   8
ATOM      8  C   UNL     1      46.901   7.430  12.355  0.00  0.00    +0.000 A 
ATOM      9  C   UNL     1      48.049   7.240  11.566  0.00  0.00    +0.000 A 
ATOM     10  C   UNL     1      49.252   7.874  11.880  0.00  0.00    +0.000 A 
ATOM     11  F   UNL     1      50.324   7.663  11.105  0.00  0.00    +0.000 F 
ATOM     12  C   UNL     1      49.356   8.718  12.972  0.00  0.00    +0.000 A 
ATOM     13  C   UNL     1      48.235   8.919  13.755  0.00  0.00    +0.000 A 
ATOM     14  F   UNL     1      48.307   9.738  14.815  0.00  0.00    +0.000 F 
ATOM     15  C   UNL     1      47.026   8.288  13.467  0.00  0.00    +0.000 A 
ENDBRANCH   6   8
ENDBRANCH   1   2
BRANCH   1  16
ATOM     16  N   UNL     1      43.807   2.776  10.462  0.00  0.00    +0.000 N 
ATOM     17  H   UNL     1      42.845   2.896  10.147  0.00  0.00    +0.000 HD
BRANCH  16  22
ATOM     18  C   UNL     1      46.349   2.053   7.841  0.00  0.00    +0.000 A 
ATOM     19  C   UNL     1      46.419   3.312   7.267  0.00  0.00    +0.000 A 
ATOM     20  N   UNL     1      45.692   4.366   7.701  0.00  0.00    +0.000 NA
ATOM     21  C   UNL     1      44.871   4.141   8.759  0.00  0.00    +0.000 A 
ATOM     22  C   UNL     1      44.752   2.928   9.447  0.00  0.00    +0.000 A 
ATOM     23  C   UNL     1      45.516   1.871   8.948  0.00  0.00    +0.000 A 
BRANCH  18  25
ATOM     24  N   UNL     1      46.806  -0.323   7.650  0.00  0.00    +0.000 N 
ATOM     25  C   UNL     1      47.146   0.948   7.273  0.00  0.00    +0.000 C 
ATOM     26  O   UNL     1      48.051   1.155   6.476  0.00  0.00    +0.000 OA
ATOM     27  H   UNL     1      47.288  -1.074   7.173  0.00  0.00    +0.000 HD
ATOM     28  H   UNL     1      45.912  -0.541   8.070  0.00  0.00    +0.000 HD
ENDBRANCH  18  25
ENDBRANCH  16  22
ENDBRANCH   1  16
TORSDOF 5
ENDMDL
