MODEL 1
REMARK VINA RESULT:    -8.118      0.000      0.000
REMARK INTER + INTRA:         -10.517
REMARK INTER:                 -10.017
REMARK INTRA:                  -0.501
REMARK UNBOUND:                -0.501
REMARK  Name = 
REMARK  5 active torsions:
REMARK  status: ('A' for Active; 'I' for Inactive)
REMARK    1  A    between atoms: C_1  and  C_2
REMARK    2  A    between atoms: C_2  and  C_3
REMARK    3  A    between atoms: C_2  and  C_14
REMARK    4  A    between atoms: C_3  and  N_4
REMARK    5  A    between atoms: C_8  and  C_9
REMARK                            x       y       z     vdW  Elec       q    Type
REMARK                         _______ _______ _______ _____ _____    ______ ____
ROOT
ATOM      1  N   UNL     1      43.777   4.559   9.699  0.00  0.00    +0.000 N 
ATOM      2  C   UNL     1      44.753   3.882   8.988  0.00  0.00    +0.000 A 
ATOM      3  N   UNL     1      44.865   2.551   9.112  0.00  0.00    +0.000 NA
ATOM      4  C   UNL     1      45.850   1.945   8.416  0.00  0.00    +0.000 A 
ATOM      5  C   UNL     1      46.709   2.616   7.581  0.00  0.00    +0.000 A 
ATOM      6  C   UNL     1      46.518   3.976   7.519  0.00  0.00    +0.000 A 
ATOM      7  N   UNL     1      45.555   4.628   8.212  0.00  0.00    +0.000 NA
ATOM      8  H   UNL     1      44.087   5.517   9.781  0.00  0.00    +0.000 HD
ENDROOT
BRANCH   5   9
ATOM      9  C   UNL     1      47.761   1.878   6.871  0.00  0.00    +0.000 C 
ATOM     10  N   UNL     1      48.660   2.587   6.127  0.00  0.00    +0.000 N 
ATOM     11  O   UNL     1      47.808   0.656   6.918  0.00  0.00    +0.000 OA
ATOM     12  H   UNL     1      48.535   3.555   5.863  0.00  0.00    +0.000 HD
ATOM     13  H   UNL     1      49.304   2.037   5.571  0.00  0.00    +0.000 HD
ENDBRANCH   5   9
BRANCH   1  14
ATOM     14  C   UNL     1      43.423   3.914  10.948  0.00  0.00    +0.000 C 
BRANCH  14  16
ATOM     15  C   UNL     1      42.260   5.885  12.114  0.00  0.00    +0.000 C 
ATOM     16  C   UNL     1      43.439   4.969  12.014  0.00  0.00    +0.000 C 
BRANCH  16  17
ATOM     17  C   UNL     1      44.733   5.364  12.584  0.00  0.00    +0.000 A 
ATOM     18  C   UNL     1      45.536   4.432  13.254  0.00  0.00    +0.000 A 
ATOM     19  C   UNL     1      46.797   4.795  13.729  0.00  0.00    +0.000 A 
ATOM     20  C   UNL     1      47.269   6.092  13.531  0.00  0.00    +0.000 A 
ATOM     21  C   UNL     1      46.467   7.025  12.876  0.00  0.00    +0.000 A 
ATOM     22 CL   UNL     1      47.054   8.620  12.608  0.00  0.00    +0.000 Cl
ATOM     23  C   UNL     1      45.204   6.671  12.415  0.00  0.00    +0.000 A 
ENDBRANCH  16  17
ENDBRANCH  14  16
ENDBRANCH   1  14
TORSDOF 4
ENDMDL
MODEL 2
REMARK VINA RESULT:    -8.043      1.431      2.134
REMARK INTER + INTRA:         -10.425
REMARK INTER:                  -9.993
REMARK INTRA:                  -0.432
REMARK UNBOUND:                -0.501
REMARK  Name = 
REMARK  5 active torsions:
REMARK  status: ('A' for Active; 'I' for Inactive)
REMARK    1  A    between atoms: C_1  and  C_2
REMARK    2  A    between atoms: C_2  and  C_3
REMARK    3  A    between atoms: C_2  and  C_14
REMARK    4  A    between atoms: C_3  and  N_4
REMARK    5  A    between atoms: C_8  and  C_9
REMARK                            x       y       z     vdW  Elec       q    Type
REMARK                         _______ _______ _______ _____ _____    ______ ____
ROOT
ATOM      1  N   UNL     1      44.229   5.151   9.813  0.00  0.00    +0.000 N 
ATOM      2  C   UNL     1      44.909   4.128   9.175  0.00  0.00    +0.000 A 
ATOM      3  N   UNL     1      44.760   2.864   9.598  0.00  0.00    +0.000 NA
ATOM      4  C   UNL     1      45.466   1.909   8.957  0.00  0.00    +0.000 A 
ATOM      5  C   UNL     1      46.295   2.166   7.893  0.00  0.00    +0.000 A 
ATOM      6  C   UNL     1      46.385   3.490   7.532  0.00  0.00    +0.000 A 
ATOM      7  N   UNL     1      45.708   4.483   8.156  0.00  0.00    +0.000 NA
ATOM      8  H   UNL     1      44.742   6.002   9.628  0.00  0.00    +0.000 HD
ENDROOT
BRANCH   5   9
ATOM      9  C   UNL     1      47.035   1.067   7.262  0.00  0.00    +0.000 C 
ATOM     10  N   UNL     1      46.761  -0.210   7.660  0.00  0.00    +0.000 N 
ATOM     11  O   UNL     1      47.899   1.294   6.425  0.00  0.00    +0.000 OA
ATOM     12  H   UNL     1      46.240  -0.441   8.494  0.00  0.00    +0.000 HD
ATOM     13  H   UNL     1      47.363  -0.930   7.278  0.00  0.00    +0.000 HD
ENDBRANCH   5   9
BRANCH   1  14
ATOM     14  C   UNL     1      43.961   4.881  11.211  0.00  0.00    +0.000 C 
BRANCH  14  16
ATOM     15  C   UNL     1      45.666   3.935  12.884  0.00  0.00    +0.000 C 
ATOM     16  C   UNL     1      45.258   5.031  11.950  0.00  0.00    +0.000 C 
BRANCH  16  17
ATOM     17  C   UNL     1      45.824   6.377  12.097  0.00  0.00    +0.000 A 
ATOM     18  C   UNL     1      45.055   7.425  12.621  0.00  0.00    +0.000 A 
ATOM     19  C   UNL     1      45.621   8.684  12.827  0.00  0.00    +0.000 A 
ATOM     20  C   UNL     1      46.963   8.904  12.517  0.00  0.00    +0.000 A 
ATOM     21  C   UNL     1      47.726   7.868  11.983  0.00  0.00    +0.000 A 
ATOM     22 CL   UNL     1      49.388   8.127  11.622  0.00  0.00    +0.000 Cl
ATOM     23  C   UNL     1      47.162   6.616  11.763  0.00  0.00    +0.000 A 
ENDBRANCH  16  17
ENDBRANCH  14  16
ENDBRANCH   1  14
TORSDOF 4
ENDMDL
MODEL 3
REMARK VINA RESULT:    -7.149      4.101      6.595
REMARK INTER + INTRA:          -9.321
REMARK INTER:                  -8.873
REMARK INTRA:                  -0.448
REMARK UNBOUND:                -0.501
REMARK  Name = 
REMARK  5 active torsions:
REMARK  status: ('A' for Active; 'I' for Inactive)
REMARK    1  A    between atoms: C_1  and  C_2
REMARK    2  A    between atoms: C_2  and  C_3
REMARK    3  A    between atoms: C_2  and  C_14
REMARK    4  A    between atoms: C_3  and  N_4
REMARK    5  A    between atoms: C_8  and  C_9
REMARK                            x       y       z     vdW  Elec       q    Type
REMARK                         _______ _______ _______ _____ _____    ______ ____
ROOT
ATOM      1  N   UNL     1      44.386   4.316  12.780  0.00  0.00    +0.000 N 
ATOM      2  C   UNL     1      45.504   4.984  13.250  0.00  0.00    +0.000 A 
ATOM      3  N   UNL     1      45.822   6.186  12.747  0.00  0.00    +0.000 NA
ATOM      4  C   UNL     1      46.937   6.781  13.223  0.00  0.00    +0.000 A 
ATOM      5  C   UNL     1      47.729   6.231  14.200  0.00  0.00    +0.000 A 
ATOM      6  C   UNL     1      47.324   4.998  14.653  0.00  0.00    +0.000 A 
ATOM      7  N   UNL     1      46.224   4.357  14.194  0.00  0.00    +0.000 NA
ATOM      8  H   UNL     1      44.530   3.334  12.971  0.00  0.00    +0.000 HD
ENDROOT
BRANCH   5   9
ATOM      9  C   UNL     1      48.932   6.943  14.650  0.00  0.00    +0.000 C 
ATOM     10  N   UNL     1      49.139   8.214  14.196  0.00  0.00    +0.000 N 
ATOM     11  O   UNL     1      49.743   6.397  15.387  0.00  0.00    +0.000 OA
ATOM     12  H   UNL     1      48.640   8.624  13.419  0.00  0.00    +0.000 HD
ATOM     13  H   UNL     1      50.028   8.632  14.446  0.00  0.00    +0.000 HD
ENDBRANCH   5   9
BRANCH   1  14
ATOM     14  C   UNL     1      44.059   4.638  11.405  0.00  0.00    +0.000 C 
BRANCH  14  16
ATOM     15  C   UNL     1      43.393   2.157  11.360  0.00  0.00    +0.000 C 
ATOM     16  C   UNL     1      43.973   3.342  10.654  0.00  0.00    +0.000 C 
BRANCH  16  17
ATOM     17  C   UNL     1      44.843   3.156   9.487  0.00  0.00    +0.000 A 
ATOM     18  C   UNL     1      45.297   4.256   8.747  0.00  0.00    +0.000 A 
ATOM     19  C   UNL     1      46.183   4.078   7.683  0.00  0.00    +0.000 A 
ATOM     20  C   UNL     1      46.628   2.797   7.355  0.00  0.00    +0.000 A 
ATOM     21  C   UNL     1      46.169   1.701   8.080  0.00  0.00    +0.000 A 
ATOM     22 CL   UNL     1      46.733   0.121   7.696  0.00  0.00    +0.000 Cl
ATOM     23  C   UNL     1      45.274   1.872   9.132  0.00  0.00    +0.000 A 
ENDBRANCH  16  17
ENDBRANCH  14  16
ENDBRANCH   1  14
TORSDOF 4
ENDMDL
MODEL 4
REMARK VINA RESULT:    -6.681      4.990      6.962
REMARK INTER + INTRA:          -8.744
REMARK INTER:                  -8.412
REMARK INTRA:                  -0.331
REMARK UNBOUND:                -0.501
REMARK  Name = 
REMARK  5 active torsions:
REMARK  status: ('A' for Active; 'I' for Inactive)
REMARK    1  A    between atoms: C_1  and  C_2
REMARK    2  A    between atoms: C_2  and  C_3
REMARK    3  A    between atoms: C_2  and  C_14
REMARK    4  A    between atoms: C_3  and  N_4
REMARK    5  A    between atoms: C_8  and  C_9
REMARK                            x       y       z     vdW  Elec       q    Type
REMARK                         _______ _______ _______ _____ _____    ______ ____
ROOT
ATOM      1  N   UNL     1      47.333   3.407  14.512  0.00  0.00    +0.000 N 
ATOM      2  C   UNL     1      46.338   3.890  13.679  0.00  0.00    +0.000 A 
ATOM      3  N   UNL     1      46.050   5.199  13.674  0.00  0.00    +0.000 NA
ATOM      4  C   UNL     1      45.054   5.611  12.861  0.00  0.00    +0.000 A 
ATOM      5  C   UNL     1      44.355   4.768  12.034  0.00  0.00    +0.000 A 
ATOM      6  C   UNL     1      44.720   3.444  12.108  0.00  0.00    +0.000 A 
ATOM      7  N   UNL     1      45.701   2.984  12.920  0.00  0.00    +0.000 NA
ATOM      8  H   UNL     1      47.141   2.426  14.659  0.00  0.00    +0.000 HD
ENDROOT
BRANCH   5   9
ATOM      9  C   UNL     1      43.277   5.300  11.191  0.00  0.00    +0.000 C 
ATOM     10  N   UNL     1      42.226   5.922  11.801  0.00  0.00    +0.000 N 
ATOM     11  O   UNL     1      43.307   5.160   9.975  0.00  0.00    +0.000 OA
ATOM     12  H   UNL     1      42.032   5.862  12.791  0.00  0.00    +0.000 HD
ATOM     13  H   UNL     1      41.456   6.183  11.195  0.00  0.00    +0.000 HD
ENDBRANCH   5   9
BRANCH   1  14
ATOM     14  C   UNL     1      47.504   4.192  15.718  0.00  0.00    +0.000 C 
BRANCH  14  16
ATOM     15  C   UNL     1      47.047   2.694  17.754  0.00  0.00    +0.000 C 
ATOM     16  C   UNL     1      48.026   3.269  16.779  0.00  0.00    +0.000 C 
BRANCH  16  17
ATOM     17  C   UNL     1      49.454   3.328  17.112  0.00  0.00    +0.000 A 
ATOM     18  C   UNL     1      50.064   4.546  17.439  0.00  0.00    +0.000 A 
ATOM     19  C   UNL     1      51.405   4.585  17.826  0.00  0.00    +0.000 A 
ATOM     20  C   UNL     1      52.144   3.405  17.897  0.00  0.00    +0.000 A 
ATOM     21  C   UNL     1      51.543   2.194  17.560  0.00  0.00    +0.000 A 
ATOM     22 CL   UNL     1      52.443   0.732  17.669  0.00  0.00    +0.000 Cl
ATOM     23  C   UNL     1      50.212   2.152  17.160  0.00  0.00    +0.000 A 
ENDBRANCH  16  17
ENDBRANCH  14  16
ENDBRANCH   1  14
TORSDOF 4
ENDMDL
MODEL 5
REMARK VINA RESULT:    -6.566      5.328      7.602
REMARK INTER + INTRA:          -8.603
REMARK INTER:                  -8.224
REMARK INTRA:                  -0.378
REMARK UNBOUND:                -0.501
REMARK  Name = 
REMARK  5 active torsions:
REMARK  status: ('A' for Active; 'I' for Inactive)
REMARK    1  A    between atoms: C_1  and  C_2
REMARK    2  A    between atoms: C_2  and  C_3
REMARK    3  A    between atoms: C_2  and  C_14
REMARK    4  A    between atoms: C_3  and  N_4
REMARK    5  A    between atoms: C_8  and  C_9
REMARK                            x       y       z     vdW  Elec       q    Type
REMARK                         _______ _______ _______ _____ _____    ______ ____
ROOT
ATOM      1  N   UNL     1      46.549   3.713  13.675  0.00  0.00    +0.000 N 
ATOM      2  C   UNL     1      47.155   3.711  14.919  0.00  0.00    +0.000 A 
ATOM      3  N   UNL     1      46.956   4.737  15.759  0.00  0.00    +0.000 NA
ATOM      4  C   UNL     1      47.591   4.696  16.949  0.00  0.00    +0.000 A 
ATOM      5  C   UNL     1      48.395   3.655  17.342  0.00  0.00    +0.000 A 
ATOM      6  C   UNL     1      48.540   2.649  16.416  0.00  0.00    +0.000 A 
ATOM      7  N   UNL     1      47.936   2.656  15.204  0.00  0.00    +0.000 NA
ATOM      8  H   UNL     1      47.098   3.105  13.081  0.00  0.00    +0.000 HD
ENDROOT
BRANCH   5   9
ATOM      9  C   UNL     1      49.058   3.698  18.651  0.00  0.00    +0.000 C 
ATOM     10  N   UNL     1      48.354   3.283  19.746  0.00  0.00    +0.000 N 
ATOM     11  O   UNL     1      50.199   4.127  18.761  0.00  0.00    +0.000 OA
ATOM     12  H   UNL     1      47.354   3.143  19.754  0.00  0.00    +0.000 HD
ATOM     13  H   UNL     1      48.808   3.425  20.641  0.00  0.00    +0.000 HD
ENDBRANCH   5   9
BRANCH   1  14
ATOM     14  C   UNL     1      46.316   5.043  13.150  0.00  0.00    +0.000 C 
BRANCH  14  16
ATOM     15  C   UNL     1      43.755   4.878  13.030  0.00  0.00    +0.000 C 
ATOM     16  C   UNL     1      45.068   4.982  12.319  0.00  0.00    +0.000 C 
BRANCH  16  17
ATOM     17  C   UNL     1      45.186   4.566  10.917  0.00  0.00    +0.000 A 
ATOM     18  C   UNL     1      45.689   5.443   9.948  0.00  0.00    +0.000 A 
ATOM     19  C   UNL     1      45.868   5.018   8.630  0.00  0.00    +0.000 A 
ATOM     20  C   UNL     1      45.550   3.708   8.273  0.00  0.00    +0.000 A 
ATOM     21  C   UNL     1      45.037   2.837   9.231  0.00  0.00    +0.000 A 
ATOM     22 CL   UNL     1      44.666   1.212   8.802  0.00  0.00    +0.000 Cl
ATOM     23  C   UNL     1      44.844   3.261  10.542  0.00  0.00    +0.000 A 
ENDBRANCH  16  17
ENDBRANCH  14  16
ENDBRANCH   1  14
TORSDOF 4
ENDMDL
MODEL 6
REMARK VINA RESULT:    -6.549      4.243      6.726
REMARK INTER + INTRA:          -8.582
REMARK INTER:                  -8.135
REMARK INTRA:                  -0.446
REMARK UNBOUND:                -0.501
REMARK  Name = 
REMARK  5 active torsions:
REMARK  status: ('A' for Active; 'I' for Inactive)
REMARK    1  A    between atoms: C_1  and  C_2
REMARK    2  A    between atoms: C_2  and  C_3
REMARK    3  A    between atoms: C_2  and  C_14
REMARK    4  A    between atoms: C_3  and  N_4
REMARK    5  A    between atoms: C_8  and  C_9
REMARK                            x       y       z     vdW  Elec       q    Type
REMARK                         _______ _______ _______ _____ _____    ______ ____
ROOT
ATOM      1  N   UNL     1      44.684   5.754  11.866  0.00  0.00    +0.000 N 
ATOM      2  C   UNL     1      45.615   6.763  12.042  0.00  0.00    +0.000 A 
ATOM      3  N   UNL     1      46.866   6.604  11.585  0.00  0.00    +0.000 NA
ATOM      4  C   UNL     1      47.739   7.609  11.806  0.00  0.00    +0.000 A 
ATOM      5  C   UNL     1      47.402   8.777  12.444  0.00  0.00    +0.000 A 
ATOM      6  C   UNL     1      46.099   8.849  12.877  0.00  0.00    +0.000 A 
ATOM      7  N   UNL     1      45.194   7.860  12.692  0.00  0.00    +0.000 NA
ATOM      8  H   UNL     1      43.976   5.882  12.575  0.00  0.00    +0.000 HD
ENDROOT
BRANCH   5   9
ATOM      9  C   UNL     1      48.420   9.814  12.653  0.00  0.00    +0.000 C 
ATOM     10  N   UNL     1      48.344  10.577  13.782  0.00  0.00    +0.000 N 
ATOM     11  O   UNL     1      49.294  10.010  11.818  0.00  0.00    +0.000 OA
ATOM     12  H   UNL     1      47.530  10.621  14.380  0.00  0.00    +0.000 HD
ATOM     13  H   UNL     1      49.001  11.347  13.840  0.00  0.00    +0.000 HD
ENDBRANCH   5   9
BRANCH   1  14
ATOM     14  C   UNL     1      45.273   4.431  11.811  0.00  0.00    +0.000 C 
BRANCH  14  16
ATOM     15  C   UNL     1      43.361   2.828  11.202  0.00  0.00    +0.000 C 
ATOM     16  C   UNL     1      44.529   3.655  10.765  0.00  0.00    +0.000 C 
BRANCH  16  17
ATOM     17  C   UNL     1      45.210   3.363   9.498  0.00  0.00    +0.000 A 
ATOM     18  C   UNL     1      45.599   4.398   8.637  0.00  0.00    +0.000 A 
ATOM     19  C   UNL     1      46.313   4.118   7.470  0.00  0.00    +0.000 A 
ATOM     20  C   UNL     1      46.649   2.801   7.158  0.00  0.00    +0.000 A 
ATOM     21  C   UNL     1      46.252   1.769   8.006  0.00  0.00    +0.000 A 
ATOM     22 CL   UNL     1      46.684   0.145   7.638  0.00  0.00    +0.000 Cl
ATOM     23  C   UNL     1      45.528   2.042   9.162  0.00  0.00    +0.000 A 
ENDBRANCH  16  17
ENDBRANCH  14  16
ENDBRANCH   1  14
TORSDOF 4
ENDMDL
MODEL 7
REMARK VINA RESULT:    -6.382      4.830      6.407
REMARK INTER + INTRA:          -8.375
REMARK INTER:                  -8.046
REMARK INTRA:                  -0.329
REMARK UNBOUND:                -0.501
REMARK  Name = 
REMARK  5 active torsions:
REMARK  status: ('A' for Active; 'I' for Inactive)
REMARK    1  A    between atoms: C_1  and  C_2
REMARK    2  A    between atoms: C_2  and  C_3
REMARK    3  A    between atoms: C_2  and  C_14
REMARK    4  A    between atoms: C_3  and  N_4
REMARK    5  A    between atoms: C_8  and  C_9
REMARK                            x       y       z     vdW  Elec       q    Type
REMARK                         _______ _______ _______ _____ _____    ______ ____
ROOT
ATOM      1  N   UNL     1      47.099   4.933  15.176  0.00  0.00    +0.000 N 
ATOM      2  C   UNL     1      46.465   4.911  13.946  0.00  0.00    +0.000 A 
ATOM      3  N   UNL     1      45.788   3.819  13.564  0.00  0.00    +0.000 NA
ATOM      4  C   UNL     1      45.211   3.843  12.344  0.00  0.00    +0.000 A 
ATOM      5  C   UNL     1      45.263   4.928  11.504  0.00  0.00    +0.000 A 
ATOM      6  C   UNL     1      45.979   6.000  11.981  0.00  0.00    +0.000 A 
ATOM      7  N   UNL     1      46.588   6.014  13.190  0.00  0.00    +0.000 NA
ATOM      8  H   UNL     1      47.832   5.625  15.116  0.00  0.00    +0.000 HD
ENDROOT
BRANCH   5   9
ATOM      9  C   UNL     1      44.616   4.863  10.188  0.00  0.00    +0.000 C 
ATOM     10  N   UNL     1      45.401   4.957   9.075  0.00  0.00    +0.000 N 
ATOM     11  O   UNL     1      43.400   4.760  10.093  0.00  0.00    +0.000 OA
ATOM     12  H   UNL     1      46.362   5.272   9.087  0.00  0.00    +0.000 HD
ATOM     13  H   UNL     1      44.909   5.012   8.190  0.00  0.00    +0.000 HD
ENDBRANCH   5   9
BRANCH   1  14
ATOM     14  C   UNL     1      47.521   3.622  15.629  0.00  0.00    +0.000 C 
BRANCH  14  16
ATOM     15  C   UNL     1      47.323   4.747  17.930  0.00  0.00    +0.000 C 
ATOM     16  C   UNL     1      48.027   3.778  17.033  0.00  0.00    +0.000 C 
BRANCH  16  17
ATOM     17  C   UNL     1      49.403   3.362  17.327  0.00  0.00    +0.000 A 
ATOM     18  C   UNL     1      49.830   2.054  17.063  0.00  0.00    +0.000 A 
ATOM     19  C   UNL     1      51.160   1.686  17.275  0.00  0.00    +0.000 A 
ATOM     20  C   UNL     1      52.076   2.626  17.748  0.00  0.00    +0.000 A 
ATOM     21  C   UNL     1      51.651   3.923  18.024  0.00  0.00    +0.000 A 
ATOM     22 CL   UNL     1      52.782   5.093  18.584  0.00  0.00    +0.000 Cl
ATOM     23  C   UNL     1      50.324   4.290  17.827  0.00  0.00    +0.000 A 
ENDBRANCH  16  17
ENDBRANCH  14  16
ENDBRANCH   1  14
TORSDOF 4
ENDMDL
MODEL 8
REMARK VINA RESULT:    -6.369      4.924      7.146
REMARK INTER + INTRA:          -8.358
REMARK INTER:                  -8.006
REMARK INTRA:                  -0.352
REMARK UNBOUND:                -0.501
REMARK  Name = 
REMARK  5 active torsions:
REMARK  status: ('A' for Active; 'I' for Inactive)
REMARK    1  A    between atoms: C_1  and  C_2
REMARK    2  A    between atoms: C_2  and  C_3
REMARK    3  A    between atoms: C_2  and  C_14
REMARK    4  A    between atoms: C_3  and  N_4
REMARK    5  A    between atoms: C_8  and  C_9
REMARK                            x       y       z     vdW  Elec       q    Type
REMARK                         _______ _______ _______ _____ _____    ______ ____
ROOT
ATOM      1  N   UNL     1      46.798   6.001  13.632  0.00  0.00    +0.000 N 
ATOM      2  C   UNL     1      47.359   5.290  14.678  0.00  0.00    +0.000 A 
ATOM      3  N   UNL     1      47.017   4.007  14.872  0.00  0.00    +0.000 NA
ATOM      4  C   UNL     1      47.575   3.370  15.923  0.00  0.00    +0.000 A 
ATOM      5  C   UNL     1      48.482   3.957  16.770  0.00  0.00    +0.000 A 
ATOM      6  C   UNL     1      48.770   5.273  16.493  0.00  0.00    +0.000 A 
ATOM      7  N   UNL     1      48.222   5.957  15.461  0.00  0.00    +0.000 NA
ATOM      8  H   UNL     1      46.863   6.980  13.875  0.00  0.00    +0.000 HD
ENDROOT
BRANCH   5   9
ATOM      9  C   UNL     1      49.031   3.191  17.896  0.00  0.00    +0.000 C 
ATOM     10  N   UNL     1      48.307   3.132  19.051  0.00  0.00    +0.000 N 
ATOM     11  O   UNL     1      50.125   2.650  17.810  0.00  0.00    +0.000 OA
ATOM     12  H   UNL     1      47.526   3.738  19.260  0.00  0.00    +0.000 HD
ATOM     13  H   UNL     1      48.765   2.682  19.836  0.00  0.00    +0.000 HD
ENDBRANCH   5   9
BRANCH   1  14
ATOM     14  C   UNL     1      45.472   5.541  13.269  0.00  0.00    +0.000 C 
BRANCH  14  16
ATOM     15  C   UNL     1      44.842   7.196  11.409  0.00  0.00    +0.000 C 
ATOM     16  C   UNL     1      45.287   5.824  11.808  0.00  0.00    +0.000 C 
BRANCH  16  17
ATOM     17  C   UNL     1      45.091   4.689  10.899  0.00  0.00    +0.000 A 
ATOM     18  C   UNL     1      44.325   3.582  11.287  0.00  0.00    +0.000 A 
ATOM     19  C   UNL     1      44.082   2.539  10.391  0.00  0.00    +0.000 A 
ATOM     20  C   UNL     1      44.597   2.599   9.097  0.00  0.00    +0.000 A 
ATOM     21  C   UNL     1      45.371   3.692   8.712  0.00  0.00    +0.000 A 
ATOM     22 CL   UNL     1      45.989   3.782   7.109  0.00  0.00    +0.000 Cl
ATOM     23  C   UNL     1      45.628   4.726   9.606  0.00  0.00    +0.000 A 
ENDBRANCH  16  17
ENDBRANCH  14  16
ENDBRANCH   1  14
TORSDOF 4
ENDMDL
MODEL 9
REMARK VINA RESULT:    -6.266      4.762      6.447
REMARK INTER + INTRA:          -8.231
REMARK INTER:                  -7.878
REMARK INTRA:                  -0.354
REMARK UNBOUND:                -0.501
REMARK  Name = 
REMARK  5 active torsions:
REMARK  status: ('A' for Active; 'I' for Inactive)
REMARK    1  A    between atoms: C_1  and  C_2
REMARK    2  A    between atoms: C_2  and  C_3
REMARK    3  A    between atoms: C_2  and  C_14
REMARK    4  A    between atoms: C_3  and  N_4
REMARK    5  A    between atoms: C_8  and  C_9
REMARK                            x       y       z     vdW  Elec       q    Type
REMARK                         _______ _______ _______ _____ _____    ______ ____
ROOT
ATOM      1  N   UNL     1      47.227   3.597  14.674  0.00  0.00    +0.000 N 
ATOM      2  C   UNL     1      46.349   3.966  13.670  0.00  0.00    +0.000 A 
ATOM      3  N   UNL     1      46.016   5.256  13.517  0.00  0.00    +0.000 NA
ATOM      4  C   UNL     1      45.137   5.556  12.538  0.00  0.00    +0.000 A 
ATOM      5  C   UNL     1      44.598   4.620  11.691  0.00  0.00    +0.000 A 
ATOM      6  C   UNL     1      44.997   3.325  11.925  0.00  0.00    +0.000 A 
ATOM      7  N   UNL     1      45.864   2.975  12.904  0.00  0.00    +0.000 NA
ATOM      8  H   UNL     1      47.052   2.621  14.872  0.00  0.00    +0.000 HD
ENDROOT
BRANCH   5   9
ATOM      9  C   UNL     1      43.638   5.034  10.661  0.00  0.00    +0.000 C 
ATOM     10  N   UNL     1      43.847   4.619   9.377  0.00  0.00    +0.000 N 
ATOM     11  O   UNL     1      42.694   5.762  10.942  0.00  0.00    +0.000 OA
ATOM     12  H   UNL     1      44.715   4.222   9.047  0.00  0.00    +0.000 HD
ATOM     13  H   UNL     1      43.223   5.009   8.680  0.00  0.00    +0.000 HD
ENDBRANCH   5   9
BRANCH   1  14
ATOM     14  C   UNL     1      47.190   4.477  15.825  0.00  0.00    +0.000 C 
BRANCH  14  16
ATOM     15  C   UNL     1      48.607   2.506  16.663  0.00  0.00    +0.000 C 
ATOM     16  C   UNL     1      48.127   3.911  16.850  0.00  0.00    +0.000 C 
BRANCH  16  17
ATOM     17  C   UNL     1      48.166   4.536  18.177  0.00  0.00    +0.000 A 
ATOM     18  C   UNL     1      48.669   3.839  19.284  0.00  0.00    +0.000 A 
ATOM     19  C   UNL     1      48.773   4.464  20.528  0.00  0.00    +0.000 A 
ATOM     20  C   UNL     1      48.381   5.794  20.674  0.00  0.00    +0.000 A 
ATOM     21  C   UNL     1      47.868   6.486  19.578  0.00  0.00    +0.000 A 
ATOM     22 CL   UNL     1      47.406   8.134  19.746  0.00  0.00    +0.000 Cl
ATOM     23  C   UNL     1      47.750   5.862  18.340  0.00  0.00    +0.000 A 
ENDBRANCH  16  17
ENDBRANCH  14  16
ENDBRANCH   1  14
TORSDOF 4
ENDMDL
