MODEL 1
REMARK VINA RESULT:    -8.572      0.000      0.000
REMARK INTER + INTRA:         -12.535
REMARK INTER:                 -11.579
REMARK INTRA:                  -0.956
REMARK UNBOUND:                -0.956
REMARK  Name = 
REMARK  6 active torsions:
REMARK  status: ('A' for Active; 'I' for Inactive)
REMARK    1  A    between atoms: C_2  and  C_3
REMARK    2  A    between atoms: C_7  and  C_8
REMARK    3  A    between atoms: C_12  and  C_13
REMARK    4  A    between atoms: C_13  and  N_14
REMARK    5  A    between atoms: N_14  and  C_15
REMARK    6  A    between atoms: C_18  and  C_19
REMARK                            x       y       z     vdW  Elec       q    Type
REMARK                         _______ _______ _______ _____ _____    ______ ____
ROOT
ATOM      1  C   UNL     1      43.926   4.963  11.363  0.00  0.00    +0.000 C 
ATOM      2  C   UNL     1      42.650   5.522  11.992  0.00  0.00    +0.000 C 
ATOM      3  C   UNL     1      42.833   4.049  11.873  0.00  0.00    +0.000 C 
ENDROOT
BRANCH   1   8
ATOM      4  C   UNL     1      47.175   6.709  12.473  0.00  0.00    +0.000 A 
ATOM      5  C   UNL     1      47.559   5.888  13.544  0.00  0.00    +0.000 A 
ATOM      6  C   UNL     1      46.789   4.787  13.927  0.00  0.00    +0.000 A 
ATOM      7  C   UNL     1      45.615   4.478  13.241  0.00  0.00    +0.000 A 
ATOM      8  C   UNL     1      45.188   5.257  12.161  0.00  0.00    +0.000 A 
ATOM      9  C   UNL     1      45.995   6.357  11.798  0.00  0.00    +0.000 A 
BRANCH   4  14
ATOM     10  C   UNL     1      50.046   8.940  11.329  0.00  0.00    +0.000 A 
ATOM     11  C   UNL     1      49.447  10.198  11.343  0.00  0.00    +0.000 A 
ATOM     12  C   UNL     1      48.117  10.327  11.725  0.00  0.00    +0.000 A 
ATOM     13  C   UNL     1      47.380   9.194  12.077  0.00  0.00    +0.000 A 
ATOM     14  C   UNL     1      47.952   7.905  12.072  0.00  0.00    +0.000 A 
ATOM     15  C   UNL     1      49.302   7.806  11.694  0.00  0.00    +0.000 A 
BRANCH  10  17
ATOM     16  N   UNL     1      52.531   8.678  10.640  0.00  0.00    +0.000 NA
ATOM     17  C   UNL     1      51.415   8.797  10.945  0.00  0.00    +0.000 C 
ENDBRANCH  10  17
ENDBRANCH   4  14
ENDBRANCH   1   8
BRANCH   1  18
ATOM     18  N   UNL     1      44.114   5.099   9.901  0.00  0.00    +0.000 N 
ATOM     19  H   UNL     1      44.216   6.062   9.584  0.00  0.00    +0.000 HD
BRANCH  18  20
ATOM     20  C   UNL     1      44.965   4.243   9.171  0.00  0.00    +0.000 A 
ATOM     21  C   UNL     1      44.878   2.860   9.131  0.00  0.00    +0.000 A 
ATOM     22  N   UNL     1      45.664   2.052   8.382  0.00  0.00    +0.000 NA
ATOM     23  C   UNL     1      46.565   2.688   7.598  0.00  0.00    +0.000 A 
ATOM     24  N   UNL     1      46.720   4.020   7.505  0.00  0.00    +0.000 NA
ATOM     25  C   UNL     1      45.903   4.756   8.289  0.00  0.00    +0.000 A 
BRANCH  23  26
ATOM     26  C   UNL     1      47.480   1.810   6.776  0.00  0.00    +0.000 C 
ATOM     27  N   UNL     1      48.615   2.419   6.292  0.00  0.00    +0.000 N 
ATOM     28  O   UNL     1      47.257   0.630   6.528  0.00  0.00    +0.000 OA
ATOM     29  H   UNL     1      48.794   3.395   6.498  0.00  0.00    +0.000 HD
ATOM     30  H   UNL     1      49.256   1.882   5.728  0.00  0.00    +0.000 HD
ENDBRANCH  23  26
ENDBRANCH  18  20
ENDBRANCH   1  18
TORSDOF 6
ENDMDL
MODEL 2
REMARK VINA RESULT:    -8.554      2.386      4.042
REMARK INTER + INTRA:         -12.510
REMARK INTER:                 -11.642
REMARK INTRA:                  -0.868
REMARK UNBOUND:                -0.956
REMARK  Name = 
REMARK  6 active torsions:
REMARK  status: ('A' for Active; 'I' for Inactive)
REMARK    1  A    between atoms: C_2  and  C_3
REMARK    2  A    between atoms: C_7  and  C_8
REMARK    3  A    between atoms: C_12  and  C_13
REMARK    4  A    between atoms: C_13  and  N_14
REMARK    5  A    between atoms: N_14  and  C_15
REMARK    6  A    between atoms: C_18  and  C_19
REMARK                            x       y       z     vdW  Elec       q    Type
REMARK                         _______ _______ _______ _____ _____    ______ ____
ROOT
ATOM      1  C   UNL     1      43.922   4.928  11.513  0.00  0.00    +0.000 C 
ATOM      2  C   UNL     1      42.683   5.460  12.234  0.00  0.00    +0.000 C 
ATOM      3  C   UNL     1      43.062   4.026  12.372  0.00  0.00    +0.000 C 
ENDROOT
BRANCH   1   8
ATOM      4  C   UNL     1      46.991   5.552  13.757  0.00  0.00    +0.000 A 
ATOM      5  C   UNL     1      47.631   6.577  13.044  0.00  0.00    +0.000 A 
ATOM      6  C   UNL     1      47.101   7.069  11.848  0.00  0.00    +0.000 A 
ATOM      7  C   UNL     1      45.914   6.547  11.338  0.00  0.00    +0.000 A 
ATOM      8  C   UNL     1      45.230   5.529  12.010  0.00  0.00    +0.000 A 
ATOM      9  C   UNL     1      45.790   5.061  13.218  0.00  0.00    +0.000 A 
BRANCH   4  14
ATOM     10  C   UNL     1      48.883   5.223  17.050  0.00  0.00    +0.000 A 
ATOM     11  C   UNL     1      48.655   3.888  17.374  0.00  0.00    +0.000 A 
ATOM     12  C   UNL     1      47.893   3.091  16.528  0.00  0.00    +0.000 A 
ATOM     13  C   UNL     1      47.344   3.636  15.363  0.00  0.00    +0.000 A 
ATOM     14  C   UNL     1      47.551   4.984  15.006  0.00  0.00    +0.000 A 
ATOM     15  C   UNL     1      48.336   5.763  15.873  0.00  0.00    +0.000 A 
BRANCH  10  17
ATOM     16  N   UNL     1      50.308   6.729  18.606  0.00  0.00    +0.000 NA
ATOM     17  C   UNL     1      49.670   6.050  17.910  0.00  0.00    +0.000 C 
ENDBRANCH  10  17
ENDBRANCH   4  14
ENDBRANCH   1   8
BRANCH   1  18
ATOM     18  N   UNL     1      43.874   4.768  10.043  0.00  0.00    +0.000 N 
ATOM     19  H   UNL     1      43.763   5.645   9.534  0.00  0.00    +0.000 HD
BRANCH  18  20
ATOM     20  C   UNL     1      44.744   3.900   9.353  0.00  0.00    +0.000 A 
ATOM     21  C   UNL     1      44.740   2.517   9.438  0.00  0.00    +0.000 A 
ATOM     22  N   UNL     1      45.542   1.690   8.728  0.00  0.00    +0.000 NA
ATOM     23  C   UNL     1      46.371   2.303   7.851  0.00  0.00    +0.000 A 
ATOM     24  N   UNL     1      46.442   3.628   7.635  0.00  0.00    +0.000 NA
ATOM     25  C   UNL     1      45.614   4.384   8.388  0.00  0.00    +0.000 A 
BRANCH  23  26
ATOM     26  C   UNL     1      47.305   1.407   7.069  0.00  0.00    +0.000 C 
ATOM     27  N   UNL     1      48.424   2.018   6.553  0.00  0.00    +0.000 N 
ATOM     28  O   UNL     1      47.108   0.212   6.878  0.00  0.00    +0.000 OA
ATOM     29  H   UNL     1      48.582   3.006   6.712  0.00  0.00    +0.000 HD
ATOM     30  H   UNL     1      49.076   1.469   6.013  0.00  0.00    +0.000 HD
ENDBRANCH  23  26
ENDBRANCH  18  20
ENDBRANCH   1  18
TORSDOF 6
ENDMDL
MODEL 3
REMARK VINA RESULT:    -7.923      1.283      1.946
REMARK INTER + INTRA:         -11.658
REMARK INTER:                 -10.744
REMARK INTRA:                  -0.913
REMARK UNBOUND:                -0.956
REMARK  Name = 
REMARK  6 active torsions:
REMARK  status: ('A' for Active; 'I' for Inactive)
REMARK    1  A    between atoms: C_2  and  C_3
REMARK    2  A    between atoms: C_7  and  C_8
REMARK    3  A    between atoms: C_12  and  C_13
REMARK    4  A    between atoms: C_13  and  N_14
REMARK    5  A    between atoms: N_14  and  C_15
REMARK    6  A    between atoms: C_18  and  C_19
REMARK                            x       y       z     vdW  Elec       q    Type
REMARK                         _______ _______ _______ _____ _____    ______ ____
ROOT
ATOM      1  C   UNL     1      44.088   5.178  11.520  0.00  0.00    +0.000 C 
ATOM      2  C   UNL     1      43.062   4.872  12.611  0.00  0.00    +0.000 C 
ATOM      3  C   UNL     1      44.350   4.125  12.574  0.00  0.00    +0.000 C 
ENDROOT
BRANCH   1   8
ATOM      4  C   UNL     1      46.666   7.994  12.040  0.00  0.00    +0.000 A 
ATOM      5  C   UNL     1      45.869   9.123  11.804  0.00  0.00    +0.000 A 
ATOM      6  C   UNL     1      44.517   9.001  11.470  0.00  0.00    +0.000 A 
ATOM      7  C   UNL     1      43.930   7.741  11.368  0.00  0.00    +0.000 A 
ATOM      8  C   UNL     1      44.674   6.581  11.600  0.00  0.00    +0.000 A 
ATOM      9  C   UNL     1      46.035   6.743  11.942  0.00  0.00    +0.000 A 
BRANCH   4  14
ATOM     10  C   UNL     1      50.460   7.843  11.706  0.00  0.00    +0.000 A 
ATOM     11  C   UNL     1      50.870   8.245  12.976  0.00  0.00    +0.000 A 
ATOM     12  C   UNL     1      49.922   8.562  13.941  0.00  0.00    +0.000 A 
ATOM     13  C   UNL     1      48.561   8.493  13.631  0.00  0.00    +0.000 A 
ATOM     14  C   UNL     1      48.110   8.093  12.357  0.00  0.00    +0.000 A 
ATOM     15  C   UNL     1      49.090   7.765  11.404  0.00  0.00    +0.000 A 
BRANCH  10  17
ATOM     16  N   UNL     1      52.214   7.228   9.900  0.00  0.00    +0.000 NA
ATOM     17  C   UNL     1      51.427   7.508  10.708  0.00  0.00    +0.000 C 
ENDBRANCH  10  17
ENDBRANCH   4  14
ENDBRANCH   1   8
BRANCH   1  18
ATOM     18  N   UNL     1      43.801   4.743  10.135  0.00  0.00    +0.000 N 
ATOM     19  H   UNL     1      43.374   5.463   9.553  0.00  0.00    +0.000 HD
BRANCH  18  20
ATOM     20  C   UNL     1      44.717   3.977   9.385  0.00  0.00    +0.000 A 
ATOM     21  C   UNL     1      44.778   2.593   9.353  0.00  0.00    +0.000 A 
ATOM     22  N   UNL     1      45.623   1.867   8.585  0.00  0.00    +0.000 NA
ATOM     23  C   UNL     1      46.429   2.590   7.772  0.00  0.00    +0.000 A 
ATOM     24  N   UNL     1      46.438   3.930   7.669  0.00  0.00    +0.000 NA
ATOM     25  C   UNL     1      45.570   4.581   8.474  0.00  0.00    +0.000 A 
BRANCH  23  26
ATOM     26  C   UNL     1      47.409   1.808   6.928  0.00  0.00    +0.000 C 
ATOM     27  N   UNL     1      48.507   2.510   6.486  0.00  0.00    +0.000 N 
ATOM     28  O   UNL     1      47.266   0.628   6.628  0.00  0.00    +0.000 OA
ATOM     29  H   UNL     1      48.620   3.485   6.735  0.00  0.00    +0.000 HD
ATOM     30  H   UNL     1      49.189   2.039   5.910  0.00  0.00    +0.000 HD
ENDBRANCH  23  26
ENDBRANCH  18  20
ENDBRANCH   1  18
TORSDOF 6
ENDMDL
MODEL 4
REMARK VINA RESULT:    -7.891      2.124      2.876
REMARK INTER + INTRA:         -11.615
REMARK INTER:                 -10.760
REMARK INTRA:                  -0.856
REMARK UNBOUND:                -0.956
REMARK  Name = 
REMARK  6 active torsions:
REMARK  status: ('A' for Active; 'I' for Inactive)
REMARK    1  A    between atoms: C_2  and  C_3
REMARK    2  A    between atoms: C_7  and  C_8
REMARK    3  A    between atoms: C_12  and  C_13
REMARK    4  A    between atoms: C_13  and  N_14
REMARK    5  A    between atoms: N_14  and  C_15
REMARK    6  A    between atoms: C_18  and  C_19
REMARK                            x       y       z     vdW  Elec       q    Type
REMARK                         _______ _______ _______ _____ _____    ______ ____
ROOT
ATOM      1  C   UNL     1      44.122   5.099  11.590  0.00  0.00    +0.000 C 
ATOM      2  C   UNL     1      43.040   4.805  12.629  0.00  0.00    +0.000 C 
ATOM      3  C   UNL     1      44.277   3.975  12.592  0.00  0.00    +0.000 C 
ENDROOT
BRANCH   1   8
ATOM      4  C   UNL     1      46.742   7.724  12.632  0.00  0.00    +0.000 A 
ATOM      5  C   UNL     1      46.128   8.900  12.174  0.00  0.00    +0.000 A 
ATOM      6  C   UNL     1      44.890   8.868  11.527  0.00  0.00    +0.000 A 
ATOM      7  C   UNL     1      44.234   7.655  11.325  0.00  0.00    +0.000 A 
ATOM      8  C   UNL     1      44.795   6.452  11.766  0.00  0.00    +0.000 A 
ATOM      9  C   UNL     1      46.043   6.523  12.422  0.00  0.00    +0.000 A 
BRANCH   4  14
ATOM     10  C   UNL     1      49.553   7.032  15.111  0.00  0.00    +0.000 A 
ATOM     11  C   UNL     1      50.604   7.759  14.556  0.00  0.00    +0.000 A 
ATOM     12  C   UNL     1      50.404   8.476  13.382  0.00  0.00    +0.000 A 
ATOM     13  C   UNL     1      49.156   8.452  12.753  0.00  0.00    +0.000 A 
ATOM     14  C   UNL     1      48.072   7.724  13.285  0.00  0.00    +0.000 A 
ATOM     15  C   UNL     1      48.298   7.020  14.480  0.00  0.00    +0.000 A 
BRANCH  10  17
ATOM     16  N   UNL     1      49.910   5.696  17.303  0.00  0.00    +0.000 NA
ATOM     17  C   UNL     1      49.746   6.296  16.321  0.00  0.00    +0.000 C 
ENDBRANCH  10  17
ENDBRANCH   4  14
ENDBRANCH   1   8
BRANCH   1  18
ATOM     18  N   UNL     1      43.857   4.758  10.174  0.00  0.00    +0.000 N 
ATOM     19  H   UNL     1      43.477   5.529   9.625  0.00  0.00    +0.000 HD
BRANCH  18  20
ATOM     20  C   UNL     1      44.761   3.998   9.404  0.00  0.00    +0.000 A 
ATOM     21  C   UNL     1      44.854   2.615   9.398  0.00  0.00    +0.000 A 
ATOM     22  N   UNL     1      45.686   1.893   8.612  0.00  0.00    +0.000 NA
ATOM     23  C   UNL     1      46.441   2.617   7.753  0.00  0.00    +0.000 A 
ATOM     24  N   UNL     1      46.414   3.955   7.622  0.00  0.00    +0.000 NA
ATOM     25  C   UNL     1      45.562   4.602   8.447  0.00  0.00    +0.000 A 
BRANCH  23  26
ATOM     26  C   UNL     1      47.406   1.841   6.887  0.00  0.00    +0.000 C 
ATOM     27  N   UNL     1      48.511   2.536   6.454  0.00  0.00    +0.000 N 
ATOM     28  O   UNL     1      47.246   0.669   6.562  0.00  0.00    +0.000 OA
ATOM     29  H   UNL     1      48.639   3.505   6.723  0.00  0.00    +0.000 HD
ATOM     30  H   UNL     1      49.183   2.069   5.864  0.00  0.00    +0.000 HD
ENDBRANCH  23  26
ENDBRANCH  18  20
ENDBRANCH   1  18
TORSDOF 6
ENDMDL
MODEL 5
REMARK VINA RESULT:    -7.830      3.780      7.359
REMARK INTER + INTRA:         -11.532
REMARK INTER:                 -11.309
REMARK INTRA:                  -0.224
REMARK UNBOUND:                -0.956
REMARK  Name = 
REMARK  6 active torsions:
REMARK  status: ('A' for Active; 'I' for Inactive)
REMARK    1  A    between atoms: C_2  and  C_3
REMARK    2  A    between atoms: C_7  and  C_8
REMARK    3  A    between atoms: C_12  and  C_13
REMARK    4  A    between atoms: C_13  and  N_14
REMARK    5  A    between atoms: N_14  and  C_15
REMARK    6  A    between atoms: C_18  and  C_19
REMARK                            x       y       z     vdW  Elec       q    Type
REMARK                         _______ _______ _______ _____ _____    ______ ____
ROOT
ATOM      1  C   UNL     1      46.302   7.226  12.056  0.00  0.00    +0.000 C 
ATOM      2  C   UNL     1      45.535   8.236  12.910  0.00  0.00    +0.000 C 
ATOM      3  C   UNL     1      46.316   8.704  11.731  0.00  0.00    +0.000 C 
ENDROOT
BRANCH   1   8
ATOM      4  C   UNL     1      45.200   4.553   9.511  0.00  0.00    +0.000 A 
ATOM      5  C   UNL     1      43.855   4.386   9.874  0.00  0.00    +0.000 A 
ATOM      6  C   UNL     1      43.293   5.110  10.929  0.00  0.00    +0.000 A 
ATOM      7  C   UNL     1      44.067   6.023  11.645  0.00  0.00    +0.000 A 
ATOM      8  C   UNL     1      45.411   6.234  11.323  0.00  0.00    +0.000 A 
ATOM      9  C   UNL     1      45.942   5.491  10.247  0.00  0.00    +0.000 A 
BRANCH   4  14
ATOM     10  C   UNL     1      46.582   1.630   7.491  0.00  0.00    +0.000 A 
ATOM     11  C   UNL     1      47.075   2.278   6.360  0.00  0.00    +0.000 A 
ATOM     12  C   UNL     1      46.964   3.659   6.250  0.00  0.00    +0.000 A 
ATOM     13  C   UNL     1      46.344   4.392   7.266  0.00  0.00    +0.000 A 
ATOM     14  C   UNL     1      45.831   3.770   8.423  0.00  0.00    +0.000 A 
ATOM     15  C   UNL     1      45.969   2.374   8.513  0.00  0.00    +0.000 A 
BRANCH  10  17
ATOM     16  N   UNL     1      46.783  -0.944   7.718  0.00  0.00    +0.000 NA
ATOM     17  C   UNL     1      46.698   0.211   7.617  0.00  0.00    +0.000 C 
ENDBRANCH  10  17
ENDBRANCH   4  14
ENDBRANCH   1   8
BRANCH   1  18
ATOM     18  N   UNL     1      47.527   6.610  12.614  0.00  0.00    +0.000 N 
ATOM     19  H   UNL     1      48.325   7.242  12.661  0.00  0.00    +0.000 HD
BRANCH  18  20
ATOM     20  C   UNL     1      47.494   5.767  13.744  0.00  0.00    +0.000 A 
ATOM     21  C   UNL     1      46.977   4.481  13.777  0.00  0.00    +0.000 A 
ATOM     22  N   UNL     1      47.003   3.660  14.852  0.00  0.00    +0.000 NA
ATOM     23  C   UNL     1      47.625   4.159  15.946  0.00  0.00    +0.000 A 
ATOM     24  N   UNL     1      48.209   5.367  16.032  0.00  0.00    +0.000 NA
ATOM     25  C   UNL     1      48.134   6.128  14.919  0.00  0.00    +0.000 A 
BRANCH  23  26
ATOM     26  C   UNL     1      47.638   3.277  17.173  0.00  0.00    +0.000 C 
ATOM     27  N   UNL     1      48.855   3.148  17.802  0.00  0.00    +0.000 N 
ATOM     28  O   UNL     1      46.652   2.691  17.608  0.00  0.00    +0.000 OA
ATOM     29  H   UNL     1      49.667   3.633  17.439  0.00  0.00    +0.000 HD
ATOM     30  H   UNL     1      48.924   2.563  18.621  0.00  0.00    +0.000 HD
ENDBRANCH  23  26
ENDBRANCH  18  20
ENDBRANCH   1  18
TORSDOF 6
ENDMDL
MODEL 6
REMARK VINA RESULT:    -7.392      4.250      7.714
REMARK INTER + INTRA:         -10.940
REMARK INTER:                 -10.163
REMARK INTRA:                  -0.777
REMARK UNBOUND:                -0.956
REMARK  Name = 
REMARK  6 active torsions:
REMARK  status: ('A' for Active; 'I' for Inactive)
REMARK    1  A    between atoms: C_2  and  C_3
REMARK    2  A    between atoms: C_7  and  C_8
REMARK    3  A    between atoms: C_12  and  C_13
REMARK    4  A    between atoms: C_13  and  N_14
REMARK    5  A    between atoms: N_14  and  C_15
REMARK    6  A    between atoms: C_18  and  C_19
REMARK                            x       y       z     vdW  Elec       q    Type
REMARK                         _______ _______ _______ _____ _____    ______ ____
ROOT
ATOM      1  C   UNL     1      46.470   5.694  13.579  0.00  0.00    +0.000 C 
ATOM      2  C   UNL     1      46.702   7.201  13.459  0.00  0.00    +0.000 C 
ATOM      3  C   UNL     1      47.809   6.253  13.147  0.00  0.00    +0.000 C 
ENDROOT
BRANCH   1   8
ATOM      4  C   UNL     1      45.039   4.118  10.369  0.00  0.00    +0.000 A 
ATOM      5  C   UNL     1      43.667   4.127  10.663  0.00  0.00    +0.000 A 
ATOM      6  C   UNL     1      43.189   4.621  11.880  0.00  0.00    +0.000 A 
ATOM      7  C   UNL     1      44.076   5.123  12.831  0.00  0.00    +0.000 A 
ATOM      8  C   UNL     1      45.453   5.146  12.589  0.00  0.00    +0.000 A 
ATOM      9  C   UNL     1      45.899   4.644  11.346  0.00  0.00    +0.000 A 
BRANCH   4  14
ATOM     10  C   UNL     1      46.341   1.659   7.763  0.00  0.00    +0.000 A 
ATOM     11  C   UNL     1      46.639   2.508   6.699  0.00  0.00    +0.000 A 
ATOM     12  C   UNL     1      46.422   3.875   6.823  0.00  0.00    +0.000 A 
ATOM     13  C   UNL     1      45.891   4.392   8.008  0.00  0.00    +0.000 A 
ATOM     14  C   UNL     1      45.575   3.563   9.104  0.00  0.00    +0.000 A 
ATOM     15  C   UNL     1      45.817   2.186   8.955  0.00  0.00    +0.000 A 
BRANCH  10  17
ATOM     16  N   UNL     1      46.756  -0.891   7.559  0.00  0.00    +0.000 NA
ATOM     17  C   UNL     1      46.566   0.252   7.648  0.00  0.00    +0.000 C 
ENDBRANCH  10  17
ENDBRANCH   4  14
ENDBRANCH   1   8
BRANCH   1  18
ATOM     18  N   UNL     1      46.350   5.101  14.929  0.00  0.00    +0.000 N 
ATOM     19  H   UNL     1      45.477   4.598  15.085  0.00  0.00    +0.000 HD
BRANCH  18  20
ATOM     20  C   UNL     1      47.424   4.437  15.556  0.00  0.00    +0.000 A 
ATOM     21  C   UNL     1      48.206   4.951  16.578  0.00  0.00    +0.000 A 
ATOM     22  N   UNL     1      49.199   4.283  17.211  0.00  0.00    +0.000 NA
ATOM     23  C   UNL     1      49.382   3.004  16.809  0.00  0.00    +0.000 A 
ATOM     24  N   UNL     1      48.664   2.369  15.866  0.00  0.00    +0.000 NA
ATOM     25  C   UNL     1      47.697   3.106  15.277  0.00  0.00    +0.000 A 
BRANCH  23  26
ATOM     26  C   UNL     1      50.506   2.244  17.473  0.00  0.00    +0.000 C 
ATOM     27  N   UNL     1      51.325   2.987  18.293  0.00  0.00    +0.000 N 
ATOM     28  O   UNL     1      50.715   1.047  17.311  0.00  0.00    +0.000 OA
ATOM     29  H   UNL     1      51.150   3.976  18.423  0.00  0.00    +0.000 HD
ATOM     30  H   UNL     1      52.098   2.532  18.755  0.00  0.00    +0.000 HD
ENDBRANCH  23  26
ENDBRANCH  18  20
ENDBRANCH   1  18
TORSDOF 6
ENDMDL
MODEL 7
REMARK VINA RESULT:    -7.383      3.955      7.577
REMARK INTER + INTRA:         -10.928
REMARK INTER:                 -10.452
REMARK INTRA:                  -0.476
REMARK UNBOUND:                -0.956
REMARK  Name = 
REMARK  6 active torsions:
REMARK  status: ('A' for Active; 'I' for Inactive)
REMARK    1  A    between atoms: C_2  and  C_3
REMARK    2  A    between atoms: C_7  and  C_8
REMARK    3  A    between atoms: C_12  and  C_13
REMARK    4  A    between atoms: C_13  and  N_14
REMARK    5  A    between atoms: N_14  and  C_15
REMARK    6  A    between atoms: C_18  and  C_19
REMARK                            x       y       z     vdW  Elec       q    Type
REMARK                         _______ _______ _______ _____ _____    ______ ____
ROOT
ATOM      1  C   UNL     1      48.686   7.950  12.706  0.00  0.00    +0.000 C 
ATOM      2  C   UNL     1      49.476   8.951  11.862  0.00  0.00    +0.000 C 
ATOM      3  C   UNL     1      49.861   7.512  11.859  0.00  0.00    +0.000 C 
ENDROOT
BRANCH   1   8
ATOM      4  C   UNL     1      45.575   6.355  11.088  0.00  0.00    +0.000 A 
ATOM      5  C   UNL     1      44.609   7.335  11.360  0.00  0.00    +0.000 A 
ATOM      6  C   UNL     1      44.933   8.498  12.064  0.00  0.00    +0.000 A 
ATOM      7  C   UNL     1      46.237   8.710  12.509  0.00  0.00    +0.000 A 
ATOM      8  C   UNL     1      47.242   7.770  12.260  0.00  0.00    +0.000 A 
ATOM      9  C   UNL     1      46.880   6.611  11.541  0.00  0.00    +0.000 A 
BRANCH   4  14
ATOM     10  C   UNL     1      45.440   3.640   8.415  0.00  0.00    +0.000 A 
ATOM     11  C   UNL     1      44.596   2.703   9.009  0.00  0.00    +0.000 A 
ATOM     12  C   UNL     1      44.069   2.949  10.271  0.00  0.00    +0.000 A 
ATOM     13  C   UNL     1      44.398   4.126  10.948  0.00  0.00    +0.000 A 
ATOM     14  C   UNL     1      45.250   5.095  10.379  0.00  0.00    +0.000 A 
ATOM     15  C   UNL     1      45.759   4.827   9.097  0.00  0.00    +0.000 A 
BRANCH  10  17
ATOM     16  N   UNL     1      46.433   3.206   6.061  0.00  0.00    +0.000 NA
ATOM     17  C   UNL     1      45.983   3.401   7.115  0.00  0.00    +0.000 C 
ENDBRANCH  10  17
ENDBRANCH   4  14
ENDBRANCH   1   8
BRANCH   1  18
ATOM     18  N   UNL     1      48.844   7.983  14.177  0.00  0.00    +0.000 N 
ATOM     19  H   UNL     1      48.537   8.855  14.608  0.00  0.00    +0.000 HD
BRANCH  18  20
ATOM     20  C   UNL     1      48.511   6.882  14.993  0.00  0.00    +0.000 A 
ATOM     21  C   UNL     1      47.876   5.726  14.569  0.00  0.00    +0.000 A 
ATOM     22  N   UNL     1      47.612   4.651  15.348  0.00  0.00    +0.000 NA
ATOM     23  C   UNL     1      48.055   4.741  16.624  0.00  0.00    +0.000 A 
ATOM     24  N   UNL     1      48.726   5.781  17.149  0.00  0.00    +0.000 NA
ATOM     25  C   UNL     1      48.942   6.816  16.309  0.00  0.00    +0.000 A 
BRANCH  23  26
ATOM     26  C   UNL     1      47.744   3.570  17.527  0.00  0.00    +0.000 C 
ATOM     27  N   UNL     1      48.712   3.260  18.455  0.00  0.00    +0.000 N 
ATOM     28  O   UNL     1      46.713   2.909  17.463  0.00  0.00    +0.000 OA
ATOM     29  H   UNL     1      49.563   3.807  18.504  0.00  0.00    +0.000 HD
ATOM     30  H   UNL     1      48.561   2.480  19.078  0.00  0.00    +0.000 HD
ENDBRANCH  23  26
ENDBRANCH  18  20
ENDBRANCH   1  18
TORSDOF 6
ENDMDL
MODEL 8
REMARK VINA RESULT:    -6.485      4.802      7.953
REMARK INTER + INTRA:          -9.716
REMARK INTER:                  -8.903
REMARK INTRA:                  -0.813
REMARK UNBOUND:                -0.956
REMARK  Name = 
REMARK  6 active torsions:
REMARK  status: ('A' for Active; 'I' for Inactive)
REMARK    1  A    between atoms: C_2  and  C_3
REMARK    2  A    between atoms: C_7  and  C_8
REMARK    3  A    between atoms: C_12  and  C_13
REMARK    4  A    between atoms: C_13  and  N_14
REMARK    5  A    between atoms: N_14  and  C_15
REMARK    6  A    between atoms: C_18  and  C_19
REMARK                            x       y       z     vdW  Elec       q    Type
REMARK                         _______ _______ _______ _____ _____    ______ ____
ROOT
ATOM      1  C   UNL     1      48.750   7.944  15.964  0.00  0.00    +0.000 C 
ATOM      2  C   UNL     1      48.345   9.334  16.456  0.00  0.00    +0.000 C 
ATOM      3  C   UNL     1      49.754   8.876  16.606  0.00  0.00    +0.000 C 
ENDROOT
BRANCH   1   8
ATOM      4  C   UNL     1      47.334   6.890  12.540  0.00  0.00    +0.000 A 
ATOM      5  C   UNL     1      48.343   7.359  11.685  0.00  0.00    +0.000 A 
ATOM      6  C   UNL     1      49.470   8.017  12.185  0.00  0.00    +0.000 A 
ATOM      7  C   UNL     1      49.614   8.220  13.557  0.00  0.00    +0.000 A 
ATOM      8  C   UNL     1      48.643   7.768  14.456  0.00  0.00    +0.000 A 
ATOM      9  C   UNL     1      47.522   7.101  13.915  0.00  0.00    +0.000 A 
BRANCH   4  14
ATOM     10  C   UNL     1      44.910   5.024  10.266  0.00  0.00    +0.000 A 
ATOM     11  C   UNL     1      43.759   4.987  11.050  0.00  0.00    +0.000 A 
ATOM     12  C   UNL     1      43.764   5.568  12.313  0.00  0.00    +0.000 A 
ATOM     13  C   UNL     1      44.928   6.172  12.798  0.00  0.00    +0.000 A 
ATOM     14  C   UNL     1      46.111   6.225  12.033  0.00  0.00    +0.000 A 
ATOM     15  C   UNL     1      46.073   5.641  10.755  0.00  0.00    +0.000 A 
BRANCH  10  17
ATOM     16  N   UNL     1      44.925   3.955   7.904  0.00  0.00    +0.000 NA
ATOM     17  C   UNL     1      44.914   4.436   8.963  0.00  0.00    +0.000 C 
ENDBRANCH  10  17
ENDBRANCH   4  14
ENDBRANCH   1   8
BRANCH   1  18
ATOM     18  N   UNL     1      48.290   6.761  16.724  0.00  0.00    +0.000 N 
ATOM     19  H   UNL     1      47.321   6.502  16.542  0.00  0.00    +0.000 HD
BRANCH  18  20
ATOM     20  C   UNL     1      49.091   5.611  16.880  0.00  0.00    +0.000 A 
ATOM     21  C   UNL     1      50.453   5.604  17.137  0.00  0.00    +0.000 A 
ATOM     22  N   UNL     1      51.201   4.495  17.341  0.00  0.00    +0.000 NA
ATOM     23  C   UNL     1      50.519   3.327  17.321  0.00  0.00    +0.000 A 
ATOM     24  N   UNL     1      49.194   3.196  17.132  0.00  0.00    +0.000 NA
ATOM     25  C   UNL     1      48.521   4.348  16.928  0.00  0.00    +0.000 A 
BRANCH  23  26
ATOM     26  C   UNL     1      51.334   2.068  17.511  0.00  0.00    +0.000 C 
ATOM     27  N   UNL     1      52.350   2.150  18.436  0.00  0.00    +0.000 N 
ATOM     28  O   UNL     1      51.141   1.026  16.894  0.00  0.00    +0.000 OA
ATOM     29  H   UNL     1      52.507   3.013  18.942  0.00  0.00    +0.000 HD
ATOM     30  H   UNL     1      52.933   1.342  18.595  0.00  0.00    +0.000 HD
ENDBRANCH  23  26
ENDBRANCH  18  20
ENDBRANCH   1  18
TORSDOF 6
ENDMDL
MODEL 9
REMARK VINA RESULT:    -6.359      4.258      8.029
REMARK INTER + INTRA:          -9.546
REMARK INTER:                  -8.684
REMARK INTRA:                  -0.862
REMARK UNBOUND:                -0.956
REMARK  Name = 
REMARK  6 active torsions:
REMARK  status: ('A' for Active; 'I' for Inactive)
REMARK    1  A    between atoms: C_2  and  C_3
REMARK    2  A    between atoms: C_7  and  C_8
REMARK    3  A    between atoms: C_12  and  C_13
REMARK    4  A    between atoms: C_13  and  N_14
REMARK    5  A    between atoms: N_14  and  C_15
REMARK    6  A    between atoms: C_18  and  C_19
REMARK                            x       y       z     vdW  Elec       q    Type
REMARK                         _______ _______ _______ _____ _____    ______ ____
ROOT
ATOM      1  C   UNL     1      49.074   8.132  12.949  0.00  0.00    +0.000 C 
ATOM      2  C   UNL     1      49.976   8.861  11.953  0.00  0.00    +0.000 C 
ATOM      3  C   UNL     1      50.121   7.391  12.146  0.00  0.00    +0.000 C 
ENDROOT
BRANCH   1   8
ATOM      4  C   UNL     1      45.572   6.813  12.037  0.00  0.00    +0.000 A 
ATOM      5  C   UNL     1      44.884   8.018  11.835  0.00  0.00    +0.000 A 
ATOM      6  C   UNL     1      45.519   9.252  11.995  0.00  0.00    +0.000 A 
ATOM      7  C   UNL     1      46.864   9.308  12.359  0.00  0.00    +0.000 A 
ATOM      8  C   UNL     1      47.601   8.138  12.566  0.00  0.00    +0.000 A 
ATOM      9  C   UNL     1      46.928   6.910  12.389  0.00  0.00    +0.000 A 
BRANCH   4  14
ATOM     10  C   UNL     1      44.585   3.372  10.726  0.00  0.00    +0.000 A 
ATOM     11  C   UNL     1      43.621   2.983  11.653  0.00  0.00    +0.000 A 
ATOM     12  C   UNL     1      43.286   3.833  12.700  0.00  0.00    +0.000 A 
ATOM     13  C   UNL     1      43.929   5.067  12.830  0.00  0.00    +0.000 A 
ATOM     14  C   UNL     1      44.912   5.492  11.913  0.00  0.00    +0.000 A 
ATOM     15  C   UNL     1      45.221   4.618  10.856  0.00  0.00    +0.000 A 
BRANCH  10  17
ATOM     16  N   UNL     1      45.223   1.809   8.758  0.00  0.00    +0.000 NA
ATOM     17  C   UNL     1      44.933   2.508   9.642  0.00  0.00    +0.000 C 
ENDBRANCH  10  17
ENDBRANCH   4  14
ENDBRANCH   1   8
BRANCH   1  18
ATOM     18  N   UNL     1      49.303   8.339  14.396  0.00  0.00    +0.000 N 
ATOM     19  H   UNL     1      48.700   9.048  14.814  0.00  0.00    +0.000 HD
BRANCH  18  20
ATOM     20  C   UNL     1      49.497   7.264  15.287  0.00  0.00    +0.000 A 
ATOM     21  C   UNL     1      48.550   6.307  15.616  0.00  0.00    +0.000 A 
ATOM     22  N   UNL     1      48.764   5.245  16.428  0.00  0.00    +0.000 NA
ATOM     23  C   UNL     1      50.026   5.128  16.903  0.00  0.00    +0.000 A 
ATOM     24  N   UNL     1      51.048   5.955  16.624  0.00  0.00    +0.000 NA
ATOM     25  C   UNL     1      50.751   6.993  15.812  0.00  0.00    +0.000 A 
BRANCH  23  26
ATOM     26  C   UNL     1      50.286   3.972  17.841  0.00  0.00    +0.000 C 
ATOM     27  N   UNL     1      49.167   3.352  18.349  0.00  0.00    +0.000 N 
ATOM     28  O   UNL     1      51.406   3.586  18.160  0.00  0.00    +0.000 OA
ATOM     29  H   UNL     1      48.244   3.675  18.084  0.00  0.00    +0.000 HD
ATOM     30  H   UNL     1      49.283   2.581  18.988  0.00  0.00    +0.000 HD
ENDBRANCH  23  26
ENDBRANCH  18  20
ENDBRANCH   1  18
TORSDOF 6
ENDMDL
