MODEL 1
REMARK VINA RESULT:    -8.196      0.000      0.000
REMARK INTER + INTRA:         -11.170
REMARK INTER:                 -10.831
REMARK INTRA:                  -0.339
REMARK UNBOUND:                -0.339
REMARK  Name = 
REMARK  6 active torsions:
REMARK  status: ('A' for Active; 'I' for Inactive)
REMARK    1  A    between atoms: C_2  and  C_20
REMARK    2  A    between atoms: N_3  and  C_4
REMARK    3  A    between atoms: C_4  and  C_5
REMARK    4  A    between atoms: C_8  and  C_9
REMARK    5  A    between atoms: C_9  and  O_10
REMARK    6  A    between atoms: C_9  and  C_11
REMARK                            x       y       z     vdW  Elec       q    Type
REMARK                         _______ _______ _______ _____ _____    ______ ____
ROOT
ATOM      1  C   UNL     1      48.068   7.563  13.703  0.00  0.00    +0.000 C 
ENDROOT
BRANCH   1   2
ATOM      2  C   UNL     1      46.946   6.812  13.040  0.00  0.00    +0.000 A 
ATOM      3  C   UNL     1      46.058   7.477  12.188  0.00  0.00    +0.000 A 
ATOM      4  C   UNL     1      44.989   6.794  11.600  0.00  0.00    +0.000 A 
ATOM      5  C   UNL     1      44.769   5.431  11.862  0.00  0.00    +0.000 A 
ATOM      6  C   UNL     1      45.683   4.765  12.693  0.00  0.00    +0.000 A 
ATOM      7  C   UNL     1      46.743   5.451  13.295  0.00  0.00    +0.000 A 
BRANCH   5   8
ATOM      8  C   UNL     1      43.594   4.729  11.192  0.00  0.00    +0.000 C 
BRANCH   8   9
ATOM      9  C   UNL     1      43.879   3.307  10.619  0.00  0.00    +0.000 C 
ATOM     10  O   UNL     1      43.331   2.284  11.037  0.00  0.00    +0.000 OA
ATOM     11  N   UNL     1      44.789   3.221   9.580  0.00  0.00    +0.000 N 
ATOM     12  C   UNL     1      45.487   4.305   8.911  0.00  0.00    +0.000 C 
ATOM     13  C   UNL     1      45.822   3.714   7.551  0.00  0.00    +0.000 C 
ATOM     14  C   UNL     1      46.086   2.242   7.855  0.00  0.00    +0.000 C 
ATOM     15  C   UNL     1      45.189   1.932   9.047  0.00  0.00    +0.000 C 
ENDBRANCH   8   9
BRANCH   8  16
ATOM     16  O   UNL     1      43.074   5.603  10.189  0.00  0.00    +0.000 OA
ATOM     17  H   UNL     1      42.807   5.034   9.446  0.00  0.00    +0.000 HD
ENDBRANCH   8  16
ENDBRANCH   5   8
ENDBRANCH   1   2
BRANCH   1  20
ATOM     18  O   UNL     1      50.169   6.667  15.363  0.00  0.00    +0.000 OA
ATOM     19  C   UNL     1      49.114   7.027  15.876  0.00  0.00    +0.000 C 
ATOM     20  N   UNL     1      48.023   7.408  15.134  0.00  0.00    +0.000 N 
ATOM     21  H   UNL     1      47.253   7.875  15.601  0.00  0.00    +0.000 HD
BRANCH  19  22
ATOM     22  C   UNL     1      48.925   7.010  17.335  0.00  0.00    +0.000 A 
ATOM     23  C   UNL     1      48.690   8.200  18.012  0.00  0.00    +0.000 A 
ATOM     24  S   UNL     1      48.532   8.007  19.699  0.00  0.00    +0.000 S 
ATOM     25  C   UNL     1      48.722   6.320  19.579  0.00  0.00    +0.000 A 
ATOM     26  N   UNL     1      48.663   5.531  20.687  0.00  0.00    +0.000 NA
ATOM     27  C   UNL     1      48.770   4.268  20.444  0.00  0.00    +0.000 A 
ATOM     28  N   UNL     1      48.936   3.720  19.198  0.00  0.00    +0.000 N 
ATOM     29  C   UNL     1      49.086   4.481  18.066  0.00  0.00    +0.000 A 
ATOM     30  O   UNL     1      49.375   3.968  16.991  0.00  0.00    +0.000 OA
ATOM     31  C   UNL     1      48.923   5.910  18.274  0.00  0.00    +0.000 A 
ATOM     32  H   UNL     1      49.040   2.723  19.083  0.00  0.00    +0.000 HD
ENDBRANCH  19  22
ENDBRANCH   1  20
TORSDOF 6
ENDMDL
MODEL 2
REMARK VINA RESULT:    -8.137      1.648      2.190
REMARK INTER + INTRA:         -11.092
REMARK INTER:                 -10.957
REMARK INTRA:                  -0.135
REMARK UNBOUND:                -0.339
REMARK  Name = 
REMARK  6 active torsions:
REMARK  status: ('A' for Active; 'I' for Inactive)
REMARK    1  A    between atoms: C_2  and  C_20
REMARK    2  A    between atoms: N_3  and  C_4
REMARK    3  A    between atoms: C_4  and  C_5
REMARK    4  A    between atoms: C_8  and  C_9
REMARK    5  A    between atoms: C_9  and  O_10
REMARK    6  A    between atoms: C_9  and  C_11
REMARK                            x       y       z     vdW  Elec       q    Type
REMARK                         _______ _______ _______ _____ _____    ______ ____
ROOT
ATOM      1  C   UNL     1      47.448   6.841  13.579  0.00  0.00    +0.000 C 
ENDROOT
BRANCH   1   2
ATOM      2  C   UNL     1      46.613   6.038  12.621  0.00  0.00    +0.000 A 
ATOM      3  C   UNL     1      46.373   6.510  11.326  0.00  0.00    +0.000 A 
ATOM      4  C   UNL     1      45.565   5.787  10.443  0.00  0.00    +0.000 A 
ATOM      5  C   UNL     1      44.959   4.582  10.837  0.00  0.00    +0.000 A 
ATOM      6  C   UNL     1      45.231   4.101  12.127  0.00  0.00    +0.000 A 
ATOM      7  C   UNL     1      46.026   4.830  13.017  0.00  0.00    +0.000 A 
BRANCH   5   8
ATOM      8  C   UNL     1      44.093   3.827   9.836  0.00  0.00    +0.000 C 
BRANCH   8   9
ATOM      9  C   UNL     1      44.677   2.487   9.294  0.00  0.00    +0.000 C 
ATOM     10  O   UNL     1      44.279   1.377   9.655  0.00  0.00    +0.000 OA
ATOM     11  N   UNL     1      45.685   2.580   8.350  0.00  0.00    +0.000 N 
ATOM     12  C   UNL     1      46.243   3.780   7.754  0.00  0.00    +0.000 C 
ATOM     13  C   UNL     1      46.806   3.281   6.433  0.00  0.00    +0.000 C 
ATOM     14  C   UNL     1      47.294   1.873   6.761  0.00  0.00    +0.000 C 
ATOM     15  C   UNL     1      46.354   1.390   7.859  0.00  0.00    +0.000 C 
ENDBRANCH   8   9
BRANCH   8  16
ATOM     16  O   UNL     1      43.766   4.724   8.774  0.00  0.00    +0.000 OA
ATOM     17  H   UNL     1      42.908   5.119   9.008  0.00  0.00    +0.000 HD
ENDBRANCH   8  16
ENDBRANCH   5   8
ENDBRANCH   1   2
BRANCH   1  20
ATOM     18  O   UNL     1      49.748   6.605  15.199  0.00  0.00    +0.000 OA
ATOM     19  C   UNL     1      48.676   6.182  15.619  0.00  0.00    +0.000 C 
ATOM     20  N   UNL     1      47.528   6.197  14.864  0.00  0.00    +0.000 N 
ATOM     21  H   UNL     1      46.640   6.018  15.322  0.00  0.00    +0.000 HD
BRANCH  19  22
ATOM     22  C   UNL     1      48.562   5.566  16.950  0.00  0.00    +0.000 A 
ATOM     23  C   UNL     1      48.747   4.196  17.091  0.00  0.00    +0.000 A 
ATOM     24  S   UNL     1      48.543   3.641  18.691  0.00  0.00    +0.000 S 
ATOM     25  C   UNL     1      48.251   5.218  19.260  0.00  0.00    +0.000 A 
ATOM     26  N   UNL     1      48.023   5.453  20.582  0.00  0.00    +0.000 NA
ATOM     27  C   UNL     1      47.871   6.699  20.880  0.00  0.00    +0.000 A 
ATOM     28  N   UNL     1      47.920   7.733  19.981  0.00  0.00    +0.000 N 
ATOM     29  C   UNL     1      48.062   7.536  18.630  0.00  0.00    +0.000 A 
ATOM     30  O   UNL     1      47.959   8.467  17.839  0.00  0.00    +0.000 OA
ATOM     31  C   UNL     1      48.289   6.155  18.242  0.00  0.00    +0.000 A 
ATOM     32  H   UNL     1      47.764   8.684  20.280  0.00  0.00    +0.000 HD
ENDBRANCH  19  22
ENDBRANCH   1  20
TORSDOF 6
ENDMDL
MODEL 3
REMARK VINA RESULT:    -8.136      2.348      4.119
REMARK INTER + INTRA:         -11.090
REMARK INTER:                  -9.939
REMARK INTRA:                  -1.151
REMARK UNBOUND:                -0.339
REMARK  Name = 
REMARK  6 active torsions:
REMARK  status: ('A' for Active; 'I' for Inactive)
REMARK    1  A    between atoms: C_2  and  C_20
REMARK    2  A    between atoms: N_3  and  C_4
REMARK    3  A    between atoms: C_4  and  C_5
REMARK    4  A    between atoms: C_8  and  C_9
REMARK    5  A    between atoms: C_9  and  O_10
REMARK    6  A    between atoms: C_9  and  C_11
REMARK                            x       y       z     vdW  Elec       q    Type
REMARK                         _______ _______ _______ _____ _____    ______ ____
ROOT
ATOM      1  C   UNL     1      47.051   4.695  15.296  0.00  0.00    +0.000 C 
ENDROOT
BRANCH   1   2
ATOM      2  C   UNL     1      46.393   4.565  13.950  0.00  0.00    +0.000 A 
ATOM      3  C   UNL     1      46.191   3.303  13.381  0.00  0.00    +0.000 A 
ATOM      4  C   UNL     1      45.616   3.177  12.113  0.00  0.00    +0.000 A 
ATOM      5  C   UNL     1      45.243   4.311  11.371  0.00  0.00    +0.000 A 
ATOM      6  C   UNL     1      45.420   5.571  11.963  0.00  0.00    +0.000 A 
ATOM      7  C   UNL     1      46.010   5.700  13.224  0.00  0.00    +0.000 A 
BRANCH   5   8
ATOM      8  C   UNL     1      44.613   4.122   9.997  0.00  0.00    +0.000 C 
BRANCH   8   9
ATOM      9  C   UNL     1      45.572   4.261   8.776  0.00  0.00    +0.000 C 
ATOM     10  O   UNL     1      46.015   5.342   8.380  0.00  0.00    +0.000 OA
ATOM     11  N   UNL     1      45.939   3.093   8.131  0.00  0.00    +0.000 N 
ATOM     12  C   UNL     1      45.580   1.730   8.478  0.00  0.00    +0.000 C 
ATOM     13  C   UNL     1      46.700   0.909   7.860  0.00  0.00    +0.000 C 
ATOM     14  C   UNL     1      47.049   1.676   6.589  0.00  0.00    +0.000 C 
ATOM     15  C   UNL     1      46.751   3.132   6.929  0.00  0.00    +0.000 C 
ENDBRANCH   8   9
BRANCH   8  16
ATOM     16  O   UNL     1      43.502   5.014   9.895  0.00  0.00    +0.000 OA
ATOM     17  H   UNL     1      43.853   5.839   9.517  0.00  0.00    +0.000 HD
ENDBRANCH   8  16
ENDBRANCH   5   8
ENDBRANCH   1   2
BRANCH   1  20
ATOM     18  O   UNL     1      49.492   5.018  16.677  0.00  0.00    +0.000 OA
ATOM     19  C   UNL     1      49.052   5.954  16.017  0.00  0.00    +0.000 C 
ATOM     20  N   UNL     1      47.838   5.899  15.375  0.00  0.00    +0.000 N 
ATOM     21  H   UNL     1      47.613   6.615  14.692  0.00  0.00    +0.000 HD
BRANCH  19  22
ATOM     22  C   UNL     1      49.772   7.233  15.922  0.00  0.00    +0.000 A 
ATOM     23  C   UNL     1      50.178   7.881  17.081  0.00  0.00    +0.000 A 
ATOM     24  S   UNL     1      50.964   9.367  16.794  0.00  0.00    +0.000 S 
ATOM     25  C   UNL     1      50.835   9.172  15.108  0.00  0.00    +0.000 A 
ATOM     26  N   UNL     1      51.346  10.104  14.257  0.00  0.00    +0.000 NA
ATOM     27  C   UNL     1      51.226   9.802  13.008  0.00  0.00    +0.000 A 
ATOM     28  N   UNL     1      50.637   8.661  12.529  0.00  0.00    +0.000 N 
ATOM     29  C   UNL     1      50.033   7.738  13.347  0.00  0.00    +0.000 A 
ATOM     30  O   UNL     1      49.392   6.802  12.882  0.00  0.00    +0.000 OA
ATOM     31  C   UNL     1      50.184   8.000  14.768  0.00  0.00    +0.000 A 
ATOM     32  H   UNL     1      50.551   8.502  11.537  0.00  0.00    +0.000 HD
ENDBRANCH  19  22
ENDBRANCH   1  20
TORSDOF 6
ENDMDL
MODEL 4
REMARK VINA RESULT:    -7.755      4.114      9.503
REMARK INTER + INTRA:         -10.587
REMARK INTER:                  -9.692
REMARK INTRA:                  -0.895
REMARK UNBOUND:                -0.339
REMARK  Name = 
REMARK  6 active torsions:
REMARK  status: ('A' for Active; 'I' for Inactive)
REMARK    1  A    between atoms: C_2  and  C_20
REMARK    2  A    between atoms: N_3  and  C_4
REMARK    3  A    between atoms: C_4  and  C_5
REMARK    4  A    between atoms: C_8  and  C_9
REMARK    5  A    between atoms: C_9  and  O_10
REMARK    6  A    between atoms: C_9  and  C_11
REMARK                            x       y       z     vdW  Elec       q    Type
REMARK                         _______ _______ _______ _____ _____    ______ ____
ROOT
ATOM      1  C   UNL     1      47.306   3.361  16.817  0.00  0.00    +0.000 C 
ENDROOT
BRANCH   1   2
ATOM      2  C   UNL     1      48.773   3.459  17.133  0.00  0.00    +0.000 A 
ATOM      3  C   UNL     1      49.357   4.701  17.400  0.00  0.00    +0.000 A 
ATOM      4  C   UNL     1      50.728   4.804  17.655  0.00  0.00    +0.000 A 
ATOM      5  C   UNL     1      51.555   3.668  17.632  0.00  0.00    +0.000 A 
ATOM      6  C   UNL     1      50.956   2.422  17.394  0.00  0.00    +0.000 A 
ATOM      7  C   UNL     1      49.587   2.320  17.123  0.00  0.00    +0.000 A 
BRANCH   5   8
ATOM      8  C   UNL     1      53.042   3.830  17.923  0.00  0.00    +0.000 C 
BRANCH   8   9
ATOM      9  C   UNL     1      53.660   2.815  18.933  0.00  0.00    +0.000 C 
ATOM     10  O   UNL     1      53.540   2.915  20.156  0.00  0.00    +0.000 OA
ATOM     11  N   UNL     1      54.363   1.749  18.398  0.00  0.00    +0.000 N 
ATOM     12  C   UNL     1      54.561   1.422  16.998  0.00  0.00    +0.000 C 
ATOM     13  C   UNL     1      54.832  -0.073  17.026  0.00  0.00    +0.000 C 
ATOM     14  C   UNL     1      55.593  -0.275  18.333  0.00  0.00    +0.000 C 
ATOM     15  C   UNL     1      55.052   0.808  19.260  0.00  0.00    +0.000 C 
ENDBRANCH   8   9
BRANCH   8  16
ATOM     16  O   UNL     1      53.265   5.180  18.335  0.00  0.00    +0.000 OA
ATOM     17  H   UNL     1      53.114   5.197  19.296  0.00  0.00    +0.000 HD
ENDBRANCH   8  16
ENDBRANCH   5   8
ENDBRANCH   1   2
BRANCH   1  20
ATOM     18  O   UNL     1      47.205   3.007  14.019  0.00  0.00    +0.000 OA
ATOM     19  C   UNL     1      46.832   4.073  14.499  0.00  0.00    +0.000 C 
ATOM     20  N   UNL     1      46.917   4.347  15.843  0.00  0.00    +0.000 N 
ATOM     21  H   UNL     1      46.423   5.154  16.209  0.00  0.00    +0.000 HD
BRANCH  19  22
ATOM     22  C   UNL     1      46.327   5.163  13.651  0.00  0.00    +0.000 A 
ATOM     23  C   UNL     1      47.083   6.317  13.491  0.00  0.00    +0.000 A 
ATOM     24  S   UNL     1      46.335   7.494  12.509  0.00  0.00    +0.000 S 
ATOM     25  C   UNL     1      44.997   6.482  12.221  0.00  0.00    +0.000 A 
ATOM     26  N   UNL     1      43.976   6.887  11.416  0.00  0.00    +0.000 NA
ATOM     27  C   UNL     1      43.055   6.000  11.243  0.00  0.00    +0.000 A 
ATOM     28  N   UNL     1      43.054   4.749  11.804  0.00  0.00    +0.000 N 
ATOM     29  C   UNL     1      44.017   4.331  12.688  0.00  0.00    +0.000 A 
ATOM     30  O   UNL     1      43.913   3.264  13.282  0.00  0.00    +0.000 OA
ATOM     31  C   UNL     1      45.108   5.271  12.880  0.00  0.00    +0.000 A 
ATOM     32  H   UNL     1      42.285   4.115  11.648  0.00  0.00    +0.000 HD
ENDBRANCH  19  22
ENDBRANCH   1  20
TORSDOF 6
ENDMDL
MODEL 5
REMARK VINA RESULT:    -7.678      3.484      8.506
REMARK INTER + INTRA:         -10.486
REMARK INTER:                  -9.526
REMARK INTRA:                  -0.960
REMARK UNBOUND:                -0.339
REMARK  Name = 
REMARK  6 active torsions:
REMARK  status: ('A' for Active; 'I' for Inactive)
REMARK    1  A    between atoms: C_2  and  C_20
REMARK    2  A    between atoms: N_3  and  C_4
REMARK    3  A    between atoms: C_4  and  C_5
REMARK    4  A    between atoms: C_8  and  C_9
REMARK    5  A    between atoms: C_9  and  O_10
REMARK    6  A    between atoms: C_9  and  C_11
REMARK                            x       y       z     vdW  Elec       q    Type
REMARK                         _______ _______ _______ _____ _____    ______ ____
ROOT
ATOM      1  C   UNL     1      48.317   7.794  14.435  0.00  0.00    +0.000 C 
ENDROOT
BRANCH   1   2
ATOM      2  C   UNL     1      48.878   6.798  15.412  0.00  0.00    +0.000 A 
ATOM      3  C   UNL     1      50.211   6.887  15.826  0.00  0.00    +0.000 A 
ATOM      4  C   UNL     1      50.749   5.941  16.703  0.00  0.00    +0.000 A 
ATOM      5  C   UNL     1      49.973   4.869  17.177  0.00  0.00    +0.000 A 
ATOM      6  C   UNL     1      48.629   4.805  16.781  0.00  0.00    +0.000 A 
ATOM      7  C   UNL     1      48.093   5.741  15.891  0.00  0.00    +0.000 A 
BRANCH   5   8
ATOM      8  C   UNL     1      50.603   3.868  18.137  0.00  0.00    +0.000 C 
BRANCH   8   9
ATOM      9  C   UNL     1      51.099   2.530  17.508  0.00  0.00    +0.000 C 
ATOM     10  O   UNL     1      50.451   1.889  16.676  0.00  0.00    +0.000 OA
ATOM     11  N   UNL     1      52.340   2.069  17.913  0.00  0.00    +0.000 N 
ATOM     12  C   UNL     1      53.275   2.704  18.823  0.00  0.00    +0.000 C 
ATOM     13  C   UNL     1      54.614   2.110  18.415  0.00  0.00    +0.000 C 
ATOM     14  C   UNL     1      54.262   0.686  17.998  0.00  0.00    +0.000 C 
ATOM     15  C   UNL     1      52.842   0.788  17.454  0.00  0.00    +0.000 C 
ENDBRANCH   8   9
BRANCH   8  16
ATOM     16  O   UNL     1      49.678   3.635  19.200  0.00  0.00    +0.000 OA
ATOM     17  H   UNL     1      48.863   3.306  18.781  0.00  0.00    +0.000 HD
ENDBRANCH   8  16
ENDBRANCH   5   8
ENDBRANCH   1   2
BRANCH   1  20
ATOM     18  O   UNL     1      47.801   7.310  11.702  0.00  0.00    +0.000 OA
ATOM     19  C   UNL     1      46.931   7.053  12.529  0.00  0.00    +0.000 C 
ATOM     20  N   UNL     1      47.080   7.325  13.867  0.00  0.00    +0.000 N 
ATOM     21  H   UNL     1      46.421   6.921  14.524  0.00  0.00    +0.000 HD
BRANCH  19  22
ATOM     22  C   UNL     1      45.633   6.489  12.127  0.00  0.00    +0.000 A 
ATOM     23  C   UNL     1      44.689   7.305  11.517  0.00  0.00    +0.000 A 
ATOM     24  S   UNL     1      43.228   6.504  11.152  0.00  0.00    +0.000 S 
ATOM     25  C   UNL     1      43.825   5.026  11.749  0.00  0.00    +0.000 A 
ATOM     26  N   UNL     1      43.064   3.898  11.708  0.00  0.00    +0.000 NA
ATOM     27  C   UNL     1      43.661   2.840  12.144  0.00  0.00    +0.000 A 
ATOM     28  N   UNL     1      44.944   2.805  12.624  0.00  0.00    +0.000 N 
ATOM     29  C   UNL     1      45.716   3.931  12.763  0.00  0.00    +0.000 A 
ATOM     30  O   UNL     1      46.804   3.889  13.326  0.00  0.00    +0.000 OA
ATOM     31  C   UNL     1      45.113   5.145  12.239  0.00  0.00    +0.000 A 
ATOM     32  H   UNL     1      45.340   1.946  12.976  0.00  0.00    +0.000 HD
ENDBRANCH  19  22
ENDBRANCH   1  20
TORSDOF 6
ENDMDL
MODEL 6
REMARK VINA RESULT:    -7.454      3.292      5.063
REMARK INTER + INTRA:         -10.189
REMARK INTER:                  -9.864
REMARK INTRA:                  -0.325
REMARK UNBOUND:                -0.339
REMARK  Name = 
REMARK  6 active torsions:
REMARK  status: ('A' for Active; 'I' for Inactive)
REMARK    1  A    between atoms: C_2  and  C_20
REMARK    2  A    between atoms: N_3  and  C_4
REMARK    3  A    between atoms: C_4  and  C_5
REMARK    4  A    between atoms: C_8  and  C_9
REMARK    5  A    between atoms: C_9  and  O_10
REMARK    6  A    between atoms: C_9  and  C_11
REMARK                            x       y       z     vdW  Elec       q    Type
REMARK                         _______ _______ _______ _____ _____    ______ ____
ROOT
ATOM      1  C   UNL     1      47.104   5.661  14.261  0.00  0.00    +0.000 C 
ENDROOT
BRANCH   1   2
ATOM      2  C   UNL     1      46.319   5.138  13.089  0.00  0.00    +0.000 A 
ATOM      3  C   UNL     1      45.928   3.797  13.042  0.00  0.00    +0.000 A 
ATOM      4  C   UNL     1      45.233   3.296  11.937  0.00  0.00    +0.000 A 
ATOM      5  C   UNL     1      44.926   4.119  10.840  0.00  0.00    +0.000 A 
ATOM      6  C   UNL     1      45.295   5.471  10.910  0.00  0.00    +0.000 A 
ATOM      7  C   UNL     1      46.004   5.970  12.007  0.00  0.00    +0.000 A 
BRANCH   5   8
ATOM      8  C   UNL     1      44.161   3.528   9.663  0.00  0.00    +0.000 C 
BRANCH   8   9
ATOM      9  C   UNL     1      44.823   2.306   8.956  0.00  0.00    +0.000 C 
ATOM     10  O   UNL     1      44.457   1.141   9.130  0.00  0.00    +0.000 OA
ATOM     11  N   UNL     1      45.864   2.575   8.086  0.00  0.00    +0.000 N 
ATOM     12  C   UNL     1      46.397   3.869   7.701  0.00  0.00    +0.000 C 
ATOM     13  C   UNL     1      47.036   3.593   6.349  0.00  0.00    +0.000 C 
ATOM     14  C   UNL     1      47.567   2.170   6.488  0.00  0.00    +0.000 C 
ATOM     15  C   UNL     1      46.603   1.496   7.456  0.00  0.00    +0.000 C 
ENDBRANCH   8   9
BRANCH   8  16
ATOM     16  O   UNL     1      43.891   4.584   8.739  0.00  0.00    +0.000 OA
ATOM     17  H   UNL     1      44.693   4.680   8.197  0.00  0.00    +0.000 HD
ENDBRANCH   8  16
ENDBRANCH   5   8
ENDBRANCH   1   2
BRANCH   1  20
ATOM     18  O   UNL     1      49.691   6.672  14.761  0.00  0.00    +0.000 OA
ATOM     19  C   UNL     1      48.856   7.402  14.235  0.00  0.00    +0.000 C 
ATOM     20  N   UNL     1      47.558   7.006  14.024  0.00  0.00    +0.000 N 
ATOM     21  H   UNL     1      46.968   7.568  13.419  0.00  0.00    +0.000 HD
BRANCH  19  22
ATOM     22  C   UNL     1      49.178   8.785  13.852  0.00  0.00    +0.000 A 
ATOM     23  C   UNL     1      48.769   9.836  14.663  0.00  0.00    +0.000 A 
ATOM     24  S   UNL     1      49.190  11.373  14.055  0.00  0.00    +0.000 S 
ATOM     25  C   UNL     1      49.978  10.686  12.712  0.00  0.00    +0.000 A 
ATOM     26  N   UNL     1      50.594  11.472  11.786  0.00  0.00    +0.000 NA
ATOM     27  C   UNL     1      51.196  10.817  10.852  0.00  0.00    +0.000 A 
ATOM     28  N   UNL     1      51.236   9.450  10.751  0.00  0.00    +0.000 N 
ATOM     29  C   UNL     1      50.559   8.622  11.611  0.00  0.00    +0.000 A 
ATOM     30  O   UNL     1      50.497   7.415  11.412  0.00  0.00    +0.000 OA
ATOM     31  C   UNL     1      49.905   9.304  12.715  0.00  0.00    +0.000 A 
ATOM     32  H   UNL     1      51.703   9.004   9.976  0.00  0.00    +0.000 HD
ENDBRANCH  19  22
ENDBRANCH   1  20
TORSDOF 6
ENDMDL
MODEL 7
REMARK VINA RESULT:    -7.103      4.317      9.411
REMARK INTER + INTRA:          -9.726
REMARK INTER:                  -8.603
REMARK INTRA:                  -1.124
REMARK UNBOUND:                -0.339
REMARK  Name = 
REMARK  6 active torsions:
REMARK  status: ('A' for Active; 'I' for Inactive)
REMARK    1  A    between atoms: C_2  and  C_20
REMARK    2  A    between atoms: N_3  and  C_4
REMARK    3  A    between atoms: C_4  and  C_5
REMARK    4  A    between atoms: C_8  and  C_9
REMARK    5  A    between atoms: C_9  and  O_10
REMARK    6  A    between atoms: C_9  and  C_11
REMARK                            x       y       z     vdW  Elec       q    Type
REMARK                         _______ _______ _______ _____ _____    ______ ____
ROOT
ATOM      1  C   UNL     1      47.664   3.730  17.312  0.00  0.00    +0.000 C 
ENDROOT
BRANCH   1   2
ATOM      2  C   UNL     1      49.162   3.618  17.402  0.00  0.00    +0.000 A 
ATOM      3  C   UNL     1      49.788   2.376  17.255  0.00  0.00    +0.000 A 
ATOM      4  C   UNL     1      51.175   2.259  17.377  0.00  0.00    +0.000 A 
ATOM      5  C   UNL     1      51.974   3.379  17.667  0.00  0.00    +0.000 A 
ATOM      6  C   UNL     1      51.341   4.626  17.781  0.00  0.00    +0.000 A 
ATOM      7  C   UNL     1      49.951   4.742  17.675  0.00  0.00    +0.000 A 
BRANCH   5   8
ATOM      8  C   UNL     1      53.483   3.201  17.783  0.00  0.00    +0.000 C 
BRANCH   8   9
ATOM      9  C   UNL     1      53.975   2.198  18.870  0.00  0.00    +0.000 C 
ATOM     10  O   UNL     1      53.878   2.407  20.082  0.00  0.00    +0.000 OA
ATOM     11  N   UNL     1      54.535   1.014  18.422  0.00  0.00    +0.000 N 
ATOM     12  C   UNL     1      54.681   0.557  17.052  0.00  0.00    +0.000 C 
ATOM     13  C   UNL     1      54.762  -0.954  17.198  0.00  0.00    +0.000 C 
ATOM     14  C   UNL     1      55.501  -1.147  18.519  0.00  0.00    +0.000 C 
ATOM     15  C   UNL     1      55.107   0.064  19.356  0.00  0.00    +0.000 C 
ENDBRANCH   8   9
BRANCH   8  16
ATOM     16  O   UNL     1      54.065   4.493  17.960  0.00  0.00    +0.000 OA
ATOM     17  H   UNL     1      54.928   4.345  18.384  0.00  0.00    +0.000 HD
ENDBRANCH   8  16
ENDBRANCH   5   8
ENDBRANCH   1   2
BRANCH   1  20
ATOM     18  O   UNL     1      47.428   3.078  14.575  0.00  0.00    +0.000 OA
ATOM     19  C   UNL     1      47.119   4.205  14.949  0.00  0.00    +0.000 C 
ATOM     20  N   UNL     1      47.273   4.620  16.250  0.00  0.00    +0.000 N 
ATOM     21  H   UNL     1      46.828   5.483  16.543  0.00  0.00    +0.000 HD
BRANCH  19  22
ATOM     22  C   UNL     1      46.621   5.217  14.006  0.00  0.00    +0.000 A 
ATOM     23  C   UNL     1      45.375   5.053  13.415  0.00  0.00    +0.000 A 
ATOM     24  S   UNL     1      44.967   6.296  12.320  0.00  0.00    +0.000 S 
ATOM     25  C   UNL     1      46.420   7.124  12.635  0.00  0.00    +0.000 A 
ATOM     26  N   UNL     1      46.694   8.310  12.025  0.00  0.00    +0.000 NA
ATOM     27  C   UNL     1      47.803   8.853  12.397  0.00  0.00    +0.000 A 
ATOM     28  N   UNL     1      48.669   8.320  13.316  0.00  0.00    +0.000 N 
ATOM     29  C   UNL     1      48.476   7.088  13.891  0.00  0.00    +0.000 A 
ATOM     30  O   UNL     1      49.336   6.577  14.598  0.00  0.00    +0.000 OA
ATOM     31  C   UNL     1      47.215   6.454  13.548  0.00  0.00    +0.000 A 
ATOM     32  H   UNL     1      49.536   8.786  13.540  0.00  0.00    +0.000 HD
ENDBRANCH  19  22
ENDBRANCH   1  20
TORSDOF 6
ENDMDL
MODEL 8
REMARK VINA RESULT:    -7.057      4.860      8.524
REMARK INTER + INTRA:          -9.665
REMARK INTER:                  -8.702
REMARK INTRA:                  -0.964
REMARK UNBOUND:                -0.339
REMARK  Name = 
REMARK  6 active torsions:
REMARK  status: ('A' for Active; 'I' for Inactive)
REMARK    1  A    between atoms: C_2  and  C_20
REMARK    2  A    between atoms: N_3  and  C_4
REMARK    3  A    between atoms: C_4  and  C_5
REMARK    4  A    between atoms: C_8  and  C_9
REMARK    5  A    between atoms: C_9  and  O_10
REMARK    6  A    between atoms: C_9  and  C_11
REMARK                            x       y       z     vdW  Elec       q    Type
REMARK                         _______ _______ _______ _____ _____    ______ ____
ROOT
ATOM      1  C   UNL     1      46.131   8.272  12.901  0.00  0.00    +0.000 C 
ENDROOT
BRANCH   1   2
ATOM      2  C   UNL     1      47.531   8.515  12.407  0.00  0.00    +0.000 A 
ATOM      3  C   UNL     1      47.950   9.808  12.079  0.00  0.00    +0.000 A 
ATOM      4  C   UNL     1      49.237  10.035  11.582  0.00  0.00    +0.000 A 
ATOM      5  C   UNL     1      50.133   8.972  11.382  0.00  0.00    +0.000 A 
ATOM      6  C   UNL     1      49.715   7.682  11.743  0.00  0.00    +0.000 A 
ATOM      7  C   UNL     1      48.423   7.451  12.225  0.00  0.00    +0.000 A 
BRANCH   5   8
ATOM      8  C   UNL     1      51.527   9.271  10.844  0.00  0.00    +0.000 C 
BRANCH   8   9
ATOM      9  C   UNL     1      52.661   8.299  11.292  0.00  0.00    +0.000 C 
ATOM     10  O   UNL     1      53.084   8.236  12.449  0.00  0.00    +0.000 OA
ATOM     11  N   UNL     1      53.191   7.465  10.323  0.00  0.00    +0.000 N 
ATOM     12  C   UNL     1      52.790   7.343   8.933  0.00  0.00    +0.000 C 
ATOM     13  C   UNL     1      53.247   5.940   8.563  0.00  0.00    +0.000 C 
ATOM     14  C   UNL     1      54.528   5.756   9.371  0.00  0.00    +0.000 C 
ATOM     15  C   UNL     1      54.313   6.596  10.624  0.00  0.00    +0.000 C 
ENDBRANCH   8   9
BRANCH   8  16
ATOM     16  O   UNL     1      51.842  10.626  11.166  0.00  0.00    +0.000 OA
ATOM     17  H   UNL     1      51.581  11.156  10.393  0.00  0.00    +0.000 HD
ENDBRANCH   8  16
ENDBRANCH   5   8
ENDBRANCH   1   2
BRANCH   1  20
ATOM     18  O   UNL     1      44.014   7.575  11.169  0.00  0.00    +0.000 OA
ATOM     19  C   UNL     1      44.690   6.684  11.674  0.00  0.00    +0.000 C 
ATOM     20  N   UNL     1      45.690   6.939  12.580  0.00  0.00    +0.000 N 
ATOM     21  H   UNL     1      46.338   6.195  12.816  0.00  0.00    +0.000 HD
BRANCH  19  22
ATOM     22  C   UNL     1      44.427   5.266  11.389  0.00  0.00    +0.000 A 
ATOM     23  C   UNL     1      43.632   4.526  12.254  0.00  0.00    +0.000 A 
ATOM     24  S   UNL     1      43.461   2.891  11.797  0.00  0.00    +0.000 S 
ATOM     25  C   UNL     1      44.401   3.127  10.398  0.00  0.00    +0.000 A 
ATOM     26  N   UNL     1      44.628   2.104   9.528  0.00  0.00    +0.000 NA
ATOM     27  C   UNL     1      45.310   2.438   8.485  0.00  0.00    +0.000 A 
ATOM     28  N   UNL     1      45.793   3.696   8.232  0.00  0.00    +0.000 N 
ATOM     29  C   UNL     1      45.662   4.734   9.120  0.00  0.00    +0.000 A 
ATOM     30  O   UNL     1      46.226   5.805   8.930  0.00  0.00    +0.000 OA
ATOM     31  C   UNL     1      44.857   4.429  10.290  0.00  0.00    +0.000 A 
ATOM     32  H   UNL     1      46.345   3.880   7.407  0.00  0.00    +0.000 HD
ENDBRANCH  19  22
ENDBRANCH   1  20
TORSDOF 6
ENDMDL
MODEL 9
REMARK VINA RESULT:    -6.195      3.267      9.727
REMARK INTER + INTRA:          -8.525
REMARK INTER:                  -7.701
REMARK INTRA:                  -0.825
REMARK UNBOUND:                -0.339
REMARK  Name = 
REMARK  6 active torsions:
REMARK  status: ('A' for Active; 'I' for Inactive)
REMARK    1  A    between atoms: C_2  and  C_20
REMARK    2  A    between atoms: N_3  and  C_4
REMARK    3  A    between atoms: C_4  and  C_5
REMARK    4  A    between atoms: C_8  and  C_9
REMARK    5  A    between atoms: C_9  and  O_10
REMARK    6  A    between atoms: C_9  and  C_11
REMARK                            x       y       z     vdW  Elec       q    Type
REMARK                         _______ _______ _______ _____ _____    ______ ____
ROOT
ATOM      1  C   UNL     1      47.709   6.825  13.946  0.00  0.00    +0.000 C 
ENDROOT
BRANCH   1   2
ATOM      2  C   UNL     1      48.350   6.313  15.207  0.00  0.00    +0.000 A 
ATOM      3  C   UNL     1      47.966   5.080  15.745  0.00  0.00    +0.000 A 
ATOM      4  C   UNL     1      48.530   4.617  16.937  0.00  0.00    +0.000 A 
ATOM      5  C   UNL     1      49.481   5.383  17.634  0.00  0.00    +0.000 A 
ATOM      6  C   UNL     1      49.883   6.603  17.071  0.00  0.00    +0.000 A 
ATOM      7  C   UNL     1      49.308   7.075  15.886  0.00  0.00    +0.000 A 
BRANCH   5   8
ATOM      8  C   UNL     1      50.071   4.832  18.926  0.00  0.00    +0.000 C 
BRANCH   8   9
ATOM      9  C   UNL     1      51.501   4.218  18.822  0.00  0.00    +0.000 C 
ATOM     10  O   UNL     1      51.761   3.212  18.157  0.00  0.00    +0.000 OA
ATOM     11  N   UNL     1      52.511   4.864  19.512  0.00  0.00    +0.000 N 
ATOM     12  C   UNL     1      52.422   6.085  20.292  0.00  0.00    +0.000 C 
ATOM     13  C   UNL     1      53.847   6.614  20.272  0.00  0.00    +0.000 C 
ATOM     14  C   UNL     1      54.699   5.349  20.283  0.00  0.00    +0.000 C 
ATOM     15  C   UNL     1      53.853   4.313  19.551  0.00  0.00    +0.000 C 
ENDBRANCH   8   9
BRANCH   8  16
ATOM     16  O   UNL     1      49.139   3.898  19.473  0.00  0.00    +0.000 OA
ATOM     17  H   UNL     1      48.257   4.201  19.194  0.00  0.00    +0.000 HD
ENDBRANCH   8  16
ENDBRANCH   5   8
ENDBRANCH   1   2
BRANCH   1  20
ATOM     18  O   UNL     1      45.098   7.172  12.931  0.00  0.00    +0.000 OA
ATOM     19  C   UNL     1      45.647   6.082  12.806  0.00  0.00    +0.000 C 
ATOM     20  N   UNL     1      46.886   5.814  13.334  0.00  0.00    +0.000 N 
ATOM     21  H   UNL     1      47.371   4.972  13.040  0.00  0.00    +0.000 HD
BRANCH  19  22
ATOM     22  C   UNL     1      44.978   4.959  12.132  0.00  0.00    +0.000 A 
ATOM     23  C   UNL     1      44.174   4.096  12.866  0.00  0.00    +0.000 A 
ATOM     24  S   UNL     1      43.507   2.829  11.939  0.00  0.00    +0.000 S 
ATOM     25  C   UNL     1      44.228   3.418  10.514  0.00  0.00    +0.000 A 
ATOM     26  N   UNL     1      44.031   2.791   9.321  0.00  0.00    +0.000 NA
ATOM     27  C   UNL     1      44.592   3.376   8.317  0.00  0.00    +0.000 A 
ATOM     28  N   UNL     1      45.337   4.524   8.393  0.00  0.00    +0.000 N 
ATOM     29  C   UNL     1      45.633   5.140   9.584  0.00  0.00    +0.000 A 
ATOM     30  O   UNL     1      46.418   6.080   9.633  0.00  0.00    +0.000 OA
ATOM     31  C   UNL     1      44.984   4.554  10.744  0.00  0.00    +0.000 A 
ATOM     32  H   UNL     1      45.772   4.912   7.569  0.00  0.00    +0.000 HD
ENDBRANCH  19  22
ENDBRANCH   1  20
TORSDOF 6
ENDMDL
