MODEL 1
REMARK VINA RESULT:    -7.368      0.000      0.000
REMARK INTER + INTRA:         -11.260
REMARK INTER:                 -10.168
REMARK INTRA:                  -1.092
REMARK UNBOUND:                -1.092
REMARK  Name = 
REMARK  7 active torsions:
REMARK  status: ('A' for Active; 'I' for Inactive)
REMARK    1  A    between atoms: C_2  and  C_21
REMARK    2  A    between atoms: N_3  and  C_4
REMARK    3  A    between atoms: C_4  and  C_5
REMARK    4  A    between atoms: C_8  and  C_9
REMARK    5  A    between atoms: C_9  and  N_10
REMARK    6  A    between atoms: C_11  and  C_13
REMARK    7  A    between atoms: C_16  and  O_17
REMARK                            x       y       z     vdW  Elec       q    Type
REMARK                         _______ _______ _______ _____ _____    ______ ____
ROOT
ATOM      1  C   UNL     1      48.665   3.597  17.025  0.00  0.00    +0.000 A 
ATOM      2  C   UNL     1      49.569   2.528  17.084  0.00  0.00    +0.000 A 
ATOM      3  C   UNL     1      50.899   2.738  17.464  0.00  0.00    +0.000 A 
ATOM      4  C   UNL     1      51.349   4.017  17.814  0.00  0.00    +0.000 A 
ATOM      5  C   UNL     1      50.442   5.085  17.765  0.00  0.00    +0.000 A 
ATOM      6  C   UNL     1      49.111   4.875  17.384  0.00  0.00    +0.000 A 
ENDROOT
BRANCH   1   7
ATOM      7  C   UNL     1      47.227   3.360  16.633  0.00  0.00    +0.000 C 
BRANCH   7  10
ATOM      8  O   UNL     1      47.155   3.059  13.856  0.00  0.00    +0.000 OA
ATOM      9  C   UNL     1      46.719   4.097  14.344  0.00  0.00    +0.000 C 
ATOM     10  N   UNL     1      46.778   4.355  15.694  0.00  0.00    +0.000 N 
ATOM     11  H   UNL     1      46.220   5.111  16.072  0.00  0.00    +0.000 HD
BRANCH   9  12
ATOM     12  C   UNL     1      46.154   5.163  13.511  0.00  0.00    +0.000 A 
ATOM     13  C   UNL     1      46.880   6.320  13.265  0.00  0.00    +0.000 A 
ATOM     14  S   UNL     1      46.037   7.467  12.325  0.00  0.00    +0.000 S 
ATOM     15  C   UNL     1      44.693   6.435  12.165  0.00  0.00    +0.000 A 
ATOM     16  N   UNL     1      43.598   6.814  11.453  0.00  0.00    +0.000 NA
ATOM     17  C   UNL     1      42.671   5.917  11.386  0.00  0.00    +0.000 A 
ATOM     18  N   UNL     1      42.738   4.678  11.966  0.00  0.00    +0.000 N 
ATOM     19  C   UNL     1      43.809   4.267  12.720  0.00  0.00    +0.000 A 
ATOM     20  O   UNL     1      43.819   3.164  13.264  0.00  0.00    +0.000 OA
ATOM     21  C   UNL     1      44.882   5.236  12.827  0.00  0.00    +0.000 A 
ATOM     22  H   UNL     1      41.977   4.021  11.879  0.00  0.00    +0.000 HD
ENDBRANCH   9  12
ENDBRANCH   7  10
ENDBRANCH   1   7
BRANCH   4  23
ATOM     23  C   UNL     1      52.782   4.239  18.233  0.00  0.00    +0.000 C 
BRANCH  23  24
ATOM     24  N   UNL     1      53.626   3.116  17.897  0.00  0.00    +0.000 N 
ATOM     25  C   UNL     1      54.151   2.314  18.889  0.00  0.00    +0.000 C 
ATOM     26  O   UNL     1      53.960   2.532  20.082  0.00  0.00    +0.000 OA
ATOM     27  H   UNL     1      53.627   2.795  16.939  0.00  0.00    +0.000 HD
BRANCH  25  28
ATOM     28  C   UNL     1      55.035   1.171  18.380  0.00  0.00    +0.000 C 
ATOM     29  C   UNL     1      55.348   0.113  19.462  0.00  0.00    +0.000 C 
ATOM     30  C   UNL     1      54.773  -1.213  18.957  0.00  0.00    +0.000 C 
ATOM     31  C   UNL     1      53.728  -0.808  17.932  0.00  0.00    +0.000 C 
ATOM     32  C   UNL     1      54.371   0.386  17.240  0.00  0.00    +0.000 C 
BRANCH  31  33
ATOM     33  O   UNL     1      52.509  -0.421  18.552  0.00  0.00    +0.000 OA
ATOM     34  H   UNL     1      52.688  -0.094  19.452  0.00  0.00    +0.000 HD
ENDBRANCH  31  33
ENDBRANCH  25  28
ENDBRANCH  23  24
ENDBRANCH   4  23
TORSDOF 7
ENDMDL
MODEL 2
REMARK VINA RESULT:    -7.076      3.503      5.103
REMARK INTER + INTRA:         -10.856
REMARK INTER:                  -9.375
REMARK INTRA:                  -1.481
REMARK UNBOUND:                -1.092
REMARK  Name = 
REMARK  7 active torsions:
REMARK  status: ('A' for Active; 'I' for Inactive)
REMARK    1  A    between atoms: C_2  and  C_21
REMARK    2  A    between atoms: N_3  and  C_4
REMARK    3  A    between atoms: C_4  and  C_5
REMARK    4  A    between atoms: C_8  and  C_9
REMARK    5  A    between atoms: C_9  and  N_10
REMARK    6  A    between atoms: C_11  and  C_13
REMARK    7  A    between atoms: C_16  and  O_17
REMARK                            x       y       z     vdW  Elec       q    Type
REMARK                         _______ _______ _______ _____ _____    ______ ____
ROOT
ATOM      1  C   UNL     1      48.427   7.695  12.953  0.00  0.00    +0.000 A 
ATOM      2  C   UNL     1      49.755   8.135  12.872  0.00  0.00    +0.000 A 
ATOM      3  C   UNL     1      50.597   8.077  13.988  0.00  0.00    +0.000 A 
ATOM      4  C   UNL     1      50.136   7.558  15.204  0.00  0.00    +0.000 A 
ATOM      5  C   UNL     1      48.811   7.109  15.283  0.00  0.00    +0.000 A 
ATOM      6  C   UNL     1      47.968   7.167  14.167  0.00  0.00    +0.000 A 
ENDROOT
BRANCH   1   7
ATOM      7  C   UNL     1      47.531   7.742  11.740  0.00  0.00    +0.000 C 
BRANCH   7  10
ATOM      8  O   UNL     1      44.756   7.456  11.886  0.00  0.00    +0.000 OA
ATOM      9  C   UNL     1      45.433   6.469  11.611  0.00  0.00    +0.000 C 
ATOM     10  N   UNL     1      46.807   6.507  11.586  0.00  0.00    +0.000 N 
ATOM     11  H   UNL     1      47.310   5.743  11.149  0.00  0.00    +0.000 HD
BRANCH   9  12
ATOM     12  C   UNL     1      44.821   5.163  11.347  0.00  0.00    +0.000 A 
ATOM     13  C   UNL     1      44.001   4.569  12.296  0.00  0.00    +0.000 A 
ATOM     14  S   UNL     1      43.429   3.029  11.836  0.00  0.00    +0.000 S 
ATOM     15  C   UNL     1      44.212   3.126  10.327  0.00  0.00    +0.000 A 
ATOM     16  N   UNL     1      44.119   2.116   9.422  0.00  0.00    +0.000 NA
ATOM     17  C   UNL     1      44.732   2.341   8.307  0.00  0.00    +0.000 A 
ATOM     18  N   UNL     1      45.430   3.483   8.016  0.00  0.00    +0.000 N 
ATOM     19  C   UNL     1      45.578   4.513   8.912  0.00  0.00    +0.000 A 
ATOM     20  O   UNL     1      46.249   5.506   8.636  0.00  0.00    +0.000 OA
ATOM     21  C   UNL     1      44.906   4.313  10.181  0.00  0.00    +0.000 A 
ATOM     22  H   UNL     1      45.891   3.598   7.126  0.00  0.00    +0.000 HD
ENDBRANCH   9  12
ENDBRANCH   7  10
ENDBRANCH   1   7
BRANCH   4  23
ATOM     23  C   UNL     1      51.049   7.488  16.404  0.00  0.00    +0.000 C 
BRANCH  23  24
ATOM     24  N   UNL     1      50.707   6.394  17.284  0.00  0.00    +0.000 N 
ATOM     25  C   UNL     1      51.597   5.362  17.495  0.00  0.00    +0.000 C 
ATOM     26  O   UNL     1      52.685   5.305  16.931  0.00  0.00    +0.000 OA
ATOM     27  H   UNL     1      49.923   6.518  17.910  0.00  0.00    +0.000 HD
BRANCH  25  28
ATOM     28  C   UNL     1      51.089   4.270  18.443  0.00  0.00    +0.000 C 
ATOM     29  C   UNL     1      49.803   4.669  19.201  0.00  0.00    +0.000 C 
ATOM     30  C   UNL     1      48.725   3.660  18.796  0.00  0.00    +0.000 C 
ATOM     31  C   UNL     1      49.221   3.081  17.482  0.00  0.00    +0.000 C 
ATOM     32  C   UNL     1      50.724   2.978  17.699  0.00  0.00    +0.000 C 
BRANCH  31  33
ATOM     33  O   UNL     1      48.939   3.945  16.389  0.00  0.00    +0.000 OA
ATOM     34  H   UNL     1      48.549   3.431  15.659  0.00  0.00    +0.000 HD
ENDBRANCH  31  33
ENDBRANCH  25  28
ENDBRANCH  23  24
ENDBRANCH   4  23
TORSDOF 7
ENDMDL
MODEL 3
REMARK VINA RESULT:    -7.071      4.510      9.722
REMARK INTER + INTRA:         -10.850
REMARK INTER:                  -9.574
REMARK INTRA:                  -1.276
REMARK UNBOUND:                -1.092
REMARK  Name = 
REMARK  7 active torsions:
REMARK  status: ('A' for Active; 'I' for Inactive)
REMARK    1  A    between atoms: C_2  and  C_21
REMARK    2  A    between atoms: N_3  and  C_4
REMARK    3  A    between atoms: C_4  and  C_5
REMARK    4  A    between atoms: C_8  and  C_9
REMARK    5  A    between atoms: C_9  and  N_10
REMARK    6  A    between atoms: C_11  and  C_13
REMARK    7  A    between atoms: C_16  and  O_17
REMARK                            x       y       z     vdW  Elec       q    Type
REMARK                         _______ _______ _______ _____ _____    ______ ____
ROOT
ATOM      1  C   UNL     1      46.590   7.585  12.914  0.00  0.00    +0.000 A 
ATOM      2  C   UNL     1      45.333   7.977  12.432  0.00  0.00    +0.000 A 
ATOM      3  C   UNL     1      44.614   7.154  11.559  0.00  0.00    +0.000 A 
ATOM      4  C   UNL     1      45.124   5.911  11.166  0.00  0.00    +0.000 A 
ATOM      5  C   UNL     1      46.376   5.514  11.656  0.00  0.00    +0.000 A 
ATOM      6  C   UNL     1      47.097   6.337  12.528  0.00  0.00    +0.000 A 
ENDROOT
BRANCH   1   7
ATOM      7  C   UNL     1      47.351   8.470  13.870  0.00  0.00    +0.000 C 
BRANCH   7  10
ATOM      8  O   UNL     1      49.936   7.578  14.439  0.00  0.00    +0.000 OA
ATOM      9  C   UNL     1      49.055   7.392  15.274  0.00  0.00    +0.000 C 
ATOM     10  N   UNL     1      47.745   7.738  15.046  0.00  0.00    +0.000 N 
ATOM     11  H   UNL     1      47.103   7.768  15.830  0.00  0.00    +0.000 HD
BRANCH   9  12
ATOM     12  C   UNL     1      49.333   6.733  16.554  0.00  0.00    +0.000 A 
ATOM     13  C   UNL     1      50.101   7.370  17.518  0.00  0.00    +0.000 A 
ATOM     14  S   UNL     1      50.365   6.426  18.914  0.00  0.00    +0.000 S 
ATOM     15  C   UNL     1      49.415   5.153  18.303  0.00  0.00    +0.000 A 
ATOM     16  N   UNL     1      49.217   4.016  19.023  0.00  0.00    +0.000 NA
ATOM     17  C   UNL     1      48.445   3.152  18.452  0.00  0.00    +0.000 A 
ATOM     18  N   UNL     1      47.854   3.320  17.228  0.00  0.00    +0.000 N 
ATOM     19  C   UNL     1      48.052   4.436  16.453  0.00  0.00    +0.000 A 
ATOM     20  O   UNL     1      47.542   4.537  15.339  0.00  0.00    +0.000 OA
ATOM     21  C   UNL     1      48.911   5.442  17.049  0.00  0.00    +0.000 A 
ATOM     22  H   UNL     1      47.261   2.605  16.834  0.00  0.00    +0.000 HD
ENDBRANCH   9  12
ENDBRANCH   7  10
ENDBRANCH   1   7
BRANCH   4  23
ATOM     23  C   UNL     1      44.342   5.020  10.232  0.00  0.00    +0.000 C 
BRANCH  23  24
ATOM     24  N   UNL     1      45.018   4.831   8.969  0.00  0.00    +0.000 N 
ATOM     25  C   UNL     1      45.080   3.581   8.389  0.00  0.00    +0.000 C 
ATOM     26  O   UNL     1      44.605   2.583   8.923  0.00  0.00    +0.000 OA
ATOM     27  H   UNL     1      45.228   5.652   8.417  0.00  0.00    +0.000 HD
BRANCH  25  28
ATOM     28  C   UNL     1      45.838   3.535   7.058  0.00  0.00    +0.000 C 
ATOM     29  C   UNL     1      47.355   3.782   7.211  0.00  0.00    +0.000 C 
ATOM     30  C   UNL     1      48.058   2.520   6.704  0.00  0.00    +0.000 C 
ATOM     31  C   UNL     1      46.997   1.436   6.786  0.00  0.00    +0.000 C 
ATOM     32  C   UNL     1      45.727   2.167   6.372  0.00  0.00    +0.000 C 
BRANCH  31  33
ATOM     33  O   UNL     1      46.866   0.931   8.108  0.00  0.00    +0.000 OA
ATOM     34  H   UNL     1      46.326   0.120   8.097  0.00  0.00    +0.000 HD
ENDBRANCH  31  33
ENDBRANCH  25  28
ENDBRANCH  23  24
ENDBRANCH   4  23
TORSDOF 7
ENDMDL
MODEL 4
REMARK VINA RESULT:    -7.006      4.471      9.331
REMARK INTER + INTRA:         -10.760
REMARK INTER:                  -9.149
REMARK INTRA:                  -1.611
REMARK UNBOUND:                -1.092
REMARK  Name = 
REMARK  7 active torsions:
REMARK  status: ('A' for Active; 'I' for Inactive)
REMARK    1  A    between atoms: C_2  and  C_21
REMARK    2  A    between atoms: N_3  and  C_4
REMARK    3  A    between atoms: C_4  and  C_5
REMARK    4  A    between atoms: C_8  and  C_9
REMARK    5  A    between atoms: C_9  and  N_10
REMARK    6  A    between atoms: C_11  and  C_13
REMARK    7  A    between atoms: C_16  and  O_17
REMARK                            x       y       z     vdW  Elec       q    Type
REMARK                         _______ _______ _______ _____ _____    ______ ____
ROOT
ATOM      1  C   UNL     1      48.683   7.948  13.251  0.00  0.00    +0.000 A 
ATOM      2  C   UNL     1      47.780   8.940  13.657  0.00  0.00    +0.000 A 
ATOM      3  C   UNL     1      46.512   9.033  13.074  0.00  0.00    +0.000 A 
ATOM      4  C   UNL     1      46.110   8.123  12.088  0.00  0.00    +0.000 A 
ATOM      5  C   UNL     1      47.009   7.125  11.689  0.00  0.00    +0.000 A 
ATOM      6  C   UNL     1      48.278   7.031  12.272  0.00  0.00    +0.000 A 
ENDROOT
BRANCH   1   7
ATOM      7  C   UNL     1      50.042   7.841  13.898  0.00  0.00    +0.000 C 
BRANCH   7  10
ATOM      8  O   UNL     1      49.621   8.519  16.575  0.00  0.00    +0.000 OA
ATOM      9  C   UNL     1      49.739   7.332  16.283  0.00  0.00    +0.000 C 
ATOM     10  N   UNL     1      50.016   6.917  15.002  0.00  0.00    +0.000 N 
ATOM     11  H   UNL     1      49.890   5.939  14.767  0.00  0.00    +0.000 HD
BRANCH   9  12
ATOM     12  C   UNL     1      49.650   6.276  17.296  0.00  0.00    +0.000 A 
ATOM     13  C   UNL     1      50.376   6.372  18.475  0.00  0.00    +0.000 A 
ATOM     14  S   UNL     1      50.190   5.024  19.503  0.00  0.00    +0.000 S 
ATOM     15  C   UNL     1      49.087   4.289  18.435  0.00  0.00    +0.000 A 
ATOM     16  N   UNL     1      48.523   3.086  18.726  0.00  0.00    +0.000 NA
ATOM     17  C   UNL     1      47.677   2.667  17.844  0.00  0.00    +0.000 A 
ATOM     18  N   UNL     1      47.345   3.340  16.697  0.00  0.00    +0.000 N 
ATOM     19  C   UNL     1      47.914   4.540  16.348  0.00  0.00    +0.000 A 
ATOM     20  O   UNL     1      47.627   5.096  15.290  0.00  0.00    +0.000 OA
ATOM     21  C   UNL     1      48.871   5.058  17.307  0.00  0.00    +0.000 A 
ATOM     22  H   UNL     1      46.678   2.957  16.045  0.00  0.00    +0.000 HD
ENDBRANCH   9  12
ENDBRANCH   7  10
ENDBRANCH   1   7
BRANCH   4  23
ATOM     23  C   UNL     1      44.738   8.220  11.468  0.00  0.00    +0.000 C 
BRANCH  23  24
ATOM     24  N   UNL     1      44.347   6.990  10.818  0.00  0.00    +0.000 N 
ATOM     25  C   UNL     1      43.772   5.968  11.544  0.00  0.00    +0.000 C 
ATOM     26  O   UNL     1      43.600   6.038  12.757  0.00  0.00    +0.000 OA
ATOM     27  H   UNL     1      44.284   6.987   9.809  0.00  0.00    +0.000 HD
BRANCH  25  28
ATOM     28  C   UNL     1      43.422   4.724  10.721  0.00  0.00    +0.000 C 
ATOM     29  C   UNL     1      44.565   4.271   9.784  0.00  0.00    +0.000 C 
ATOM     30  C   UNL     1      44.953   2.855  10.221  0.00  0.00    +0.000 C 
ATOM     31  C   UNL     1      44.448   2.747  11.650  0.00  0.00    +0.000 C 
ATOM     32  C   UNL     1      43.129   3.504  11.605  0.00  0.00    +0.000 C 
BRANCH  31  33
ATOM     33  O   UNL     1      45.341   3.364  12.568  0.00  0.00    +0.000 OA
ATOM     34  H   UNL     1      45.417   2.814  13.370  0.00  0.00    +0.000 HD
ENDBRANCH  31  33
ENDBRANCH  25  28
ENDBRANCH  23  24
ENDBRANCH   4  23
TORSDOF 7
ENDMDL
MODEL 5
REMARK VINA RESULT:    -7.003      2.132      3.571
REMARK INTER + INTRA:         -10.757
REMARK INTER:                  -9.413
REMARK INTRA:                  -1.344
REMARK UNBOUND:                -1.092
REMARK  Name = 
REMARK  7 active torsions:
REMARK  status: ('A' for Active; 'I' for Inactive)
REMARK    1  A    between atoms: C_2  and  C_21
REMARK    2  A    between atoms: N_3  and  C_4
REMARK    3  A    between atoms: C_4  and  C_5
REMARK    4  A    between atoms: C_8  and  C_9
REMARK    5  A    between atoms: C_9  and  N_10
REMARK    6  A    between atoms: C_11  and  C_13
REMARK    7  A    between atoms: C_16  and  O_17
REMARK                            x       y       z     vdW  Elec       q    Type
REMARK                         _______ _______ _______ _____ _____    ______ ____
ROOT
ATOM      1  C   UNL     1      48.632   3.375  17.251  0.00  0.00    +0.000 A 
ATOM      2  C   UNL     1      49.287   4.481  17.810  0.00  0.00    +0.000 A 
ATOM      3  C   UNL     1      50.657   4.432  18.090  0.00  0.00    +0.000 A 
ATOM      4  C   UNL     1      51.406   3.285  17.798  0.00  0.00    +0.000 A 
ATOM      5  C   UNL     1      50.752   2.183  17.230  0.00  0.00    +0.000 A 
ATOM      6  C   UNL     1      49.382   2.231  16.949  0.00  0.00    +0.000 A 
ENDROOT
BRANCH   1   7
ATOM      7  C   UNL     1      47.158   3.442  16.933  0.00  0.00    +0.000 C 
BRANCH   7  10
ATOM      8  O   UNL     1      47.305   3.027  14.174  0.00  0.00    +0.000 OA
ATOM      9  C   UNL     1      46.930   4.122  14.583  0.00  0.00    +0.000 C 
ATOM     10  N   UNL     1      46.894   4.432  15.922  0.00  0.00    +0.000 N 
ATOM     11  H   UNL     1      46.380   5.254  16.219  0.00  0.00    +0.000 HD
BRANCH   9  12
ATOM     12  C   UNL     1      46.548   5.199  13.663  0.00  0.00    +0.000 A 
ATOM     13  C   UNL     1      47.438   6.224  13.376  0.00  0.00    +0.000 A 
ATOM     14  S   UNL     1      46.797   7.413  12.334  0.00  0.00    +0.000 S 
ATOM     15  C   UNL     1      45.326   6.569  12.184  0.00  0.00    +0.000 A 
ATOM     16  N   UNL     1      44.319   7.048  11.406  0.00  0.00    +0.000 NA
ATOM     17  C   UNL     1      43.276   6.287  11.355  0.00  0.00    +0.000 A 
ATOM     18  N   UNL     1      43.149   5.091  12.013  0.00  0.00    +0.000 N 
ATOM     19  C   UNL     1      44.126   4.587  12.834  0.00  0.00    +0.000 A 
ATOM     20  O   UNL     1      43.963   3.532  13.444  0.00  0.00    +0.000 OA
ATOM     21  C   UNL     1      45.322   5.402  12.925  0.00  0.00    +0.000 A 
ATOM     22  H   UNL     1      42.306   4.543  11.935  0.00  0.00    +0.000 HD
ENDBRANCH   9  12
ENDBRANCH   7  10
ENDBRANCH   1   7
BRANCH   4  23
ATOM     23  C   UNL     1      52.885   3.239  18.093  0.00  0.00    +0.000 C 
BRANCH  23  24
ATOM     24  N   UNL     1      53.608   4.287  17.410  0.00  0.00    +0.000 N 
ATOM     25  C   UNL     1      54.214   5.299  18.124  0.00  0.00    +0.000 C 
ATOM     26  O   UNL     1      54.142   5.377  19.347  0.00  0.00    +0.000 OA
ATOM     27  H   UNL     1      53.858   4.136  16.442  0.00  0.00    +0.000 HD
BRANCH  25  28
ATOM     28  C   UNL     1      54.933   6.342  17.262  0.00  0.00    +0.000 C 
ATOM     29  C   UNL     1      55.268   5.834  15.842  0.00  0.00    +0.000 C 
ATOM     30  C   UNL     1      54.527   6.749  14.863  0.00  0.00    +0.000 C 
ATOM     31  C   UNL     1      53.415   7.371  15.692  0.00  0.00    +0.000 C 
ATOM     32  C   UNL     1      54.082   7.601  17.042  0.00  0.00    +0.000 C 
BRANCH  31  33
ATOM     33  O   UNL     1      52.310   6.488  15.832  0.00  0.00    +0.000 OA
ATOM     34  H   UNL     1      51.663   6.869  16.453  0.00  0.00    +0.000 HD
ENDBRANCH  31  33
ENDBRANCH  25  28
ENDBRANCH  23  24
ENDBRANCH   4  23
TORSDOF 7
ENDMDL
MODEL 6
REMARK VINA RESULT:    -6.744      7.392      8.282
REMARK INTER + INTRA:         -10.399
REMARK INTER:                  -9.179
REMARK INTRA:                  -1.220
REMARK UNBOUND:                -1.092
REMARK  Name = 
REMARK  7 active torsions:
REMARK  status: ('A' for Active; 'I' for Inactive)
REMARK    1  A    between atoms: C_2  and  C_21
REMARK    2  A    between atoms: N_3  and  C_4
REMARK    3  A    between atoms: C_4  and  C_5
REMARK    4  A    between atoms: C_8  and  C_9
REMARK    5  A    between atoms: C_9  and  N_10
REMARK    6  A    between atoms: C_11  and  C_13
REMARK    7  A    between atoms: C_16  and  O_17
REMARK                            x       y       z     vdW  Elec       q    Type
REMARK                         _______ _______ _______ _____ _____    ______ ____
ROOT
ATOM      1  C   UNL     1      47.683   8.435  12.223  0.00  0.00    +0.000 A 
ATOM      2  C   UNL     1      48.261   9.712  12.235  0.00  0.00    +0.000 A 
ATOM      3  C   UNL     1      49.610   9.889  11.912  0.00  0.00    +0.000 A 
ATOM      4  C   UNL     1      50.407   8.796  11.548  0.00  0.00    +0.000 A 
ATOM      5  C   UNL     1      49.826   7.520  11.525  0.00  0.00    +0.000 A 
ATOM      6  C   UNL     1      48.476   7.343  11.849  0.00  0.00    +0.000 A 
ENDROOT
BRANCH   1   7
ATOM      7  C   UNL     1      46.221   8.255  12.554  0.00  0.00    +0.000 C 
BRANCH   7  10
ATOM      8  O   UNL     1      43.876   7.506  11.234  0.00  0.00    +0.000 OA
ATOM      9  C   UNL     1      44.657   6.626  11.586  0.00  0.00    +0.000 C 
ATOM     10  N   UNL     1      45.799   6.903  12.300  0.00  0.00    +0.000 N 
ATOM     11  H   UNL     1      46.512   6.186  12.378  0.00  0.00    +0.000 HD
BRANCH   9  12
ATOM     12  C   UNL     1      44.393   5.209  11.318  0.00  0.00    +0.000 A 
ATOM     13  C   UNL     1      43.582   4.473  12.170  0.00  0.00    +0.000 A 
ATOM     14  S   UNL     1      43.440   2.832  11.729  0.00  0.00    +0.000 S 
ATOM     15  C   UNL     1      44.412   3.059  10.350  0.00  0.00    +0.000 A 
ATOM     16  N   UNL     1      44.685   2.028   9.507  0.00  0.00    +0.000 NA
ATOM     17  C   UNL     1      45.403   2.353   8.483  0.00  0.00    +0.000 A 
ATOM     18  N   UNL     1      45.874   3.614   8.227  0.00  0.00    +0.000 N 
ATOM     19  C   UNL     1      45.650   4.676   9.068  0.00  0.00    +0.000 A 
ATOM     20  O   UNL     1      46.124   5.785   8.832  0.00  0.00    +0.000 OA
ATOM     21  C   UNL     1      44.845   4.366  10.234  0.00  0.00    +0.000 A 
ATOM     22  H   UNL     1      46.434   3.804   7.410  0.00  0.00    +0.000 HD
ENDBRANCH   9  12
ENDBRANCH   7  10
ENDBRANCH   1   7
BRANCH   4  23
ATOM     23  C   UNL     1      51.860   8.990  11.190  0.00  0.00    +0.000 C 
BRANCH  23  24
ATOM     24  N   UNL     1      52.116   8.723   9.793  0.00  0.00    +0.000 N 
ATOM     25  C   UNL     1      53.131   7.868   9.419  0.00  0.00    +0.000 C 
ATOM     26  O   UNL     1      53.874   7.331  10.236  0.00  0.00    +0.000 OA
ATOM     27  H   UNL     1      51.402   8.978   9.124  0.00  0.00    +0.000 HD
BRANCH  25  28
ATOM     28  C   UNL     1      53.288   7.692   7.905  0.00  0.00    +0.000 C 
ATOM     29  C   UNL     1      54.743   7.404   7.472  0.00  0.00    +0.000 C 
ATOM     30  C   UNL     1      54.734   6.031   6.794  0.00  0.00    +0.000 C 
ATOM     31  C   UNL     1      53.473   5.360   7.313  0.00  0.00    +0.000 C 
ATOM     32  C   UNL     1      52.473   6.506   7.370  0.00  0.00    +0.000 C 
BRANCH  31  33
ATOM     33  O   UNL     1      53.668   4.810   8.609  0.00  0.00    +0.000 OA
ATOM     34  H   UNL     1      53.957   3.883   8.531  0.00  0.00    +0.000 HD
ENDBRANCH  31  33
ENDBRANCH  25  28
ENDBRANCH  23  24
ENDBRANCH   4  23
TORSDOF 7
ENDMDL
MODEL 7
REMARK VINA RESULT:    -6.739      7.090     10.573
REMARK INTER + INTRA:         -10.392
REMARK INTER:                  -9.194
REMARK INTRA:                  -1.197
REMARK UNBOUND:                -1.092
REMARK  Name = 
REMARK  7 active torsions:
REMARK  status: ('A' for Active; 'I' for Inactive)
REMARK    1  A    between atoms: C_2  and  C_21
REMARK    2  A    between atoms: N_3  and  C_4
REMARK    3  A    between atoms: C_4  and  C_5
REMARK    4  A    between atoms: C_8  and  C_9
REMARK    5  A    between atoms: C_9  and  N_10
REMARK    6  A    between atoms: C_11  and  C_13
REMARK    7  A    between atoms: C_16  and  O_17
REMARK                            x       y       z     vdW  Elec       q    Type
REMARK                         _______ _______ _______ _____ _____    ______ ____
ROOT
ATOM      1  C   UNL     1      50.070   8.519  11.906  0.00  0.00    +0.000 A 
ATOM      2  C   UNL     1      49.554   7.237  12.143  0.00  0.00    +0.000 A 
ATOM      3  C   UNL     1      48.190   7.051  12.388  0.00  0.00    +0.000 A 
ATOM      4  C   UNL     1      47.307   8.138  12.381  0.00  0.00    +0.000 A 
ATOM      5  C   UNL     1      47.821   9.418  12.134  0.00  0.00    +0.000 A 
ATOM      6  C   UNL     1      49.187   9.606  11.889  0.00  0.00    +0.000 A 
ENDROOT
BRANCH   1   7
ATOM      7  C   UNL     1      51.540   8.710  11.623  0.00  0.00    +0.000 C 
BRANCH   7  10
ATOM      8  O   UNL     1      53.441   9.901   9.958  0.00  0.00    +0.000 OA
ATOM      9  C   UNL     1      52.863   8.894   9.560  0.00  0.00    +0.000 C 
ATOM     10  N   UNL     1      51.866   8.286  10.287  0.00  0.00    +0.000 N 
ATOM     11  H   UNL     1      51.574   7.350  10.027  0.00  0.00    +0.000 HD
BRANCH   9  12
ATOM     12  C   UNL     1      53.157   8.303   8.251  0.00  0.00    +0.000 A 
ATOM     13  C   UNL     1      53.223   9.104   7.119  0.00  0.00    +0.000 A 
ATOM     14  S   UNL     1      53.517   8.232   5.683  0.00  0.00    +0.000 S 
ATOM     15  C   UNL     1      53.622   6.759   6.530  0.00  0.00    +0.000 A 
ATOM     16  N   UNL     1      53.872   5.591   5.879  0.00  0.00    +0.000 NA
ATOM     17  C   UNL     1      53.962   4.560   6.652  0.00  0.00    +0.000 A 
ATOM     18  N   UNL     1      53.822   4.589   8.015  0.00  0.00    +0.000 N 
ATOM     19  C   UNL     1      53.536   5.739   8.708  0.00  0.00    +0.000 A 
ATOM     20  O   UNL     1      53.372   5.723   9.927  0.00  0.00    +0.000 OA
ATOM     21  C   UNL     1      53.427   6.930   7.888  0.00  0.00    +0.000 A 
ATOM     22  H   UNL     1      53.900   3.746   8.563  0.00  0.00    +0.000 HD
ENDBRANCH   9  12
ENDBRANCH   7  10
ENDBRANCH   1   7
BRANCH   4  23
ATOM     23  C   UNL     1      45.834   7.933  12.636  0.00  0.00    +0.000 C 
BRANCH  23  24
ATOM     24  N   UNL     1      45.233   7.049  11.664  0.00  0.00    +0.000 N 
ATOM     25  C   UNL     1      44.388   6.036  12.068  0.00  0.00    +0.000 C 
ATOM     26  O   UNL     1      44.138   5.819  13.249  0.00  0.00    +0.000 OA
ATOM     27  H   UNL     1      45.252   7.330  10.693  0.00  0.00    +0.000 HD
BRANCH  25  28
ATOM     28  C   UNL     1      43.837   5.176  10.926  0.00  0.00    +0.000 C 
ATOM     29  C   UNL     1      44.942   4.554  10.043  0.00  0.00    +0.000 C 
ATOM     30  C   UNL     1      44.787   3.034  10.153  0.00  0.00    +0.000 C 
ATOM     31  C   UNL     1      44.011   2.825  11.443  0.00  0.00    +0.000 C 
ATOM     32  C   UNL     1      43.021   3.981  11.438  0.00  0.00    +0.000 C 
BRANCH  31  33
ATOM     33  O   UNL     1      44.857   2.904  12.582  0.00  0.00    +0.000 OA
ATOM     34  H   UNL     1      45.671   3.388  12.352  0.00  0.00    +0.000 HD
ENDBRANCH  31  33
ENDBRANCH  25  28
ENDBRANCH  23  24
ENDBRANCH   4  23
TORSDOF 7
ENDMDL
MODEL 8
REMARK VINA RESULT:    -6.674      4.676     10.084
REMARK INTER + INTRA:         -10.302
REMARK INTER:                  -9.298
REMARK INTRA:                  -1.003
REMARK UNBOUND:                -1.092
REMARK  Name = 
REMARK  7 active torsions:
REMARK  status: ('A' for Active; 'I' for Inactive)
REMARK    1  A    between atoms: C_2  and  C_21
REMARK    2  A    between atoms: N_3  and  C_4
REMARK    3  A    between atoms: C_4  and  C_5
REMARK    4  A    between atoms: C_8  and  C_9
REMARK    5  A    between atoms: C_9  and  N_10
REMARK    6  A    between atoms: C_11  and  C_13
REMARK    7  A    between atoms: C_16  and  O_17
REMARK                            x       y       z     vdW  Elec       q    Type
REMARK                         _______ _______ _______ _____ _____    ______ ____
ROOT
ATOM      1  C   UNL     1      46.642   6.080  12.885  0.00  0.00    +0.000 A 
ATOM      2  C   UNL     1      46.510   6.612  11.596  0.00  0.00    +0.000 A 
ATOM      3  C   UNL     1      45.674   6.004  10.653  0.00  0.00    +0.000 A 
ATOM      4  C   UNL     1      44.933   4.863  10.986  0.00  0.00    +0.000 A 
ATOM      5  C   UNL     1      45.057   4.336  12.279  0.00  0.00    +0.000 A 
ATOM      6  C   UNL     1      45.894   4.944  13.222  0.00  0.00    +0.000 A 
ENDROOT
BRANCH   1   7
ATOM      7  C   UNL     1      47.531   6.753  13.902  0.00  0.00    +0.000 C 
BRANCH   7  10
ATOM      8  O   UNL     1      49.846   6.435  15.433  0.00  0.00    +0.000 OA
ATOM      9  C   UNL     1      48.809   5.906  15.822  0.00  0.00    +0.000 C 
ATOM     10  N   UNL     1      47.643   5.955  15.096  0.00  0.00    +0.000 N 
ATOM     11  H   UNL     1      46.773   5.699  15.549  0.00  0.00    +0.000 HD
BRANCH   9  12
ATOM     12  C   UNL     1      48.759   5.132  17.067  0.00  0.00    +0.000 A 
ATOM     13  C   UNL     1      48.490   3.771  17.036  0.00  0.00    +0.000 A 
ATOM     14  S   UNL     1      48.415   3.056  18.583  0.00  0.00    +0.000 S 
ATOM     15  C   UNL     1      48.795   4.529  19.347  0.00  0.00    +0.000 A 
ATOM     16  N   UNL     1      48.901   4.611  20.700  0.00  0.00    +0.000 NA
ATOM     17  C   UNL     1      49.230   5.781  21.138  0.00  0.00    +0.000 A 
ATOM     18  N   UNL     1      49.462   6.875  20.347  0.00  0.00    +0.000 N 
ATOM     19  C   UNL     1      49.335   6.845  18.981  0.00  0.00    +0.000 A 
ATOM     20  O   UNL     1      49.507   7.857  18.303  0.00  0.00    +0.000 OA
ATOM     21  C   UNL     1      48.968   5.553  18.434  0.00  0.00    +0.000 A 
ATOM     22  H   UNL     1      49.715   7.764  20.751  0.00  0.00    +0.000 HD
ENDBRANCH   9  12
ENDBRANCH   7  10
ENDBRANCH   1   7
BRANCH   4  23
ATOM     23  C   UNL     1      44.025   4.214   9.971  0.00  0.00    +0.000 C 
BRANCH  23  24
ATOM     24  N   UNL     1      44.622   4.171   8.656  0.00  0.00    +0.000 N 
ATOM     25  C   UNL     1      45.320   3.056   8.241  0.00  0.00    +0.000 C 
ATOM     26  O   UNL     1      45.495   2.081   8.965  0.00  0.00    +0.000 OA
ATOM     27  H   UNL     1      44.322   4.857   7.977  0.00  0.00    +0.000 HD
BRANCH  25  28
ATOM     28  C   UNL     1      45.905   3.163   6.829  0.00  0.00    +0.000 C 
ATOM     29  C   UNL     1      47.329   3.762   6.801  0.00  0.00    +0.000 C 
ATOM     30  C   UNL     1      48.244   2.690   6.203  0.00  0.00    +0.000 C 
ATOM     31  C   UNL     1      47.485   1.389   6.403  0.00  0.00    +0.000 C 
ATOM     32  C   UNL     1      46.039   1.793   6.149  0.00  0.00    +0.000 C 
BRANCH  31  33
ATOM     33  O   UNL     1      47.634   0.894   7.727  0.00  0.00    +0.000 OA
ATOM     34  H   UNL     1      46.890   1.200   8.277  0.00  0.00    +0.000 HD
ENDBRANCH  31  33
ENDBRANCH  25  28
ENDBRANCH  23  24
ENDBRANCH   4  23
TORSDOF 7
ENDMDL
MODEL 9
REMARK VINA RESULT:    -6.112      5.622      9.739
REMARK INTER + INTRA:          -9.527
REMARK INTER:                  -8.553
REMARK INTRA:                  -0.974
REMARK UNBOUND:                -1.092
REMARK  Name = 
REMARK  7 active torsions:
REMARK  status: ('A' for Active; 'I' for Inactive)
REMARK    1  A    between atoms: C_2  and  C_21
REMARK    2  A    between atoms: N_3  and  C_4
REMARK    3  A    between atoms: C_4  and  C_5
REMARK    4  A    between atoms: C_8  and  C_9
REMARK    5  A    between atoms: C_9  and  N_10
REMARK    6  A    between atoms: C_11  and  C_13
REMARK    7  A    between atoms: C_16  and  O_17
REMARK                            x       y       z     vdW  Elec       q    Type
REMARK                         _______ _______ _______ _____ _____    ______ ____
ROOT
ATOM      1  C   UNL     1      46.733   5.432  13.347  0.00  0.00    +0.000 A 
ATOM      2  C   UNL     1      46.466   6.375  12.344  0.00  0.00    +0.000 A 
ATOM      3  C   UNL     1      45.591   6.074  11.295  0.00  0.00    +0.000 A 
ATOM      4  C   UNL     1      44.945   4.833  11.237  0.00  0.00    +0.000 A 
ATOM      5  C   UNL     1      45.204   3.894  12.246  0.00  0.00    +0.000 A 
ATOM      6  C   UNL     1      46.080   4.194  13.295  0.00  0.00    +0.000 A 
ENDROOT
BRANCH   1   7
ATOM      7  C   UNL     1      47.663   5.771  14.486  0.00  0.00    +0.000 C 
BRANCH   7  10
ATOM      8  O   UNL     1      49.899   6.563  15.961  0.00  0.00    +0.000 OA
ATOM      9  C   UNL     1      49.721   7.063  14.854  0.00  0.00    +0.000 C 
ATOM     10  N   UNL     1      48.612   6.780  14.092  0.00  0.00    +0.000 N 
ATOM     11  H   UNL     1      48.614   7.039  13.112  0.00  0.00    +0.000 HD
BRANCH   9  12
ATOM     12  C   UNL     1      50.655   8.043  14.292  0.00  0.00    +0.000 A 
ATOM     13  C   UNL     1      52.022   7.900  14.486  0.00  0.00    +0.000 A 
ATOM     14  S   UNL     1      52.943   9.166  13.809  0.00  0.00    +0.000 S 
ATOM     15  C   UNL     1      51.552   9.922  13.184  0.00  0.00    +0.000 A 
ATOM     16  N   UNL     1      51.640  11.076  12.470  0.00  0.00    +0.000 NA
ATOM     17  C   UNL     1      50.510  11.516  12.026  0.00  0.00    +0.000 A 
ATOM     18  N   UNL     1      49.299  10.908  12.232  0.00  0.00    +0.000 N 
ATOM     19  C   UNL     1      49.160   9.761  12.973  0.00  0.00    +0.000 A 
ATOM     20  O   UNL     1      48.053   9.265  13.176  0.00  0.00    +0.000 OA
ATOM     21  C   UNL     1      50.401   9.222  13.494  0.00  0.00    +0.000 A 
ATOM     22  H   UNL     1      48.449  11.304  11.860  0.00  0.00    +0.000 HD
ENDBRANCH   9  12
ENDBRANCH   7  10
ENDBRANCH   1   7
BRANCH   4  23
ATOM     23  C   UNL     1      43.994   4.514  10.110  0.00  0.00    +0.000 C 
BRANCH  23  24
ATOM     24  N   UNL     1      44.671   4.423   8.837  0.00  0.00    +0.000 N 
ATOM     25  C   UNL     1      45.143   3.210   8.381  0.00  0.00    +0.000 C 
ATOM     26  O   UNL     1      45.043   2.177   9.036  0.00  0.00    +0.000 OA
ATOM     27  H   UNL     1      44.581   5.200   8.197  0.00  0.00    +0.000 HD
BRANCH  25  28
ATOM     28  C   UNL     1      45.847   3.273   7.022  0.00  0.00    +0.000 C 
ATOM     29  C   UNL     1      47.343   3.646   7.127  0.00  0.00    +0.000 C 
ATOM     30  C   UNL     1      48.130   2.467   6.549  0.00  0.00    +0.000 C 
ATOM     31  C   UNL     1      47.170   1.292   6.632  0.00  0.00    +0.000 C 
ATOM     32  C   UNL     1      45.827   1.923   6.292  0.00  0.00    +0.000 C 
BRANCH  31  33
ATOM     33  O   UNL     1      47.136   0.735   7.939  0.00  0.00    +0.000 OA
ATOM     34  H   UNL     1      47.255   1.442   8.600  0.00  0.00    +0.000 HD
ENDBRANCH  31  33
ENDBRANCH  25  28
ENDBRANCH  23  24
ENDBRANCH   4  23
TORSDOF 7
ENDMDL
