MODEL 1
REMARK VINA RESULT:    -9.032      0.000      0.000
REMARK INTER + INTRA:         -12.791
REMARK INTER:                 -11.936
REMARK INTRA:                  -0.855
REMARK UNBOUND:                -0.855
REMARK  Name = 
REMARK  7 active torsions:
REMARK  status: ('A' for Active; 'I' for Inactive)
REMARK    1  A    between atoms: C_1  and  C_2
REMARK    2  A    between atoms: C_2  and  N_3
REMARK    3  A    between atoms: C_2  and  C_19
REMARK    4  A    between atoms: C_7  and  C_8
REMARK    5  A    between atoms: C_8  and  O_9
REMARK    6  A    between atoms: C_8  and  C_10
REMARK    7  A    between atoms: C_10  and  C_11
REMARK                            x       y       z     vdW  Elec       q    Type
REMARK                         _______ _______ _______ _____ _____    ______ ____
ROOT
ATOM      1  N   UNL     1      47.325   5.083  15.241  0.00  0.00    +0.000 N 
ATOM      2  C   UNL     1      46.548   4.642  14.170  0.00  0.00    +0.000 A 
ATOM      3  C   UNL     1      45.694   5.579  13.603  0.00  0.00    +0.000 A 
ATOM      4  C   UNL     1      44.863   5.212  12.552  0.00  0.00    +0.000 A 
ATOM      5  C   UNL     1      44.934   3.921  12.029  0.00  0.00    +0.000 A 
ATOM      6  C   UNL     1      45.849   3.061  12.633  0.00  0.00    +0.000 A 
ATOM      7  N   UNL     1      46.643   3.392  13.687  0.00  0.00    +0.000 NA
ATOM      8  H   UNL     1      48.050   5.685  14.858  0.00  0.00    +0.000 HD
ENDROOT
BRANCH   1  10
ATOM      9  C   UNL     1      46.825   3.643  17.168  0.00  0.00    +0.000 C 
ATOM     10  C   UNL     1      47.900   4.100  16.166  0.00  0.00    +0.000 C 
BRANCH  10  11
ATOM     11  C   UNL     1      49.064   4.711  16.945  0.00  0.00    +0.000 A 
ATOM     12  C   UNL     1      49.114   6.042  17.340  0.00  0.00    +0.000 A 
ATOM     13  S   UNL     1      50.540   6.445  18.182  0.00  0.00    +0.000 S 
ATOM     14  C   UNL     1      51.120   4.849  18.079  0.00  0.00    +0.000 A 
ATOM     15  N   UNL     1      52.313   4.497  18.631  0.00  0.00    +0.000 NA
ATOM     16  C   UNL     1      52.610   3.247  18.491  0.00  0.00    +0.000 A 
ATOM     17  N   UNL     1      51.831   2.321  17.846  0.00  0.00    +0.000 N 
ATOM     18  C   UNL     1      50.622   2.629  17.266  0.00  0.00    +0.000 A 
ATOM     19  O   UNL     1      49.941   1.780  16.700  0.00  0.00    +0.000 OA
ATOM     20  C   UNL     1      50.244   4.023  17.401  0.00  0.00    +0.000 A 
ATOM     21  H   UNL     1      52.122   1.357  17.776  0.00  0.00    +0.000 HD
ENDBRANCH  10  11
ENDBRANCH   1  10
BRANCH   5  22
ATOM     22  C   UNL     1      44.014   3.427  10.932  0.00  0.00    +0.000 C 
BRANCH  22  23
ATOM     23  O   UNL     1      42.672   3.632  11.385  0.00  0.00    +0.000 OA
ATOM     24  H   UNL     1      42.079   3.115  10.815  0.00  0.00    +0.000 HD
ENDBRANCH  22  23
BRANCH  22  25
ATOM     25  C   UNL     1      44.220   4.143   9.586  0.00  0.00    +0.000 C 
BRANCH  25  26
ATOM     26  C   UNL     1      45.236   3.463   8.706  0.00  0.00    +0.000 A 
ATOM     27  C   UNL     1      45.449   2.089   8.825  0.00  0.00    +0.000 A 
ATOM     28  C   UNL     1      46.369   1.476   7.983  0.00  0.00    +0.000 A 
ATOM     29  C   UNL     1      47.048   2.245   7.046  0.00  0.00    +0.000 A 
ATOM     30  C   UNL     1      46.775   3.603   6.998  0.00  0.00    +0.000 A 
ATOM     31  N   UNL     1      45.885   4.228   7.799  0.00  0.00    +0.000 NA
ENDBRANCH  25  26
ENDBRANCH  22  25
ENDBRANCH   5  22
TORSDOF 6
ENDMDL
MODEL 2
REMARK VINA RESULT:    -7.922      1.880      2.317
REMARK INTER + INTRA:         -11.324
REMARK INTER:                 -10.533
REMARK INTRA:                  -0.792
REMARK UNBOUND:                -0.855
REMARK  Name = 
REMARK  7 active torsions:
REMARK  status: ('A' for Active; 'I' for Inactive)
REMARK    1  A    between atoms: C_1  and  C_2
REMARK    2  A    between atoms: C_2  and  N_3
REMARK    3  A    between atoms: C_2  and  C_19
REMARK    4  A    between atoms: C_7  and  C_8
REMARK    5  A    between atoms: C_8  and  O_9
REMARK    6  A    between atoms: C_8  and  C_10
REMARK    7  A    between atoms: C_10  and  C_11
REMARK                            x       y       z     vdW  Elec       q    Type
REMARK                         _______ _______ _______ _____ _____    ______ ____
ROOT
ATOM      1  N   UNL     1      47.598   4.914  14.988  0.00  0.00    +0.000 N 
ATOM      2  C   UNL     1      46.622   4.660  14.023  0.00  0.00    +0.000 A 
ATOM      3  C   UNL     1      46.600   3.375  13.496  0.00  0.00    +0.000 A 
ATOM      4  C   UNL     1      45.679   3.049  12.508  0.00  0.00    +0.000 A 
ATOM      5  C   UNL     1      44.742   3.994  12.092  0.00  0.00    +0.000 A 
ATOM      6  C   UNL     1      44.813   5.244  12.705  0.00  0.00    +0.000 A 
ATOM      7  N   UNL     1      45.731   5.592  13.647  0.00  0.00    +0.000 NA
ATOM      8  H   UNL     1      47.305   4.443  15.841  0.00  0.00    +0.000 HD
ENDROOT
BRANCH   1  10
ATOM      9  C   UNL     1      48.629   6.918  14.011  0.00  0.00    +0.000 C 
ATOM     10  C   UNL     1      47.990   6.300  15.267  0.00  0.00    +0.000 C 
BRANCH  10  11
ATOM     11  C   UNL     1      49.006   6.352  16.407  0.00  0.00    +0.000 A 
ATOM     12  C   UNL     1      50.214   7.033  16.332  0.00  0.00    +0.000 A 
ATOM     13  S   UNL     1      51.152   6.906  17.750  0.00  0.00    +0.000 S 
ATOM     14  C   UNL     1      49.960   5.968  18.522  0.00  0.00    +0.000 A 
ATOM     15  N   UNL     1      50.127   5.531  19.800  0.00  0.00    +0.000 NA
ATOM     16  C   UNL     1      49.130   4.849  20.258  0.00  0.00    +0.000 A 
ATOM     17  N   UNL     1      47.987   4.559  19.557  0.00  0.00    +0.000 N 
ATOM     18  C   UNL     1      47.774   4.972  18.262  0.00  0.00    +0.000 A 
ATOM     19  O   UNL     1      46.740   4.705  17.660  0.00  0.00    +0.000 OA
ATOM     20  C   UNL     1      48.868   5.746  17.705  0.00  0.00    +0.000 A 
ATOM     21  H   UNL     1      47.243   4.023  19.978  0.00  0.00    +0.000 HD
ENDBRANCH  10  11
ENDBRANCH   1  10
BRANCH   5  22
ATOM     22  C   UNL     1      43.755   3.735  10.973  0.00  0.00    +0.000 C 
BRANCH  22  23
ATOM     23  O   UNL     1      42.475   4.189  11.427  0.00  0.00    +0.000 OA
ATOM     24  H   UNL     1      42.259   3.712  12.244  0.00  0.00    +0.000 HD
ENDBRANCH  22  23
BRANCH  22  25
ATOM     25  C   UNL     1      44.117   4.442   9.656  0.00  0.00    +0.000 C 
BRANCH  25  26
ATOM     26  C   UNL     1      45.120   3.678   8.834  0.00  0.00    +0.000 A 
ATOM     27  C   UNL     1      45.206   2.290   8.955  0.00  0.00    +0.000 A 
ATOM     28  C   UNL     1      46.117   1.600   8.164  0.00  0.00    +0.000 A 
ATOM     29  C   UNL     1      46.915   2.309   7.275  0.00  0.00    +0.000 A 
ATOM     30  C   UNL     1      46.766   3.685   7.220  0.00  0.00    +0.000 A 
ATOM     31  N   UNL     1      45.887   4.384   7.972  0.00  0.00    +0.000 NA
ENDBRANCH  25  26
ENDBRANCH  22  25
ENDBRANCH   5  22
TORSDOF 6
ENDMDL
MODEL 3
REMARK VINA RESULT:    -7.856      2.171      2.877
REMARK INTER + INTRA:         -11.237
REMARK INTER:                 -10.692
REMARK INTRA:                  -0.546
REMARK UNBOUND:                -0.855
REMARK  Name = 
REMARK  7 active torsions:
REMARK  status: ('A' for Active; 'I' for Inactive)
REMARK    1  A    between atoms: C_1  and  C_2
REMARK    2  A    between atoms: C_2  and  N_3
REMARK    3  A    between atoms: C_2  and  C_19
REMARK    4  A    between atoms: C_7  and  C_8
REMARK    5  A    between atoms: C_8  and  O_9
REMARK    6  A    between atoms: C_8  and  C_10
REMARK    7  A    between atoms: C_10  and  C_11
REMARK                            x       y       z     vdW  Elec       q    Type
REMARK                         _______ _______ _______ _____ _____    ______ ____
ROOT
ATOM      1  N   UNL     1      47.639   5.983  14.524  0.00  0.00    +0.000 N 
ATOM      2  C   UNL     1      46.735   5.411  13.628  0.00  0.00    +0.000 A 
ATOM      3  C   UNL     1      46.609   4.029  13.682  0.00  0.00    +0.000 A 
ATOM      4  C   UNL     1      45.753   3.378  12.802  0.00  0.00    +0.000 A 
ATOM      5  C   UNL     1      44.978   4.119  11.910  0.00  0.00    +0.000 A 
ATOM      6  C   UNL     1      45.141   5.502  11.955  0.00  0.00    +0.000 A 
ATOM      7  N   UNL     1      46.001   6.154  12.783  0.00  0.00    +0.000 NA
ATOM      8  H   UNL     1      47.214   5.941  15.447  0.00  0.00    +0.000 HD
ENDROOT
BRANCH   1  10
ATOM      9  C   UNL     1      49.470   7.216  13.444  0.00  0.00    +0.000 C 
ATOM     10  C   UNL     1      48.166   7.326  14.255  0.00  0.00    +0.000 C 
BRANCH  10  11
ATOM     11  C   UNL     1      48.466   8.058  15.563  0.00  0.00    +0.000 A 
ATOM     12  C   UNL     1      48.162   9.395  15.785  0.00  0.00    +0.000 A 
ATOM     13  S   UNL     1      48.624   9.946  17.330  0.00  0.00    +0.000 S 
ATOM     14  C   UNL     1      49.212   8.409  17.765  0.00  0.00    +0.000 A 
ATOM     15  N   UNL     1      49.741   8.181  18.998  0.00  0.00    +0.000 NA
ATOM     16  C   UNL     1      50.125   6.962  19.189  0.00  0.00    +0.000 A 
ATOM     17  N   UNL     1      50.037   5.955  18.262  0.00  0.00    +0.000 N 
ATOM     18  C   UNL     1      49.518   6.138  17.001  0.00  0.00    +0.000 A 
ATOM     19  O   UNL     1      49.444   5.218  16.193  0.00  0.00    +0.000 OA
ATOM     20  C   UNL     1      49.068   7.492  16.741  0.00  0.00    +0.000 A 
ATOM     21  H   UNL     1      50.353   5.022  18.479  0.00  0.00    +0.000 HD
ENDBRANCH  10  11
ENDBRANCH   1  10
BRANCH   5  22
ATOM     22  C   UNL     1      44.076   3.478  10.876  0.00  0.00    +0.000 C 
BRANCH  22  23
ATOM     23  O   UNL     1      42.731   3.622  11.343  0.00  0.00    +0.000 OA
ATOM     24  H   UNL     1      42.306   2.750  11.309  0.00  0.00    +0.000 HD
ENDBRANCH  22  23
BRANCH  22  25
ATOM     25  C   UNL     1      44.206   4.099   9.475  0.00  0.00    +0.000 C 
BRANCH  25  26
ATOM     26  C   UNL     1      45.252   3.426   8.626  0.00  0.00    +0.000 A 
ATOM     27  C   UNL     1      45.488   2.058   8.769  0.00  0.00    +0.000 A 
ATOM     28  C   UNL     1      46.435   1.450   7.954  0.00  0.00    +0.000 A 
ATOM     29  C   UNL     1      47.119   2.219   7.020  0.00  0.00    +0.000 A 
ATOM     30  C   UNL     1      46.824   3.570   6.947  0.00  0.00    +0.000 A 
ATOM     31  N   UNL     1      45.906   4.190   7.721  0.00  0.00    +0.000 NA
ENDBRANCH  25  26
ENDBRANCH  22  25
ENDBRANCH   5  22
TORSDOF 6
ENDMDL
MODEL 4
REMARK VINA RESULT:    -7.663      1.834      2.252
REMARK INTER + INTRA:         -10.982
REMARK INTER:                 -10.062
REMARK INTRA:                  -0.920
REMARK UNBOUND:                -0.855
REMARK  Name = 
REMARK  7 active torsions:
REMARK  status: ('A' for Active; 'I' for Inactive)
REMARK    1  A    between atoms: C_1  and  C_2
REMARK    2  A    between atoms: C_2  and  N_3
REMARK    3  A    between atoms: C_2  and  C_19
REMARK    4  A    between atoms: C_7  and  C_8
REMARK    5  A    between atoms: C_8  and  O_9
REMARK    6  A    between atoms: C_8  and  C_10
REMARK    7  A    between atoms: C_10  and  C_11
REMARK                            x       y       z     vdW  Elec       q    Type
REMARK                         _______ _______ _______ _____ _____    ______ ____
ROOT
ATOM      1  N   UNL     1      48.389   7.362  13.864  0.00  0.00    +0.000 N 
ATOM      2  C   UNL     1      47.435   6.534  13.270  0.00  0.00    +0.000 A 
ATOM      3  C   UNL     1      47.133   6.800  11.941  0.00  0.00    +0.000 A 
ATOM      4  C   UNL     1      46.171   6.041  11.285  0.00  0.00    +0.000 A 
ATOM      5  C   UNL     1      45.558   4.976  11.944  0.00  0.00    +0.000 A 
ATOM      6  C   UNL     1      45.953   4.758  13.262  0.00  0.00    +0.000 A 
ATOM      7  N   UNL     1      46.865   5.514  13.932  0.00  0.00    +0.000 NA
ATOM      8  H   UNL     1      49.294   7.098  13.483  0.00  0.00    +0.000 HD
ENDROOT
BRANCH   1  10
ATOM      9  C   UNL     1      48.257   8.924  15.756  0.00  0.00    +0.000 C 
ATOM     10  C   UNL     1      48.447   7.458  15.327  0.00  0.00    +0.000 C 
BRANCH  10  11
ATOM     11  C   UNL     1      49.800   6.970  15.844  0.00  0.00    +0.000 A 
ATOM     12  C   UNL     1      51.005   7.604  15.569  0.00  0.00    +0.000 A 
ATOM     13  S   UNL     1      52.352   6.827  16.267  0.00  0.00    +0.000 S 
ATOM     14  C   UNL     1      51.368   5.641  16.988  0.00  0.00    +0.000 A 
ATOM     15  N   UNL     1      51.902   4.659  17.762  0.00  0.00    +0.000 NA
ATOM     16  C   UNL     1      51.030   3.845  18.258  0.00  0.00    +0.000 A 
ATOM     17  N   UNL     1      49.676   3.918  18.047  0.00  0.00    +0.000 N 
ATOM     18  C   UNL     1      49.089   4.888  17.267  0.00  0.00    +0.000 A 
ATOM     19  O   UNL     1      47.875   4.935  17.100  0.00  0.00    +0.000 OA
ATOM     20  C   UNL     1      50.031   5.829  16.690  0.00  0.00    +0.000 A 
ATOM     21  H   UNL     1      49.049   3.251  18.469  0.00  0.00    +0.000 HD
ENDBRANCH  10  11
ENDBRANCH   1  10
BRANCH   5  22
ATOM     22  C   UNL     1      44.453   4.150  11.319  0.00  0.00    +0.000 C 
BRANCH  22  23
ATOM     23  O   UNL     1      43.252   4.436  12.044  0.00  0.00    +0.000 OA
ATOM     24  H   UNL     1      43.490   4.955  12.829  0.00  0.00    +0.000 HD
ENDBRANCH  22  23
BRANCH  22  25
ATOM     25  C   UNL     1      44.237   4.441   9.825  0.00  0.00    +0.000 C 
BRANCH  25  26
ATOM     26  C   UNL     1      45.166   3.661   8.932  0.00  0.00    +0.000 A 
ATOM     27  C   UNL     1      45.274   2.277   9.081  0.00  0.00    +0.000 A 
ATOM     28  C   UNL     1      46.114   1.573   8.227  0.00  0.00    +0.000 A 
ATOM     29  C   UNL     1      46.819   2.263   7.249  0.00  0.00    +0.000 A 
ATOM     30  C   UNL     1      46.654   3.636   7.173  0.00  0.00    +0.000 A 
ATOM     31  N   UNL     1      45.842   4.349   7.984  0.00  0.00    +0.000 NA
ENDBRANCH  25  26
ENDBRANCH  22  25
ENDBRANCH   5  22
TORSDOF 6
ENDMDL
MODEL 5
REMARK VINA RESULT:    -7.202      2.534      3.424
REMARK INTER + INTRA:         -10.372
REMARK INTER:                  -9.874
REMARK INTRA:                  -0.498
REMARK UNBOUND:                -0.855
REMARK  Name = 
REMARK  7 active torsions:
REMARK  status: ('A' for Active; 'I' for Inactive)
REMARK    1  A    between atoms: C_1  and  C_2
REMARK    2  A    between atoms: C_2  and  N_3
REMARK    3  A    between atoms: C_2  and  C_19
REMARK    4  A    between atoms: C_7  and  C_8
REMARK    5  A    between atoms: C_8  and  O_9
REMARK    6  A    between atoms: C_8  and  C_10
REMARK    7  A    between atoms: C_10  and  C_11
REMARK                            x       y       z     vdW  Elec       q    Type
REMARK                         _______ _______ _______ _____ _____    ______ ____
ROOT
ATOM      1  N   UNL     1      47.154   5.099  14.819  0.00  0.00    +0.000 N 
ATOM      2  C   UNL     1      46.458   4.951  13.618  0.00  0.00    +0.000 A 
ATOM      3  C   UNL     1      46.139   3.651  13.249  0.00  0.00    +0.000 A 
ATOM      4  C   UNL     1      45.474   3.416  12.052  0.00  0.00    +0.000 A 
ATOM      5  C   UNL     1      45.075   4.489  11.256  0.00  0.00    +0.000 A 
ATOM      6  C   UNL     1      45.402   5.760  11.726  0.00  0.00    +0.000 A 
ATOM      7  N   UNL     1      46.086   6.007  12.876  0.00  0.00    +0.000 NA
ATOM      8  H   UNL     1      46.494   4.922  15.572  0.00  0.00    +0.000 HD
ENDROOT
BRANCH   1  10
ATOM      9  C   UNL     1      48.915   6.560  13.924  0.00  0.00    +0.000 C 
ATOM     10  C   UNL     1      47.909   6.333  15.067  0.00  0.00    +0.000 C 
BRANCH  10  11
ATOM     11  C   UNL     1      48.679   6.237  16.383  0.00  0.00    +0.000 A 
ATOM     12  C   UNL     1      49.136   5.042  16.923  0.00  0.00    +0.000 A 
ATOM     13  S   UNL     1      49.951   5.239  18.408  0.00  0.00    +0.000 S 
ATOM     14  C   UNL     1      49.751   6.928  18.359  0.00  0.00    +0.000 A 
ATOM     15  N   UNL     1      50.247   7.724  19.345  0.00  0.00    +0.000 NA
ATOM     16  C   UNL     1      50.036   8.986  19.160  0.00  0.00    +0.000 A 
ATOM     17  N   UNL     1      49.371   9.523  18.087  0.00  0.00    +0.000 N 
ATOM     18  C   UNL     1      48.846   8.760  17.069  0.00  0.00    +0.000 A 
ATOM     19  O   UNL     1      48.262   9.266  16.117  0.00  0.00    +0.000 OA
ATOM     20  C   UNL     1      49.062   7.334  17.232  0.00  0.00    +0.000 A 
ATOM     21  H   UNL     1      49.244  10.520  18.002  0.00  0.00    +0.000 HD
ENDBRANCH  10  11
ENDBRANCH   1  10
BRANCH   5  22
ATOM     22  C   UNL     1      44.410   4.309   9.907  0.00  0.00    +0.000 C 
BRANCH  22  23
ATOM     23  O   UNL     1      43.281   5.190   9.874  0.00  0.00    +0.000 OA
ATOM     24  H   UNL     1      42.679   4.881   9.178  0.00  0.00    +0.000 HD
ENDBRANCH  22  23
BRANCH  22  25
ATOM     25  C   UNL     1      45.336   4.612   8.718  0.00  0.00    +0.000 C 
BRANCH  25  26
ATOM     26  C   UNL     1      45.942   3.373   8.113  0.00  0.00    +0.000 A 
ATOM     27  C   UNL     1      46.827   3.484   7.040  0.00  0.00    +0.000 A 
ATOM     28  C   UNL     1      47.398   2.330   6.517  0.00  0.00    +0.000 A 
ATOM     29  C   UNL     1      47.074   1.100   7.076  0.00  0.00    +0.000 A 
ATOM     30  C   UNL     1      46.185   1.081   8.137  0.00  0.00    +0.000 A 
ATOM     31  N   UNL     1      45.616   2.184   8.672  0.00  0.00    +0.000 NA
ENDBRANCH  25  26
ENDBRANCH  22  25
ENDBRANCH   5  22
TORSDOF 6
ENDMDL
MODEL 6
REMARK VINA RESULT:    -6.798      3.474      3.994
REMARK INTER + INTRA:          -9.838
REMARK INTER:                  -8.846
REMARK INTRA:                  -0.992
REMARK UNBOUND:                -0.855
REMARK  Name = 
REMARK  7 active torsions:
REMARK  status: ('A' for Active; 'I' for Inactive)
REMARK    1  A    between atoms: C_1  and  C_2
REMARK    2  A    between atoms: C_2  and  N_3
REMARK    3  A    between atoms: C_2  and  C_19
REMARK    4  A    between atoms: C_7  and  C_8
REMARK    5  A    between atoms: C_8  and  O_9
REMARK    6  A    between atoms: C_8  and  C_10
REMARK    7  A    between atoms: C_10  and  C_11
REMARK                            x       y       z     vdW  Elec       q    Type
REMARK                         _______ _______ _______ _____ _____    ______ ____
ROOT
ATOM      1  N   UNL     1      47.384   8.116  13.061  0.00  0.00    +0.000 N 
ATOM      2  C   UNL     1      46.770   6.904  12.745  0.00  0.00    +0.000 A 
ATOM      3  C   UNL     1      45.587   6.985  12.021  0.00  0.00    +0.000 A 
ATOM      4  C   UNL     1      44.897   5.825  11.692  0.00  0.00    +0.000 A 
ATOM      5  C   UNL     1      45.425   4.581  12.036  0.00  0.00    +0.000 A 
ATOM      6  C   UNL     1      46.636   4.595  12.725  0.00  0.00    +0.000 A 
ATOM      7  N   UNL     1      47.306   5.721  13.089  0.00  0.00    +0.000 NA
ATOM      8  H   UNL     1      47.797   8.476  12.205  0.00  0.00    +0.000 HD
ENDROOT
BRANCH   1  10
ATOM      9  C   UNL     1      47.921   9.245  15.177  0.00  0.00    +0.000 C 
ATOM     10  C   UNL     1      48.350   8.167  14.165  0.00  0.00    +0.000 C 
BRANCH  10  11
ATOM     11  C   UNL     1      49.744   8.513  13.644  0.00  0.00    +0.000 A 
ATOM     12  C   UNL     1      49.975   9.327  12.542  0.00  0.00    +0.000 A 
ATOM     13  S   UNL     1      51.630   9.526  12.185  0.00  0.00    +0.000 S 
ATOM     14  C   UNL     1      52.091   8.564  13.510  0.00  0.00    +0.000 A 
ATOM     15  N   UNL     1      53.403   8.340  13.794  0.00  0.00    +0.000 NA
ATOM     16  C   UNL     1      53.598   7.609  14.842  0.00  0.00    +0.000 A 
ATOM     17  N   UNL     1      52.606   7.076  15.625  0.00  0.00    +0.000 N 
ATOM     18  C   UNL     1      51.267   7.267  15.375  0.00  0.00    +0.000 A 
ATOM     19  O   UNL     1      50.399   6.785  16.095  0.00  0.00    +0.000 OA
ATOM     20  C   UNL     1      50.998   8.087  14.208  0.00  0.00    +0.000 A 
ATOM     21  H   UNL     1      52.828   6.515  16.433  0.00  0.00    +0.000 HD
ENDBRANCH  10  11
ENDBRANCH   1  10
BRANCH   5  22
ATOM     22  C   UNL     1      44.697   3.279  11.773  0.00  0.00    +0.000 C 
BRANCH  22  23
ATOM     23  O   UNL     1      43.736   3.115  12.821  0.00  0.00    +0.000 OA
ATOM     24  H   UNL     1      43.162   3.898  12.829  0.00  0.00    +0.000 HD
ENDBRANCH  22  23
BRANCH  22  25
ATOM     25  C   UNL     1      43.987   3.234  10.410  0.00  0.00    +0.000 C 
BRANCH  25  26
ATOM     26  C   UNL     1      44.930   2.986   9.262  0.00  0.00    +0.000 A 
ATOM     27  C   UNL     1      45.299   4.041   8.426  0.00  0.00    +0.000 A 
ATOM     28  C   UNL     1      46.195   3.797   7.392  0.00  0.00    +0.000 A 
ATOM     29  C   UNL     1      46.699   2.514   7.220  0.00  0.00    +0.000 A 
ATOM     30  C   UNL     1      46.278   1.526   8.095  0.00  0.00    +0.000 A 
ATOM     31  N   UNL     1      45.412   1.731   9.112  0.00  0.00    +0.000 NA
ENDBRANCH  25  26
ENDBRANCH  22  25
ENDBRANCH   5  22
TORSDOF 6
ENDMDL
MODEL 7
REMARK VINA RESULT:    -6.785      2.693      3.651
REMARK INTER + INTRA:          -9.821
REMARK INTER:                  -9.088
REMARK INTRA:                  -0.733
REMARK UNBOUND:                -0.855
REMARK  Name = 
REMARK  7 active torsions:
REMARK  status: ('A' for Active; 'I' for Inactive)
REMARK    1  A    between atoms: C_1  and  C_2
REMARK    2  A    between atoms: C_2  and  N_3
REMARK    3  A    between atoms: C_2  and  C_19
REMARK    4  A    between atoms: C_7  and  C_8
REMARK    5  A    between atoms: C_8  and  O_9
REMARK    6  A    between atoms: C_8  and  C_10
REMARK    7  A    between atoms: C_10  and  C_11
REMARK                            x       y       z     vdW  Elec       q    Type
REMARK                         _______ _______ _______ _____ _____    ______ ____
ROOT
ATOM      1  N   UNL     1      49.674   5.955  16.599  0.00  0.00    +0.000 N 
ATOM      2  C   UNL     1      48.790   6.298  15.575  0.00  0.00    +0.000 A 
ATOM      3  C   UNL     1      48.785   7.632  15.188  0.00  0.00    +0.000 A 
ATOM      4  C   UNL     1      47.912   8.062  14.198  0.00  0.00    +0.000 A 
ATOM      5  C   UNL     1      47.086   7.142  13.552  0.00  0.00    +0.000 A 
ATOM      6  C   UNL     1      47.187   5.819  13.978  0.00  0.00    +0.000 A 
ATOM      7  N   UNL     1      48.009   5.386  14.972  0.00  0.00    +0.000 NA
ATOM      8  H   UNL     1      50.610   5.964  16.201  0.00  0.00    +0.000 HD
ENDROOT
BRANCH   1  10
ATOM      9  C   UNL     1      48.434   4.999  18.492  0.00  0.00    +0.000 C 
ATOM     10  C   UNL     1      49.446   4.725  17.365  0.00  0.00    +0.000 C 
BRANCH  10  11
ATOM     11  C   UNL     1      50.750   4.230  17.990  0.00  0.00    +0.000 A 
ATOM     12  C   UNL     1      51.516   4.982  18.870  0.00  0.00    +0.000 A 
ATOM     13  S   UNL     1      52.926   4.180  19.395  0.00  0.00    +0.000 S 
ATOM     14  C   UNL     1      52.539   2.790  18.493  0.00  0.00    +0.000 A 
ATOM     15  N   UNL     1      53.342   1.692  18.514  0.00  0.00    +0.000 NA
ATOM     16  C   UNL     1      52.909   0.708  17.797  0.00  0.00    +0.000 A 
ATOM     17  N   UNL     1      51.754   0.723  17.056  0.00  0.00    +0.000 N 
ATOM     18  C   UNL     1      50.914   1.811  16.997  0.00  0.00    +0.000 A 
ATOM     19  O   UNL     1      49.883   1.796  16.333  0.00  0.00    +0.000 OA
ATOM     20  C   UNL     1      51.358   2.941  17.791  0.00  0.00    +0.000 A 
ATOM     21  H   UNL     1      51.472  -0.083  16.521  0.00  0.00    +0.000 HD
ENDBRANCH  10  11
ENDBRANCH   1  10
BRANCH   5  22
ATOM     22  C   UNL     1      46.060   7.546  12.513  0.00  0.00    +0.000 C 
BRANCH  22  23
ATOM     23  O   UNL     1      46.366   8.888  12.120  0.00  0.00    +0.000 OA
ATOM     24  H   UNL     1      46.966   8.850  11.359  0.00  0.00    +0.000 HD
ENDBRANCH  22  23
BRANCH  22  25
ATOM     25  C   UNL     1      46.047   6.635  11.274  0.00  0.00    +0.000 C 
BRANCH  25  26
ATOM     26  C   UNL     1      44.975   5.579  11.331  0.00  0.00    +0.000 A 
ATOM     27  C   UNL     1      45.313   4.235  11.169  0.00  0.00    +0.000 A 
ATOM     28  C   UNL     1      44.313   3.274  11.256  0.00  0.00    +0.000 A 
ATOM     29  C   UNL     1      43.007   3.677  11.502  0.00  0.00    +0.000 A 
ATOM     30  C   UNL     1      42.759   5.031  11.648  0.00  0.00    +0.000 A 
ATOM     31  N   UNL     1      43.709   5.990  11.573  0.00  0.00    +0.000 NA
ENDBRANCH  25  26
ENDBRANCH  22  25
ENDBRANCH   5  22
TORSDOF 6
ENDMDL
MODEL 8
REMARK VINA RESULT:    -6.287      5.432      8.698
REMARK INTER + INTRA:          -9.163
REMARK INTER:                  -8.142
REMARK INTRA:                  -1.021
REMARK UNBOUND:                -0.855
REMARK  Name = 
REMARK  7 active torsions:
REMARK  status: ('A' for Active; 'I' for Inactive)
REMARK    1  A    between atoms: C_1  and  C_2
REMARK    2  A    between atoms: C_2  and  N_3
REMARK    3  A    between atoms: C_2  and  C_19
REMARK    4  A    between atoms: C_7  and  C_8
REMARK    5  A    between atoms: C_8  and  O_9
REMARK    6  A    between atoms: C_8  and  C_10
REMARK    7  A    between atoms: C_10  and  C_11
REMARK                            x       y       z     vdW  Elec       q    Type
REMARK                         _______ _______ _______ _____ _____    ______ ____
ROOT
ATOM      1  N   UNL     1      47.067   6.315  12.761  0.00  0.00    +0.000 N 
ATOM      2  C   UNL     1      48.251   7.036  12.600  0.00  0.00    +0.000 A 
ATOM      3  C   UNL     1      49.027   7.206  13.739  0.00  0.00    +0.000 A 
ATOM      4  C   UNL     1      50.206   7.938  13.670  0.00  0.00    +0.000 A 
ATOM      5  C   UNL     1      50.637   8.447  12.445  0.00  0.00    +0.000 A 
ATOM      6  C   UNL     1      49.816   8.191  11.349  0.00  0.00    +0.000 A 
ATOM      7  N   UNL     1      48.640   7.510  11.404  0.00  0.00    +0.000 NA
ATOM      8  H   UNL     1      47.324   5.338  12.875  0.00  0.00    +0.000 HD
ENDROOT
BRANCH   1  10
ATOM      9  C   UNL     1      45.029   7.573  12.212  0.00  0.00    +0.000 C 
ATOM     10  C   UNL     1      45.996   6.460  11.769  0.00  0.00    +0.000 C 
BRANCH  10  11
ATOM     11  C   UNL     1      45.209   5.157  11.633  0.00  0.00    +0.000 A 
ATOM     12  C   UNL     1      44.483   4.583  12.669  0.00  0.00    +0.000 A 
ATOM     13  S   UNL     1      43.718   3.123  12.231  0.00  0.00    +0.000 S 
ATOM     14  C   UNL     1      44.302   3.229  10.636  0.00  0.00    +0.000 A 
ATOM     15  N   UNL     1      43.992   2.283   9.709  0.00  0.00    +0.000 NA
ATOM     16  C   UNL     1      44.490   2.509   8.538  0.00  0.00    +0.000 A 
ATOM     17  N   UNL     1      45.273   3.587   8.211  0.00  0.00    +0.000 N 
ATOM     18  C   UNL     1      45.619   4.566   9.114  0.00  0.00    +0.000 A 
ATOM     19  O   UNL     1      46.315   5.524   8.793  0.00  0.00    +0.000 OA
ATOM     20  C   UNL     1      45.079   4.356  10.444  0.00  0.00    +0.000 A 
ATOM     21  H   UNL     1      45.626   3.706   7.274  0.00  0.00    +0.000 HD
ENDBRANCH  10  11
ENDBRANCH   1  10
BRANCH   5  22
ATOM     22  C   UNL     1      51.873   9.311  12.304  0.00  0.00    +0.000 C 
BRANCH  22  23
ATOM     23  O   UNL     1      52.757   8.959  13.373  0.00  0.00    +0.000 OA
ATOM     24  H   UNL     1      53.649   8.856  13.004  0.00  0.00    +0.000 HD
ENDBRANCH  22  23
BRANCH  22  25
ATOM     25  C   UNL     1      52.596   9.138  10.957  0.00  0.00    +0.000 C 
BRANCH  25  26
ATOM     26  C   UNL     1      53.334   7.830  10.849  0.00  0.00    +0.000 A 
ATOM     27  C   UNL     1      52.856   6.830  10.000  0.00  0.00    +0.000 A 
ATOM     28  C   UNL     1      53.569   5.642   9.892  0.00  0.00    +0.000 A 
ATOM     29  C   UNL     1      54.736   5.483  10.629  0.00  0.00    +0.000 A 
ATOM     30  C   UNL     1      55.137   6.525  11.448  0.00  0.00    +0.000 A 
ATOM     31  N   UNL     1      54.469   7.693  11.572  0.00  0.00    +0.000 NA
ENDBRANCH  25  26
ENDBRANCH  22  25
ENDBRANCH   5  22
TORSDOF 6
ENDMDL
MODEL 9
REMARK VINA RESULT:    -6.046      2.586      8.944
REMARK INTER + INTRA:          -8.844
REMARK INTER:                  -8.236
REMARK INTRA:                  -0.609
REMARK UNBOUND:                -0.855
REMARK  Name = 
REMARK  7 active torsions:
REMARK  status: ('A' for Active; 'I' for Inactive)
REMARK    1  A    between atoms: C_1  and  C_2
REMARK    2  A    between atoms: C_2  and  N_3
REMARK    3  A    between atoms: C_2  and  C_19
REMARK    4  A    between atoms: C_7  and  C_8
REMARK    5  A    between atoms: C_8  and  O_9
REMARK    6  A    between atoms: C_8  and  C_10
REMARK    7  A    between atoms: C_10  and  C_11
REMARK                            x       y       z     vdW  Elec       q    Type
REMARK                         _______ _______ _______ _____ _____    ______ ____
ROOT
ATOM      1  N   UNL     1      45.732   4.558  13.641  0.00  0.00    +0.000 N 
ATOM      2  C   UNL     1      46.720   4.859  14.579  0.00  0.00    +0.000 A 
ATOM      3  C   UNL     1      46.836   3.983  15.651  0.00  0.00    +0.000 A 
ATOM      4  C   UNL     1      47.775   4.228  16.645  0.00  0.00    +0.000 A 
ATOM      5  C   UNL     1      48.639   5.317  16.532  0.00  0.00    +0.000 A 
ATOM      6  C   UNL     1      48.477   6.117  15.403  0.00  0.00    +0.000 A 
ATOM      7  N   UNL     1      47.539   5.915  14.439  0.00  0.00    +0.000 NA
ATOM      8  H   UNL     1      46.060   3.760  13.105  0.00  0.00    +0.000 HD
ENDROOT
BRANCH   1  10
ATOM      9  C   UNL     1      43.748   5.876  13.034  0.00  0.00    +0.000 C 
ATOM     10  C   UNL     1      45.239   5.616  12.751  0.00  0.00    +0.000 C 
BRANCH  10  11
ATOM     11  C   UNL     1      45.393   5.203  11.288  0.00  0.00    +0.000 A 
ATOM     12  C   UNL     1      46.050   5.971  10.335  0.00  0.00    +0.000 A 
ATOM     13  S   UNL     1      46.053   5.266   8.783  0.00  0.00    +0.000 S 
ATOM     14  C   UNL     1      45.209   3.897   9.341  0.00  0.00    +0.000 A 
ATOM     15  N   UNL     1      44.898   2.872   8.501  0.00  0.00    +0.000 NA
ATOM     16  C   UNL     1      44.275   1.894   9.072  0.00  0.00    +0.000 A 
ATOM     17  N   UNL     1      43.930   1.849  10.399  0.00  0.00    +0.000 N 
ATOM     18  C   UNL     1      44.216   2.862  11.284  0.00  0.00    +0.000 A 
ATOM     19  O   UNL     1      43.901   2.794  12.468  0.00  0.00    +0.000 OA
ATOM     20  C   UNL     1      44.919   3.983  10.689  0.00  0.00    +0.000 A 
ATOM     21  H   UNL     1      43.446   1.051  10.782  0.00  0.00    +0.000 HD
ENDBRANCH  10  11
ENDBRANCH   1  10
BRANCH   5  22
ATOM     22  C   UNL     1      49.639   5.687  17.608  0.00  0.00    +0.000 C 
BRANCH  22  23
ATOM     23  O   UNL     1      49.363   4.859  18.742  0.00  0.00    +0.000 OA
ATOM     24  H   UNL     1      50.047   5.026  19.411  0.00  0.00    +0.000 HD
ENDBRANCH  22  23
BRANCH  22  25
ATOM     25  C   UNL     1      51.104   5.502  17.177  0.00  0.00    +0.000 C 
BRANCH  25  26
ATOM     26  C   UNL     1      51.639   4.127  17.483  0.00  0.00    +0.000 A 
ATOM     27  C   UNL     1      52.824   3.987  18.205  0.00  0.00    +0.000 A 
ATOM     28  C   UNL     1      53.283   2.710  18.504  0.00  0.00    +0.000 A 
ATOM     29  C   UNL     1      52.551   1.610  18.076  0.00  0.00    +0.000 A 
ATOM     30  C   UNL     1      51.386   1.840  17.363  0.00  0.00    +0.000 A 
ATOM     31  N   UNL     1      50.911   3.068  17.061  0.00  0.00    +0.000 NA
ENDBRANCH  25  26
ENDBRANCH  22  25
ENDBRANCH   5  22
TORSDOF 6
ENDMDL
