MODEL 1
REMARK VINA RESULT:    -8.739      0.000      0.000
REMARK INTER + INTRA:         -12.257
REMARK INTER:                 -11.294
REMARK INTRA:                  -0.963
REMARK UNBOUND:                -0.963
REMARK  Name = 
REMARK  6 active torsions:
REMARK  status: ('A' for Active; 'I' for Inactive)
REMARK    1  A    between atoms: C_1  and  C_2
REMARK    2  A    between atoms: C_2  and  N_3
REMARK    3  A    between atoms: C_2  and  C_16
REMARK    4  A    between atoms: C_4  and  C_6
REMARK    5  A    between atoms: C_19  and  C_20
REMARK    6  A    between atoms: C_20  and  C_21
REMARK                            x       y       z     vdW  Elec       q    Type
REMARK                         _______ _______ _______ _____ _____    ______ ____
ROOT
ATOM      1  C   UNL     1      45.359   8.700  12.897  0.00  0.00    +0.000 C 
ATOM      2  C   UNL     1      46.490   7.672  12.752  0.00  0.00    +0.000 C 
ENDROOT
BRANCH   2   3
ATOM      3  C   UNL     1      45.986   6.520  11.900  0.00  0.00    +0.000 A 
ATOM      4  C   UNL     1      46.448   6.382  10.586  0.00  0.00    +0.000 A 
ATOM      5  C   UNL     1      45.916   5.402   9.750  0.00  0.00    +0.000 A 
ATOM      6  C   UNL     1      44.936   4.510  10.216  0.00  0.00    +0.000 A 
ATOM      7  C   UNL     1      44.488   4.637  11.533  0.00  0.00    +0.000 A 
ATOM      8  C   UNL     1      44.995   5.640  12.359  0.00  0.00    +0.000 A 
BRANCH   6   9
ATOM      9  C   UNL     1      44.354   3.429   9.336  0.00  0.00    +0.000 C 
BRANCH   9  10
ATOM     10  C   UNL     1      45.273   2.874   8.269  0.00  0.00    +0.000 A 
ATOM     11  C   UNL     1      45.880   1.635   8.453  0.00  0.00    +0.000 A 
ATOM     12  C   UNL     1      46.911   1.255   7.601  0.00  0.00    +0.000 A 
ATOM     13  C   UNL     1      47.288   2.102   6.568  0.00  0.00    +0.000 A 
ATOM     14  C   UNL     1      46.595   3.290   6.412  0.00  0.00    +0.000 A 
ATOM     15  N   UNL     1      45.605   3.697   7.240  0.00  0.00    +0.000 NA
ENDBRANCH   9  10
ENDBRANCH   6   9
ENDBRANCH   2   3
BRANCH   2  16
ATOM     16  N   UNL     1      46.992   7.186  14.025  0.00  0.00    +0.000 N 
ATOM     17  C   UNL     1      48.270   6.705  14.155  0.00  0.00    +0.000 C 
ATOM     18  O   UNL     1      49.061   6.673  13.219  0.00  0.00    +0.000 OA
ATOM     19  H   UNL     1      46.300   6.845  14.681  0.00  0.00    +0.000 HD
BRANCH  17  20
ATOM     20  C   UNL     1      48.682   6.280  15.487  0.00  0.00    +0.000 A 
ATOM     21  C   UNL     1      49.678   6.984  16.150  0.00  0.00    +0.000 A 
ATOM     22  S   UNL     1      50.091   6.314  17.660  0.00  0.00    +0.000 S 
ATOM     23  C   UNL     1      48.970   5.049  17.463  0.00  0.00    +0.000 A 
ATOM     24  N   UNL     1      48.859   4.057  18.387  0.00  0.00    +0.000 NA
ATOM     25  C   UNL     1      47.995   3.146  18.090  0.00  0.00    +0.000 A 
ATOM     26  N   UNL     1      47.212   3.147  16.961  0.00  0.00    +0.000 N 
ATOM     27  C   UNL     1      47.245   4.157  16.031  0.00  0.00    +0.000 A 
ATOM     28  O   UNL     1      46.470   4.189  15.086  0.00  0.00    +0.000 OA
ATOM     29  C   UNL     1      48.251   5.171  16.290  0.00  0.00    +0.000 A 
ATOM     30  H   UNL     1      46.525   2.423  16.811  0.00  0.00    +0.000 HD
ENDBRANCH  17  20
ENDBRANCH   2  16
TORSDOF 5
ENDMDL
MODEL 2
REMARK VINA RESULT:    -7.851      1.984      2.621
REMARK INTER + INTRA:         -11.109
REMARK INTER:                 -10.157
REMARK INTRA:                  -0.952
REMARK UNBOUND:                -0.963
REMARK  Name = 
REMARK  6 active torsions:
REMARK  status: ('A' for Active; 'I' for Inactive)
REMARK    1  A    between atoms: C_1  and  C_2
REMARK    2  A    between atoms: C_2  and  N_3
REMARK    3  A    between atoms: C_2  and  C_16
REMARK    4  A    between atoms: C_4  and  C_6
REMARK    5  A    between atoms: C_19  and  C_20
REMARK    6  A    between atoms: C_20  and  C_21
REMARK                            x       y       z     vdW  Elec       q    Type
REMARK                         _______ _______ _______ _____ _____    ______ ____
ROOT
ATOM      1  C   UNL     1      49.228   8.266  13.354  0.00  0.00    +0.000 C 
ATOM      2  C   UNL     1      48.749   6.918  13.912  0.00  0.00    +0.000 C 
ENDROOT
BRANCH   2   3
ATOM      3  C   UNL     1      47.605   6.419  13.046  0.00  0.00    +0.000 A 
ATOM      4  C   UNL     1      46.909   5.265  13.422  0.00  0.00    +0.000 A 
ATOM      5  C   UNL     1      45.932   4.726  12.586  0.00  0.00    +0.000 A 
ATOM      6  C   UNL     1      45.599   5.347  11.371  0.00  0.00    +0.000 A 
ATOM      7  C   UNL     1      46.282   6.509  11.004  0.00  0.00    +0.000 A 
ATOM      8  C   UNL     1      47.284   7.029  11.824  0.00  0.00    +0.000 A 
BRANCH   6   9
ATOM      9  C   UNL     1      44.534   4.792  10.454  0.00  0.00    +0.000 C 
BRANCH   9  10
ATOM     10  C   UNL     1      45.020   3.882   9.346  0.00  0.00    +0.000 A 
ATOM     11  C   UNL     1      45.037   2.503   9.539  0.00  0.00    +0.000 A 
ATOM     12  C   UNL     1      45.717   1.702   8.629  0.00  0.00    +0.000 A 
ATOM     13  C   UNL     1      46.335   2.290   7.533  0.00  0.00    +0.000 A 
ATOM     14  C   UNL     1      46.221   3.660   7.377  0.00  0.00    +0.000 A 
ATOM     15  N   UNL     1      45.587   4.467   8.260  0.00  0.00    +0.000 NA
ENDBRANCH   9  10
ENDBRANCH   6   9
ENDBRANCH   2   3
BRANCH   2  16
ATOM     16  N   UNL     1      48.345   6.982  15.306  0.00  0.00    +0.000 N 
ATOM     17  C   UNL     1      49.210   6.653  16.317  0.00  0.00    +0.000 C 
ATOM     18  O   UNL     1      50.366   6.304  16.110  0.00  0.00    +0.000 OA
ATOM     19  H   UNL     1      47.355   6.885  15.492  0.00  0.00    +0.000 HD
BRANCH  17  20
ATOM     20  C   UNL     1      48.712   6.792  17.681  0.00  0.00    +0.000 A 
ATOM     21  C   UNL     1      48.342   8.047  18.147  0.00  0.00    +0.000 A 
ATOM     22  S   UNL     1      47.855   8.046  19.779  0.00  0.00    +0.000 S 
ATOM     23  C   UNL     1      48.147   6.376  19.919  0.00  0.00    +0.000 A 
ATOM     24  N   UNL     1      47.993   5.733  21.107  0.00  0.00    +0.000 NA
ATOM     25  C   UNL     1      48.284   4.476  21.076  0.00  0.00    +0.000 A 
ATOM     26  N   UNL     1      48.695   3.795  19.954  0.00  0.00    +0.000 N 
ATOM     27  C   UNL     1      48.807   4.389  18.720  0.00  0.00    +0.000 A 
ATOM     28  O   UNL     1      49.077   3.744  17.717  0.00  0.00    +0.000 OA
ATOM     29  C   UNL     1      48.553   5.818  18.723  0.00  0.00    +0.000 A 
ATOM     30  H   UNL     1      48.867   2.802  19.990  0.00  0.00    +0.000 HD
ENDBRANCH  17  20
ENDBRANCH   2  16
TORSDOF 5
ENDMDL
MODEL 3
REMARK VINA RESULT:    -7.691      2.688      3.872
REMARK INTER + INTRA:         -10.902
REMARK INTER:                  -9.747
REMARK INTRA:                  -1.155
REMARK UNBOUND:                -0.963
REMARK  Name = 
REMARK  6 active torsions:
REMARK  status: ('A' for Active; 'I' for Inactive)
REMARK    1  A    between atoms: C_1  and  C_2
REMARK    2  A    between atoms: C_2  and  N_3
REMARK    3  A    between atoms: C_2  and  C_16
REMARK    4  A    between atoms: C_4  and  C_6
REMARK    5  A    between atoms: C_19  and  C_20
REMARK    6  A    between atoms: C_20  and  C_21
REMARK                            x       y       z     vdW  Elec       q    Type
REMARK                         _______ _______ _______ _____ _____    ______ ____
ROOT
ATOM      1  C   UNL     1      46.948   4.537  14.726  0.00  0.00    +0.000 C 
ATOM      2  C   UNL     1      46.722   5.766  13.833  0.00  0.00    +0.000 C 
ENDROOT
BRANCH   2   3
ATOM      3  C   UNL     1      46.083   5.304  12.535  0.00  0.00    +0.000 A 
ATOM      4  C   UNL     1      45.430   4.067  12.491  0.00  0.00    +0.000 A 
ATOM      5  C   UNL     1      44.936   3.572  11.284  0.00  0.00    +0.000 A 
ATOM      6  C   UNL     1      45.048   4.318  10.098  0.00  0.00    +0.000 A 
ATOM      7  C   UNL     1      45.684   5.560  10.147  0.00  0.00    +0.000 A 
ATOM      8  C   UNL     1      46.210   6.040  11.347  0.00  0.00    +0.000 A 
BRANCH   6   9
ATOM      9  C   UNL     1      44.508   3.811   8.782  0.00  0.00    +0.000 C 
BRANCH   9  10
ATOM     10  C   UNL     1      45.480   3.034   7.920  0.00  0.00    +0.000 A 
ATOM     11  C   UNL     1      45.860   1.747   8.291  0.00  0.00    +0.000 A 
ATOM     12  C   UNL     1      46.935   1.148   7.645  0.00  0.00    +0.000 A 
ATOM     13  C   UNL     1      47.583   1.831   6.625  0.00  0.00    +0.000 A 
ATOM     14  C   UNL     1      47.107   3.081   6.271  0.00  0.00    +0.000 A 
ATOM     15  N   UNL     1      46.080   3.699   6.898  0.00  0.00    +0.000 NA
ENDBRANCH   9  10
ENDBRANCH   6   9
ENDBRANCH   2   3
BRANCH   2  16
ATOM     16  N   UNL     1      47.937   6.516  13.568  0.00  0.00    +0.000 N 
ATOM     17  C   UNL     1      47.971   7.883  13.672  0.00  0.00    +0.000 C 
ATOM     18  O   UNL     1      46.995   8.544  14.008  0.00  0.00    +0.000 OA
ATOM     19  H   UNL     1      48.607   6.082  12.946  0.00  0.00    +0.000 HD
BRANCH  17  20
ATOM     20  C   UNL     1      49.254   8.531  13.422  0.00  0.00    +0.000 A 
ATOM     21  C   UNL     1      49.337   9.531  12.463  0.00  0.00    +0.000 A 
ATOM     22  S   UNL     1      50.916  10.129  12.244  0.00  0.00    +0.000 S 
ATOM     23  C   UNL     1      51.540   9.054  13.406  0.00  0.00    +0.000 A 
ATOM     24  N   UNL     1      52.874   8.994  13.665  0.00  0.00    +0.000 NA
ATOM     25  C   UNL     1      53.208   8.110  14.542  0.00  0.00    +0.000 A 
ATOM     26  N   UNL     1      52.325   7.291  15.205  0.00  0.00    +0.000 N 
ATOM     27  C   UNL     1      50.965   7.356  15.021  0.00  0.00    +0.000 A 
ATOM     28  O   UNL     1      50.191   6.689  15.693  0.00  0.00    +0.000 OA
ATOM     29  C   UNL     1      50.548   8.292  13.994  0.00  0.00    +0.000 A 
ATOM     30  H   UNL     1      52.650   6.647  15.911  0.00  0.00    +0.000 HD
ENDBRANCH  17  20
ENDBRANCH   2  16
TORSDOF 5
ENDMDL
MODEL 4
REMARK VINA RESULT:    -7.681      2.355      3.066
REMARK INTER + INTRA:         -10.889
REMARK INTER:                  -9.712
REMARK INTRA:                  -1.177
REMARK UNBOUND:                -0.963
REMARK  Name = 
REMARK  6 active torsions:
REMARK  status: ('A' for Active; 'I' for Inactive)
REMARK    1  A    between atoms: C_1  and  C_2
REMARK    2  A    between atoms: C_2  and  N_3
REMARK    3  A    between atoms: C_2  and  C_16
REMARK    4  A    between atoms: C_4  and  C_6
REMARK    5  A    between atoms: C_19  and  C_20
REMARK    6  A    between atoms: C_20  and  C_21
REMARK                            x       y       z     vdW  Elec       q    Type
REMARK                         _______ _______ _______ _____ _____    ______ ____
ROOT
ATOM      1  C   UNL     1      48.433   8.591  13.919  0.00  0.00    +0.000 C 
ATOM      2  C   UNL     1      48.407   7.065  14.086  0.00  0.00    +0.000 C 
ENDROOT
BRANCH   2   3
ATOM      3  C   UNL     1      47.310   6.504  13.197  0.00  0.00    +0.000 A 
ATOM      4  C   UNL     1      46.833   5.209  13.427  0.00  0.00    +0.000 A 
ATOM      5  C   UNL     1      45.909   4.632  12.557  0.00  0.00    +0.000 A 
ATOM      6  C   UNL     1      45.409   5.349  11.456  0.00  0.00    +0.000 A 
ATOM      7  C   UNL     1      45.873   6.648  11.238  0.00  0.00    +0.000 A 
ATOM      8  C   UNL     1      46.824   7.212  12.088  0.00  0.00    +0.000 A 
BRANCH   6   9
ATOM      9  C   UNL     1      44.397   4.753  10.507  0.00  0.00    +0.000 C 
BRANCH   9  10
ATOM     10  C   UNL     1      44.956   3.900   9.388  0.00  0.00    +0.000 A 
ATOM     11  C   UNL     1      44.953   2.513   9.506  0.00  0.00    +0.000 A 
ATOM     12  C   UNL     1      45.693   1.757   8.604  0.00  0.00    +0.000 A 
ATOM     13  C   UNL     1      46.390   2.398   7.588  0.00  0.00    +0.000 A 
ATOM     14  C   UNL     1      46.293   3.776   7.500  0.00  0.00    +0.000 A 
ATOM     15  N   UNL     1      45.602   4.539   8.378  0.00  0.00    +0.000 NA
ENDBRANCH   9  10
ENDBRANCH   6   9
ENDBRANCH   2   3
BRANCH   2  16
ATOM     16  N   UNL     1      48.219   6.639  15.462  0.00  0.00    +0.000 N 
ATOM     17  C   UNL     1      49.280   6.277  16.251  0.00  0.00    +0.000 C 
ATOM     18  O   UNL     1      50.439   6.307  15.853  0.00  0.00    +0.000 OA
ATOM     19  H   UNL     1      47.315   6.245  15.691  0.00  0.00    +0.000 HD
BRANCH  17  20
ATOM     20  C   UNL     1      48.980   5.906  17.629  0.00  0.00    +0.000 A 
ATOM     21  C   UNL     1      49.173   4.593  18.038  0.00  0.00    +0.000 A 
ATOM     22  S   UNL     1      48.705   4.312  19.652  0.00  0.00    +0.000 S 
ATOM     23  C   UNL     1      48.209   5.928  19.844  0.00  0.00    +0.000 A 
ATOM     24  N   UNL     1      47.633   6.354  21.000  0.00  0.00    +0.000 NA
ATOM     25  C   UNL     1      47.274   7.593  20.992  0.00  0.00    +0.000 A 
ATOM     26  N   UNL     1      47.459   8.456  19.938  0.00  0.00    +0.000 N 
ATOM     27  C   UNL     1      48.090   8.087  18.775  0.00  0.00    +0.000 A 
ATOM     28  O   UNL     1      48.333   8.895  17.890  0.00  0.00    +0.000 OA
ATOM     29  C   UNL     1      48.451   6.683  18.713  0.00  0.00    +0.000 A 
ATOM     30  H   UNL     1      47.191   9.426  20.014  0.00  0.00    +0.000 HD
ENDBRANCH  17  20
ENDBRANCH   2  16
TORSDOF 5
ENDMDL
MODEL 5
REMARK VINA RESULT:    -7.338      3.213      7.976
REMARK INTER + INTRA:         -10.446
REMARK INTER:                  -9.250
REMARK INTRA:                  -1.196
REMARK UNBOUND:                -0.963
REMARK  Name = 
REMARK  6 active torsions:
REMARK  status: ('A' for Active; 'I' for Inactive)
REMARK    1  A    between atoms: C_1  and  C_2
REMARK    2  A    between atoms: C_2  and  N_3
REMARK    3  A    between atoms: C_2  and  C_16
REMARK    4  A    between atoms: C_4  and  C_6
REMARK    5  A    between atoms: C_19  and  C_20
REMARK    6  A    between atoms: C_20  and  C_21
REMARK                            x       y       z     vdW  Elec       q    Type
REMARK                         _______ _______ _______ _____ _____    ______ ____
ROOT
ATOM      1  C   UNL     1      49.405   8.078  12.830  0.00  0.00    +0.000 C 
ATOM      2  C   UNL     1      48.235   7.421  13.575  0.00  0.00    +0.000 C 
ENDROOT
BRANCH   2   3
ATOM      3  C   UNL     1      48.772   6.783  14.845  0.00  0.00    +0.000 A 
ATOM      4  C   UNL     1      50.043   7.140  15.310  0.00  0.00    +0.000 A 
ATOM      5  C   UNL     1      50.602   6.486  16.407  0.00  0.00    +0.000 A 
ATOM      6  C   UNL     1      49.891   5.486  17.091  0.00  0.00    +0.000 A 
ATOM      7  C   UNL     1      48.616   5.142  16.637  0.00  0.00    +0.000 A 
ATOM      8  C   UNL     1      48.070   5.771  15.517  0.00  0.00    +0.000 A 
BRANCH   6   9
ATOM      9  C   UNL     1      50.468   4.773  18.291  0.00  0.00    +0.000 C 
BRANCH   9  10
ATOM     10  C   UNL     1      51.343   3.574  17.995  0.00  0.00    +0.000 A 
ATOM     11  C   UNL     1      50.796   2.450  17.382  0.00  0.00    +0.000 A 
ATOM     12  C   UNL     1      51.533   1.272  17.349  0.00  0.00    +0.000 A 
ATOM     13  C   UNL     1      52.808   1.251  17.897  0.00  0.00    +0.000 A 
ATOM     14  C   UNL     1      53.307   2.425  18.433  0.00  0.00    +0.000 A 
ATOM     15  N   UNL     1      52.604   3.579  18.501  0.00  0.00    +0.000 NA
ENDBRANCH   9  10
ENDBRANCH   6   9
ENDBRANCH   2   3
BRANCH   2  16
ATOM     16  N   UNL     1      47.520   6.443  12.774  0.00  0.00    +0.000 N 
ATOM     17  C   UNL     1      46.474   6.807  11.966  0.00  0.00    +0.000 C 
ATOM     18  O   UNL     1      46.095   7.968  11.859  0.00  0.00    +0.000 OA
ATOM     19  H   UNL     1      47.535   5.488  13.110  0.00  0.00    +0.000 HD
BRANCH  17  20
ATOM     20  C   UNL     1      45.853   5.751  11.175  0.00  0.00    +0.000 A 
ATOM     21  C   UNL     1      45.938   5.797   9.789  0.00  0.00    +0.000 A 
ATOM     22  S   UNL     1      45.099   4.532   9.017  0.00  0.00    +0.000 S 
ATOM     23  C   UNL     1      44.578   3.898  10.508  0.00  0.00    +0.000 A 
ATOM     24  N   UNL     1      43.746   2.824  10.563  0.00  0.00    +0.000 NA
ATOM     25  C   UNL     1      43.404   2.475  11.758  0.00  0.00    +0.000 A 
ATOM     26  N   UNL     1      43.838   3.090  12.908  0.00  0.00    +0.000 N 
ATOM     27  C   UNL     1      44.725   4.138  12.905  0.00  0.00    +0.000 A 
ATOM     28  O   UNL     1      45.175   4.605  13.941  0.00  0.00    +0.000 OA
ATOM     29  C   UNL     1      45.085   4.608  11.580  0.00  0.00    +0.000 A 
ATOM     30  H   UNL     1      43.563   2.739  13.814  0.00  0.00    +0.000 HD
ENDBRANCH  17  20
ENDBRANCH   2  16
TORSDOF 5
ENDMDL
MODEL 6
REMARK VINA RESULT:    -7.245      2.722      3.697
REMARK INTER + INTRA:         -10.326
REMARK INTER:                  -9.220
REMARK INTRA:                  -1.106
REMARK UNBOUND:                -0.963
REMARK  Name = 
REMARK  6 active torsions:
REMARK  status: ('A' for Active; 'I' for Inactive)
REMARK    1  A    between atoms: C_1  and  C_2
REMARK    2  A    between atoms: C_2  and  N_3
REMARK    3  A    between atoms: C_2  and  C_16
REMARK    4  A    between atoms: C_4  and  C_6
REMARK    5  A    between atoms: C_19  and  C_20
REMARK    6  A    between atoms: C_20  and  C_21
REMARK                            x       y       z     vdW  Elec       q    Type
REMARK                         _______ _______ _______ _____ _____    ______ ____
ROOT
ATOM      1  C   UNL     1      47.167   4.581  15.364  0.00  0.00    +0.000 C 
ATOM      2  C   UNL     1      47.129   5.751  14.369  0.00  0.00    +0.000 C 
ENDROOT
BRANCH   2   3
ATOM      3  C   UNL     1      46.478   5.267  13.085  0.00  0.00    +0.000 A 
ATOM      4  C   UNL     1      46.396   6.131  11.987  0.00  0.00    +0.000 A 
ATOM      5  C   UNL     1      45.703   5.749  10.839  0.00  0.00    +0.000 A 
ATOM      6  C   UNL     1      45.109   4.480  10.742  0.00  0.00    +0.000 A 
ATOM      7  C   UNL     1      45.208   3.611  11.832  0.00  0.00    +0.000 A 
ATOM      8  C   UNL     1      45.869   4.006  12.994  0.00  0.00    +0.000 A 
BRANCH   6   9
ATOM      9  C   UNL     1      44.367   4.036   9.504  0.00  0.00    +0.000 C 
BRANCH   9  10
ATOM     10  C   UNL     1      45.179   3.272   8.480  0.00  0.00    +0.000 A 
ATOM     11  C   UNL     1      45.505   1.938   8.709  0.00  0.00    +0.000 A 
ATOM     12  C   UNL     1      46.456   1.326   7.901  0.00  0.00    +0.000 A 
ATOM     13  C   UNL     1      47.034   2.047   6.865  0.00  0.00    +0.000 A 
ATOM     14  C   UNL     1      46.613   3.350   6.662  0.00  0.00    +0.000 A 
ATOM     15  N   UNL     1      45.708   3.978   7.448  0.00  0.00    +0.000 NA
ENDBRANCH   9  10
ENDBRANCH   6   9
ENDBRANCH   2   3
BRANCH   2  16
ATOM     16  N   UNL     1      48.439   6.317  14.097  0.00  0.00    +0.000 N 
ATOM     17  C   UNL     1      48.703   7.645  14.313  0.00  0.00    +0.000 C 
ATOM     18  O   UNL     1      47.865   8.421  14.759  0.00  0.00    +0.000 OA
ATOM     19  H   UNL     1      49.000   5.839  13.404  0.00  0.00    +0.000 HD
BRANCH  17  20
ATOM     20  C   UNL     1      50.063   8.099  14.045  0.00  0.00    +0.000 A 
ATOM     21  C   UNL     1      50.299   8.944  12.969  0.00  0.00    +0.000 A 
ATOM     22  S   UNL     1      51.947   9.318  12.752  0.00  0.00    +0.000 S 
ATOM     23  C   UNL     1      52.395   8.342  14.072  0.00  0.00    +0.000 A 
ATOM     24  N   UNL     1      53.703   8.162  14.400  0.00  0.00    +0.000 NA
ATOM     25  C   UNL     1      53.897   7.369  15.400  0.00  0.00    +0.000 A 
ATOM     26  N   UNL     1      52.899   6.756  16.119  0.00  0.00    +0.000 N 
ATOM     27  C   UNL     1      51.564   6.955  15.862  0.00  0.00    +0.000 A 
ATOM     28  O   UNL     1      50.692   6.480  16.576  0.00  0.00    +0.000 OA
ATOM     29  C   UNL     1      51.299   7.788  14.704  0.00  0.00    +0.000 A 
ATOM     30  H   UNL     1      53.120   6.179  16.917  0.00  0.00    +0.000 HD
ENDBRANCH  17  20
ENDBRANCH   2  16
TORSDOF 5
ENDMDL
MODEL 7
REMARK VINA RESULT:    -6.809      3.237      8.387
REMARK INTER + INTRA:          -9.762
REMARK INTER:                  -8.602
REMARK INTRA:                  -1.160
REMARK UNBOUND:                -0.963
REMARK  Name = 
REMARK  6 active torsions:
REMARK  status: ('A' for Active; 'I' for Inactive)
REMARK    1  A    between atoms: C_1  and  C_2
REMARK    2  A    between atoms: C_2  and  N_3
REMARK    3  A    between atoms: C_2  and  C_16
REMARK    4  A    between atoms: C_4  and  C_6
REMARK    5  A    between atoms: C_19  and  C_20
REMARK    6  A    between atoms: C_20  and  C_21
REMARK                            x       y       z     vdW  Elec       q    Type
REMARK                         _______ _______ _______ _____ _____    ______ ____
ROOT
ATOM      1  C   UNL     1      49.413   8.377  11.740  0.00  0.00    +0.000 C 
ATOM      2  C   UNL     1      48.267   7.791  12.577  0.00  0.00    +0.000 C 
ENDROOT
BRANCH   2   3
ATOM      3  C   UNL     1      48.826   7.358  13.921  0.00  0.00    +0.000 A 
ATOM      4  C   UNL     1      50.098   7.793  14.310  0.00  0.00    +0.000 A 
ATOM      5  C   UNL     1      50.678   7.318  15.486  0.00  0.00    +0.000 A 
ATOM      6  C   UNL     1      49.987   6.425  16.322  0.00  0.00    +0.000 A 
ATOM      7  C   UNL     1      48.710   6.005  15.942  0.00  0.00    +0.000 A 
ATOM      8  C   UNL     1      48.144   6.452  14.748  0.00  0.00    +0.000 A 
BRANCH   6   9
ATOM      9  C   UNL     1      50.586   5.907  17.608  0.00  0.00    +0.000 C 
BRANCH   9  10
ATOM     10  C   UNL     1      49.748   6.095  18.855  0.00  0.00    +0.000 A 
ATOM     11  C   UNL     1      49.270   4.983  19.542  0.00  0.00    +0.000 A 
ATOM     12  C   UNL     1      48.300   5.160  20.522  0.00  0.00    +0.000 A 
ATOM     13  C   UNL     1      47.854   6.442  20.815  0.00  0.00    +0.000 A 
ATOM     14  C   UNL     1      48.423   7.503  20.131  0.00  0.00    +0.000 A 
ATOM     15  N   UNL     1      49.350   7.358  19.157  0.00  0.00    +0.000 NA
ENDBRANCH   9  10
ENDBRANCH   6   9
ENDBRANCH   2   3
BRANCH   2  16
ATOM     16  N   UNL     1      47.585   6.687  11.926  0.00  0.00    +0.000 N 
ATOM     17  C   UNL     1      46.256   6.760  11.597  0.00  0.00    +0.000 C 
ATOM     18  O   UNL     1      45.576   7.756  11.815  0.00  0.00    +0.000 OA
ATOM     19  H   UNL     1      47.975   5.765  12.078  0.00  0.00    +0.000 HD
BRANCH  17  20
ATOM     20  C   UNL     1      45.683   5.608  10.910  0.00  0.00    +0.000 A 
ATOM     21  C   UNL     1      45.777   5.524   9.527  0.00  0.00    +0.000 A 
ATOM     22  S   UNL     1      44.993   4.157   8.878  0.00  0.00    +0.000 S 
ATOM     23  C   UNL     1      44.485   3.652  10.421  0.00  0.00    +0.000 A 
ATOM     24  N   UNL     1      43.694   2.557  10.577  0.00  0.00    +0.000 NA
ATOM     25  C   UNL     1      43.356   2.312  11.798  0.00  0.00    +0.000 A 
ATOM     26  N   UNL     1      43.757   3.051  12.885  0.00  0.00    +0.000 N 
ATOM     27  C   UNL     1      44.603   4.128  12.783  0.00  0.00    +0.000 A 
ATOM     28  O   UNL     1      45.027   4.711  13.771  0.00  0.00    +0.000 OA
ATOM     29  C   UNL     1      44.956   4.481  11.421  0.00  0.00    +0.000 A 
ATOM     30  H   UNL     1      43.489   2.780  13.819  0.00  0.00    +0.000 HD
ENDBRANCH  17  20
ENDBRANCH   2  16
TORSDOF 5
ENDMDL
MODEL 8
REMARK VINA RESULT:    -6.808      2.823      8.704
REMARK INTER + INTRA:          -9.761
REMARK INTER:                  -8.593
REMARK INTRA:                  -1.168
REMARK UNBOUND:                -0.963
REMARK  Name = 
REMARK  6 active torsions:
REMARK  status: ('A' for Active; 'I' for Inactive)
REMARK    1  A    between atoms: C_1  and  C_2
REMARK    2  A    between atoms: C_2  and  N_3
REMARK    3  A    between atoms: C_2  and  C_16
REMARK    4  A    between atoms: C_4  and  C_6
REMARK    5  A    between atoms: C_19  and  C_20
REMARK    6  A    between atoms: C_20  and  C_21
REMARK                            x       y       z     vdW  Elec       q    Type
REMARK                         _______ _______ _______ _____ _____    ______ ____
ROOT
ATOM      1  C   UNL     1      48.739   7.749  11.708  0.00  0.00    +0.000 C 
ATOM      2  C   UNL     1      47.683   7.291  12.725  0.00  0.00    +0.000 C 
ENDROOT
BRANCH   2   3
ATOM      3  C   UNL     1      48.381   6.994  14.040  0.00  0.00    +0.000 A 
ATOM      4  C   UNL     1      49.558   7.677  14.365  0.00  0.00    +0.000 A 
ATOM      5  C   UNL     1      50.276   7.341  15.512  0.00  0.00    +0.000 A 
ATOM      6  C   UNL     1      49.816   6.340  16.385  0.00  0.00    +0.000 A 
ATOM      7  C   UNL     1      48.631   5.671  16.069  0.00  0.00    +0.000 A 
ATOM      8  C   UNL     1      47.932   5.982  14.903  0.00  0.00    +0.000 A 
BRANCH   6   9
ATOM      9  C   UNL     1      50.567   5.967  17.641  0.00  0.00    +0.000 C 
BRANCH   9  10
ATOM     10  C   UNL     1      49.761   5.969  18.922  0.00  0.00    +0.000 A 
ATOM     11  C   UNL     1      49.597   4.788  19.641  0.00  0.00    +0.000 A 
ATOM     12  C   UNL     1      48.654   4.743  20.661  0.00  0.00    +0.000 A 
ATOM     13  C   UNL     1      47.922   5.884  20.962  0.00  0.00    +0.000 A 
ATOM     14  C   UNL     1      48.186   7.037  20.244  0.00  0.00    +0.000 A 
ATOM     15  N   UNL     1      49.079   7.103  19.230  0.00  0.00    +0.000 NA
ENDBRANCH   9  10
ENDBRANCH   6   9
ENDBRANCH   2   3
BRANCH   2  16
ATOM     16  N   UNL     1      46.917   6.141  12.280  0.00  0.00    +0.000 N 
ATOM     17  C   UNL     1      45.546   6.159  12.258  0.00  0.00    +0.000 C 
ATOM     18  O   UNL     1      44.893   7.141  12.593  0.00  0.00    +0.000 OA
ATOM     19  H   UNL     1      47.367   5.239  12.370  0.00  0.00    +0.000 HD
BRANCH  17  20
ATOM     20  C   UNL     1      44.879   4.963  11.755  0.00  0.00    +0.000 A 
ATOM     21  C   UNL     1      44.082   4.216  12.612  0.00  0.00    +0.000 A 
ATOM     22  S   UNL     1      43.439   2.815  11.889  0.00  0.00    +0.000 S 
ATOM     23  C   UNL     1      44.225   3.151  10.418  0.00  0.00    +0.000 A 
ATOM     24  N   UNL     1      44.148   2.291   9.367  0.00  0.00    +0.000 NA
ATOM     25  C   UNL     1      44.822   2.656   8.329  0.00  0.00    +0.000 A 
ATOM     26  N   UNL     1      45.551   3.818   8.236  0.00  0.00    +0.000 N 
ATOM     27  C   UNL     1      45.609   4.745   9.249  0.00  0.00    +0.000 A 
ATOM     28  O   UNL     1      46.180   5.817   9.109  0.00  0.00    +0.000 OA
ATOM     29  C   UNL     1      44.919   4.345  10.461  0.00  0.00    +0.000 A 
ATOM     30  H   UNL     1      46.022   4.063   7.378  0.00  0.00    +0.000 HD
ENDBRANCH  17  20
ENDBRANCH   2  16
TORSDOF 5
ENDMDL
MODEL 9
REMARK VINA RESULT:    -6.642      4.237      7.108
REMARK INTER + INTRA:          -9.547
REMARK INTER:                  -8.622
REMARK INTRA:                  -0.925
REMARK UNBOUND:                -0.963
REMARK  Name = 
REMARK  6 active torsions:
REMARK  status: ('A' for Active; 'I' for Inactive)
REMARK    1  A    between atoms: C_1  and  C_2
REMARK    2  A    between atoms: C_2  and  N_3
REMARK    3  A    between atoms: C_2  and  C_16
REMARK    4  A    between atoms: C_4  and  C_6
REMARK    5  A    between atoms: C_19  and  C_20
REMARK    6  A    between atoms: C_20  and  C_21
REMARK                            x       y       z     vdW  Elec       q    Type
REMARK                         _______ _______ _______ _____ _____    ______ ____
ROOT
ATOM      1  C   UNL     1      45.307   9.421  12.424  0.00  0.00    +0.000 C 
ATOM      2  C   UNL     1      46.049   8.114  12.740  0.00  0.00    +0.000 C 
ENDROOT
BRANCH   2   3
ATOM      3  C   UNL     1      47.505   8.281  12.339  0.00  0.00    +0.000 A 
ATOM      4  C   UNL     1      48.411   7.244  12.590  0.00  0.00    +0.000 A 
ATOM      5  C   UNL     1      49.771   7.418  12.335  0.00  0.00    +0.000 A 
ATOM      6  C   UNL     1      50.255   8.617  11.787  0.00  0.00    +0.000 A 
ATOM      7  C   UNL     1      49.347   9.645  11.520  0.00  0.00    +0.000 A 
ATOM      8  C   UNL     1      47.992   9.485  11.808  0.00  0.00    +0.000 A 
BRANCH   6   9
ATOM      9  C   UNL     1      51.721   8.826  11.487  0.00  0.00    +0.000 C 
BRANCH   9  10
ATOM     10  C   UNL     1      52.178   8.429  10.100  0.00  0.00    +0.000 A 
ATOM     11  C   UNL     1      52.276   7.082   9.760  0.00  0.00    +0.000 A 
ATOM     12  C   UNL     1      52.935   6.727   8.589  0.00  0.00    +0.000 A 
ATOM     13  C   UNL     1      53.450   7.722   7.769  0.00  0.00    +0.000 A 
ATOM     14  C   UNL     1      53.259   9.040   8.143  0.00  0.00    +0.000 A 
ATOM     15  N   UNL     1      52.644   9.415   9.289  0.00  0.00    +0.000 NA
ENDBRANCH   9  10
ENDBRANCH   6   9
ENDBRANCH   2   3
BRANCH   2  16
ATOM     16  N   UNL     1      45.470   6.952  12.091  0.00  0.00    +0.000 N 
ATOM     17  C   UNL     1      45.444   5.727  12.707  0.00  0.00    +0.000 C 
ATOM     18  O   UNL     1      45.889   5.546  13.835  0.00  0.00    +0.000 OA
ATOM     19  H   UNL     1      45.455   6.962  11.079  0.00  0.00    +0.000 HD
BRANCH  17  20
ATOM     20  C   UNL     1      44.802   4.637  11.981  0.00  0.00    +0.000 A 
ATOM     21  C   UNL     1      43.980   3.753  12.666  0.00  0.00    +0.000 A 
ATOM     22  S   UNL     1      43.370   2.499  11.688  0.00  0.00    +0.000 S 
ATOM     23  C   UNL     1      44.205   3.086  10.326  0.00  0.00    +0.000 A 
ATOM     24  N   UNL     1      44.170   2.422   9.140  0.00  0.00    +0.000 NA
ATOM     25  C   UNL     1      44.878   2.961   8.206  0.00  0.00    +0.000 A 
ATOM     26  N   UNL     1      45.603   4.121   8.342  0.00  0.00    +0.000 N 
ATOM     27  C   UNL     1      45.620   4.857   9.502  0.00  0.00    +0.000 A 
ATOM     28  O   UNL     1      46.190   5.937   9.571  0.00  0.00    +0.000 OA
ATOM     29  C   UNL     1      44.891   4.253  10.601  0.00  0.00    +0.000 A 
ATOM     30  H   UNL     1      46.103   4.510   7.557  0.00  0.00    +0.000 HD
ENDBRANCH  17  20
ENDBRANCH   2  16
TORSDOF 5
ENDMDL
