MODEL 1
REMARK VINA RESULT:    -8.147      0.000      0.000
REMARK INTER + INTRA:         -11.339
REMARK INTER:                 -10.528
REMARK INTRA:                  -0.811
REMARK UNBOUND:                -0.811
REMARK  Name = 
REMARK  5 active torsions:
REMARK  status: ('A' for Active; 'I' for Inactive)
REMARK    1  A    between atoms: C_2  and  C_4
REMARK    2  A    between atoms: C_7  and  O_8
REMARK    3  A    between atoms: O_8  and  C_9
REMARK    4  A    between atoms: C_9  and  C_10
REMARK    5  A    between atoms: C_14  and  C_15
REMARK                            x       y       z     vdW  Elec       q    Type
REMARK                         _______ _______ _______ _____ _____    ______ ____
ROOT
ATOM      1  C   UNL     1      43.839   5.208  10.658  0.00  0.00    +0.000 C 
ENDROOT
BRANCH   1   2
ATOM      2  C   UNL     1      44.936   5.249  11.697  0.00  0.00    +0.000 A 
ATOM      3  C   UNL     1      44.892   4.359  12.775  0.00  0.00    +0.000 A 
ATOM      4  C   UNL     1      45.940   4.314  13.687  0.00  0.00    +0.000 A 
ATOM      5  C   UNL     1      47.032   5.171  13.542  0.00  0.00    +0.000 A 
ATOM      6  C   UNL     1      47.086   6.115  12.507  0.00  0.00    +0.000 A 
ATOM      7  C   UNL     1      46.043   6.103  11.565  0.00  0.00    +0.000 A 
BRANCH   6   8
ATOM      8  C   UNL     1      48.227   7.119  12.338  0.00  0.00    +0.000 C 
ATOM      9  C   UNL     1      49.075   7.399  13.593  0.00  0.00    +0.000 C 
ATOM     10  C   UNL     1      48.340   8.276  14.610  0.00  0.00    +0.000 C 
ATOM     11  N   UNL     1      47.895   9.543  14.026  0.00  0.00    +0.000 NA
ATOM     12  C   UNL     1      47.043   9.319  12.857  0.00  0.00    +0.000 C 
ATOM     13  C   UNL     1      47.746   8.480  11.788  0.00  0.00    +0.000 C 
ATOM     14  H   UNL     1      48.712  10.086  13.745  0.00  0.00    +0.000 HD
ENDBRANCH   6   8
ENDBRANCH   1   2
BRANCH   1  15
ATOM     15  O   UNL     1      43.617   3.868  10.210  0.00  0.00    +0.000 OA
BRANCH  15  19
ATOM     16  C   UNL     1      46.444   2.620   7.497  0.00  0.00    +0.000 A 
ATOM     17  C   UNL     1      45.920   1.710   8.417  0.00  0.00    +0.000 A 
ATOM     18  C   UNL     1      44.956   2.145   9.328  0.00  0.00    +0.000 A 
ATOM     19  C   UNL     1      44.553   3.471   9.281  0.00  0.00    +0.000 A 
ATOM     20  N   UNL     1      45.036   4.371   8.397  0.00  0.00    +0.000 NA
ATOM     21  C   UNL     1      45.978   3.927   7.531  0.00  0.00    +0.000 A 
BRANCH  16  23
ATOM     22  N   UNL     1      47.502   2.969   5.334  0.00  0.00    +0.000 N 
ATOM     23  C   UNL     1      47.492   2.280   6.516  0.00  0.00    +0.000 C 
ATOM     24  O   UNL     1      48.344   1.435   6.758  0.00  0.00    +0.000 OA
ATOM     25  H   UNL     1      48.288   2.788   4.722  0.00  0.00    +0.000 HD
ATOM     26  H   UNL     1      46.987   3.825   5.195  0.00  0.00    +0.000 HD
ENDBRANCH  16  23
ENDBRANCH  15  19
ENDBRANCH   1  15
TORSDOF 5
ENDMDL
MODEL 2
REMARK VINA RESULT:    -7.646      1.380      2.078
REMARK INTER + INTRA:         -10.692
REMARK INTER:                  -9.976
REMARK INTRA:                  -0.716
REMARK UNBOUND:                -0.811
REMARK  Name = 
REMARK  5 active torsions:
REMARK  status: ('A' for Active; 'I' for Inactive)
REMARK    1  A    between atoms: C_2  and  C_4
REMARK    2  A    between atoms: C_7  and  O_8
REMARK    3  A    between atoms: O_8  and  C_9
REMARK    4  A    between atoms: C_9  and  C_10
REMARK    5  A    between atoms: C_14  and  C_15
REMARK                            x       y       z     vdW  Elec       q    Type
REMARK                         _______ _______ _______ _____ _____    ______ ____
ROOT
ATOM      1  C   UNL     1      44.398   4.717  11.459  0.00  0.00    +0.000 C 
ENDROOT
BRANCH   1   2
ATOM      2  C   UNL     1      44.945   6.094  11.754  0.00  0.00    +0.000 A 
ATOM      3  C   UNL     1      44.262   7.219  11.281  0.00  0.00    +0.000 A 
ATOM      4  C   UNL     1      44.693   8.494  11.624  0.00  0.00    +0.000 A 
ATOM      5  C   UNL     1      45.824   8.659  12.426  0.00  0.00    +0.000 A 
ATOM      6  C   UNL     1      46.568   7.558  12.873  0.00  0.00    +0.000 A 
ATOM      7  C   UNL     1      46.079   6.277  12.562  0.00  0.00    +0.000 A 
BRANCH   6   8
ATOM      8  C   UNL     1      47.847   7.683  13.700  0.00  0.00    +0.000 C 
ATOM      9  C   UNL     1      48.383   9.112  13.909  0.00  0.00    +0.000 C 
ATOM     10  C   UNL     1      49.041   9.678  12.648  0.00  0.00    +0.000 C 
ATOM     11  N   UNL     1      50.119   8.818  12.155  0.00  0.00    +0.000 NA
ATOM     12  C   UNL     1      49.637   7.459  11.897  0.00  0.00    +0.000 C 
ATOM     13  C   UNL     1      49.005   6.829  13.139  0.00  0.00    +0.000 C 
ATOM     14  H   UNL     1      50.862   8.781  12.853  0.00  0.00    +0.000 HD
ENDBRANCH   6   8
ENDBRANCH   1   2
BRANCH   1  15
ATOM     15  O   UNL     1      43.897   4.647  10.121  0.00  0.00    +0.000 OA
BRANCH  15  19
ATOM     16  C   UNL     1      46.422   2.479   7.705  0.00  0.00    +0.000 A 
ATOM     17  C   UNL     1      45.627   1.818   8.643  0.00  0.00    +0.000 A 
ATOM     18  C   UNL     1      44.769   2.566   9.452  0.00  0.00    +0.000 A 
ATOM     19  C   UNL     1      44.739   3.942   9.289  0.00  0.00    +0.000 A 
ATOM     20  N   UNL     1      45.490   4.607   8.385  0.00  0.00    +0.000 NA
ATOM     21  C   UNL     1      46.323   3.861   7.620  0.00  0.00    +0.000 A 
BRANCH  16  23
ATOM     22  N   UNL     1      48.501   2.494   6.440  0.00  0.00    +0.000 N 
ATOM     23  C   UNL     1      47.390   1.796   6.826  0.00  0.00    +0.000 C 
ATOM     24  O   UNL     1      47.225   0.633   6.476  0.00  0.00    +0.000 OA
ATOM     25  H   UNL     1      49.195   1.971   5.921  0.00  0.00    +0.000 HD
ATOM     26  H   UNL     1      48.796   3.346   6.893  0.00  0.00    +0.000 HD
ENDBRANCH  16  23
ENDBRANCH  15  19
ENDBRANCH   1  15
TORSDOF 5
ENDMDL
MODEL 3
REMARK VINA RESULT:    -7.023      5.009      8.000
REMARK INTER + INTRA:          -9.887
REMARK INTER:                  -9.567
REMARK INTRA:                  -0.320
REMARK UNBOUND:                -0.811
REMARK  Name = 
REMARK  5 active torsions:
REMARK  status: ('A' for Active; 'I' for Inactive)
REMARK    1  A    between atoms: C_2  and  C_4
REMARK    2  A    between atoms: C_7  and  O_8
REMARK    3  A    between atoms: O_8  and  C_9
REMARK    4  A    between atoms: C_9  and  C_10
REMARK    5  A    between atoms: C_14  and  C_15
REMARK                            x       y       z     vdW  Elec       q    Type
REMARK                         _______ _______ _______ _____ _____    ______ ____
ROOT
ATOM      1  C   UNL     1      46.802   4.096  15.257  0.00  0.00    +0.000 C 
ENDROOT
BRANCH   1   2
ATOM      2  C   UNL     1      46.652   4.913  13.994  0.00  0.00    +0.000 A 
ATOM      3  C   UNL     1      47.619   5.874  13.682  0.00  0.00    +0.000 A 
ATOM      4  C   UNL     1      47.553   6.567  12.479  0.00  0.00    +0.000 A 
ATOM      5  C   UNL     1      46.509   6.321  11.585  0.00  0.00    +0.000 A 
ATOM      6  C   UNL     1      45.491   5.406  11.888  0.00  0.00    +0.000 A 
ATOM      7  C   UNL     1      45.610   4.676  13.084  0.00  0.00    +0.000 A 
BRANCH   6   8
ATOM      8  C   UNL     1      44.292   5.143  10.976  0.00  0.00    +0.000 C 
ATOM      9  C   UNL     1      43.108   4.389  11.611  0.00  0.00    +0.000 C 
ATOM     10  C   UNL     1      43.400   2.898  11.799  0.00  0.00    +0.000 C 
ATOM     11  N   UNL     1      43.778   2.248  10.542  0.00  0.00    +0.000 NA
ATOM     12  C   UNL     1      44.934   2.907   9.931  0.00  0.00    +0.000 C 
ATOM     13  C   UNL     1      44.681   4.394   9.682  0.00  0.00    +0.000 C 
ATOM     14  H   UNL     1      42.990   2.288   9.895  0.00  0.00    +0.000 HD
ENDBRANCH   6   8
ENDBRANCH   1   2
BRANCH   1  15
ATOM     15  O   UNL     1      47.658   4.761  16.191  0.00  0.00    +0.000 OA
BRANCH  15  19
ATOM     16  C   UNL     1      50.854   2.455  17.367  0.00  0.00    +0.000 A 
ATOM     17  C   UNL     1      50.810   3.805  17.718  0.00  0.00    +0.000 A 
ATOM     18  C   UNL     1      49.716   4.575  17.318  0.00  0.00    +0.000 A 
ATOM     19  C   UNL     1      48.710   3.964  16.586  0.00  0.00    +0.000 A 
ATOM     20  N   UNL     1      48.721   2.658  16.240  0.00  0.00    +0.000 NA
ATOM     21  C   UNL     1      49.798   1.935  16.630  0.00  0.00    +0.000 A 
BRANCH  16  23
ATOM     22  N   UNL     1      51.674   0.286  18.105  0.00  0.00    +0.000 N 
ATOM     23  C   UNL     1      51.976   1.558  17.703  0.00  0.00    +0.000 C 
ATOM     24  O   UNL     1      53.140   1.924  17.596  0.00  0.00    +0.000 OA
ATOM     25  H   UNL     1      52.461  -0.337  18.233  0.00  0.00    +0.000 HD
ATOM     26  H   UNL     1      50.764  -0.128  17.972  0.00  0.00    +0.000 HD
ENDBRANCH  16  23
ENDBRANCH  15  19
ENDBRANCH   1  15
TORSDOF 5
ENDMDL
MODEL 4
REMARK VINA RESULT:    -6.452      4.600      8.462
REMARK INTER + INTRA:          -9.149
REMARK INTER:                  -9.001
REMARK INTRA:                  -0.149
REMARK UNBOUND:                -0.811
REMARK  Name = 
REMARK  5 active torsions:
REMARK  status: ('A' for Active; 'I' for Inactive)
REMARK    1  A    between atoms: C_2  and  C_4
REMARK    2  A    between atoms: C_7  and  O_8
REMARK    3  A    between atoms: O_8  and  C_9
REMARK    4  A    between atoms: C_9  and  C_10
REMARK    5  A    between atoms: C_14  and  C_15
REMARK                            x       y       z     vdW  Elec       q    Type
REMARK                         _______ _______ _______ _____ _____    ______ ____
ROOT
ATOM      1  C   UNL     1      47.284   3.747  14.446  0.00  0.00    +0.000 C 
ENDROOT
BRANCH   1   2
ATOM      2  C   UNL     1      46.824   4.715  13.381  0.00  0.00    +0.000 A 
ATOM      3  C   UNL     1      47.546   5.894  13.169  0.00  0.00    +0.000 A 
ATOM      4  C   UNL     1      47.197   6.750  12.130  0.00  0.00    +0.000 A 
ATOM      5  C   UNL     1      46.112   6.446  11.307  0.00  0.00    +0.000 A 
ATOM      6  C   UNL     1      45.330   5.303  11.523  0.00  0.00    +0.000 A 
ATOM      7  C   UNL     1      45.736   4.424  12.543  0.00  0.00    +0.000 A 
BRANCH   6   8
ATOM      8  C   UNL     1      44.094   4.955  10.693  0.00  0.00    +0.000 C 
ATOM      9  C   UNL     1      43.001   4.140  11.410  0.00  0.00    +0.000 C 
ATOM     10  C   UNL     1      43.395   2.672  11.595  0.00  0.00    +0.000 C 
ATOM     11  N   UNL     1      43.733   2.028  10.324  0.00  0.00    +0.000 NA
ATOM     12  C   UNL     1      44.805   2.746   9.633  0.00  0.00    +0.000 C 
ATOM     13  C   UNL     1      44.446   4.212   9.385  0.00  0.00    +0.000 C 
ATOM     14  H   UNL     1      42.904   2.011   9.729  0.00  0.00    +0.000 HD
ENDBRANCH   6   8
ENDBRANCH   1   2
BRANCH   1  15
ATOM     15  O   UNL     1      46.772   4.123  15.727  0.00  0.00    +0.000 OA
BRANCH  15  19
ATOM     16  C   UNL     1      49.695   4.477  18.600  0.00  0.00    +0.000 A 
ATOM     17  C   UNL     1      48.627   3.601  18.805  0.00  0.00    +0.000 A 
ATOM     18  C   UNL     1      47.645   3.486  17.818  0.00  0.00    +0.000 A 
ATOM     19  C   UNL     1      47.772   4.248  16.667  0.00  0.00    +0.000 A 
ATOM     20  N   UNL     1      48.798   5.096  16.438  0.00  0.00    +0.000 NA
ATOM     21  C   UNL     1      49.731   5.199  17.415  0.00  0.00    +0.000 A 
BRANCH  16  23
ATOM     22  N   UNL     1      51.921   3.989  19.449  0.00  0.00    +0.000 N 
ATOM     23  C   UNL     1      50.766   4.707  19.588  0.00  0.00    +0.000 C 
ATOM     24  O   UNL     1      50.642   5.533  20.484  0.00  0.00    +0.000 OA
ATOM     25  H   UNL     1      52.675   4.236  20.078  0.00  0.00    +0.000 HD
ATOM     26  H   UNL     1      52.159   3.492  18.604  0.00  0.00    +0.000 HD
ENDBRANCH  16  23
ENDBRANCH  15  19
ENDBRANCH   1  15
TORSDOF 5
ENDMDL
MODEL 5
REMARK VINA RESULT:    -6.322      4.183      8.298
REMARK INTER + INTRA:          -8.981
REMARK INTER:                  -8.421
REMARK INTRA:                  -0.560
REMARK UNBOUND:                -0.811
REMARK  Name = 
REMARK  5 active torsions:
REMARK  status: ('A' for Active; 'I' for Inactive)
REMARK    1  A    between atoms: C_2  and  C_4
REMARK    2  A    between atoms: C_7  and  O_8
REMARK    3  A    between atoms: O_8  and  C_9
REMARK    4  A    between atoms: C_9  and  C_10
REMARK    5  A    between atoms: C_14  and  C_15
REMARK                            x       y       z     vdW  Elec       q    Type
REMARK                         _______ _______ _______ _____ _____    ______ ____
ROOT
ATOM      1  C   UNL     1      46.144   3.675  14.046  0.00  0.00    +0.000 C 
ENDROOT
BRANCH   1   2
ATOM      2  C   UNL     1      45.903   4.357  12.719  0.00  0.00    +0.000 A 
ATOM      3  C   UNL     1      46.368   5.662  12.525  0.00  0.00    +0.000 A 
ATOM      4  C   UNL     1      46.244   6.270  11.282  0.00  0.00    +0.000 A 
ATOM      5  C   UNL     1      45.635   5.589  10.226  0.00  0.00    +0.000 A 
ATOM      6  C   UNL     1      45.107   4.302  10.397  0.00  0.00    +0.000 A 
ATOM      7  C   UNL     1      45.295   3.685  11.646  0.00  0.00    +0.000 A 
BRANCH   6   8
ATOM      8  C   UNL     1      44.376   3.536   9.294  0.00  0.00    +0.000 C 
ATOM      9  C   UNL     1      44.573   2.008   9.284  0.00  0.00    +0.000 C 
ATOM     10  C   UNL     1      45.955   1.602   8.767  0.00  0.00    +0.000 C 
ATOM     11  N   UNL     1      46.225   2.140   7.432  0.00  0.00    +0.000 NA
ATOM     12  C   UNL     1      46.096   3.598   7.412  0.00  0.00    +0.000 C 
ATOM     13  C   UNL     1      44.715   4.058   7.881  0.00  0.00    +0.000 C 
ATOM     14  H   UNL     1      45.561   1.737   6.770  0.00  0.00    +0.000 HD
ENDBRANCH   6   8
ENDBRANCH   1   2
BRANCH   1  15
ATOM     15  O   UNL     1      47.540   3.434  14.244  0.00  0.00    +0.000 OA
BRANCH  15  19
ATOM     16  C   UNL     1      48.677   4.238  18.114  0.00  0.00    +0.000 A 
ATOM     17  C   UNL     1      48.404   2.922  17.733  0.00  0.00    +0.000 A 
ATOM     18  C   UNL     1      48.025   2.663  16.415  0.00  0.00    +0.000 A 
ATOM     19  C   UNL     1      47.938   3.727  15.531  0.00  0.00    +0.000 A 
ATOM     20  N   UNL     1      48.204   5.007  15.869  0.00  0.00    +0.000 NA
ATOM     21  C   UNL     1      48.558   5.235  17.156  0.00  0.00    +0.000 A 
BRANCH  16  23
ATOM     22  N   UNL     1      48.487   3.933  20.520  0.00  0.00    +0.000 N 
ATOM     23  C   UNL     1      49.047   4.632  19.487  0.00  0.00    +0.000 C 
ATOM     24  O   UNL     1      49.852   5.531  19.698  0.00  0.00    +0.000 OA
ATOM     25  H   UNL     1      48.833   4.157  21.445  0.00  0.00    +0.000 HD
ATOM     26  H   UNL     1      48.024   3.046  20.394  0.00  0.00    +0.000 HD
ENDBRANCH  16  23
ENDBRANCH  15  19
ENDBRANCH   1  15
TORSDOF 5
ENDMDL
MODEL 6
REMARK VINA RESULT:    -6.287      4.323      6.859
REMARK INTER + INTRA:          -8.936
REMARK INTER:                  -8.206
REMARK INTRA:                  -0.730
REMARK UNBOUND:                -0.811
REMARK  Name = 
REMARK  5 active torsions:
REMARK  status: ('A' for Active; 'I' for Inactive)
REMARK    1  A    between atoms: C_2  and  C_4
REMARK    2  A    between atoms: C_7  and  O_8
REMARK    3  A    between atoms: O_8  and  C_9
REMARK    4  A    between atoms: C_9  and  C_10
REMARK    5  A    between atoms: C_14  and  C_15
REMARK                            x       y       z     vdW  Elec       q    Type
REMARK                         _______ _______ _______ _____ _____    ______ ____
ROOT
ATOM      1  C   UNL     1      49.045   7.618  14.002  0.00  0.00    +0.000 C 
ENDROOT
BRANCH   1   2
ATOM      2  C   UNL     1      49.097   7.507  15.508  0.00  0.00    +0.000 A 
ATOM      3  C   UNL     1      48.504   8.505  16.289  0.00  0.00    +0.000 A 
ATOM      4  C   UNL     1      48.455   8.373  17.672  0.00  0.00    +0.000 A 
ATOM      5  C   UNL     1      49.016   7.254  18.289  0.00  0.00    +0.000 A 
ATOM      6  C   UNL     1      49.668   6.261  17.545  0.00  0.00    +0.000 A 
ATOM      7  C   UNL     1      49.655   6.387  16.145  0.00  0.00    +0.000 A 
BRANCH   6   8
ATOM      8  C   UNL     1      50.354   5.048  18.174  0.00  0.00    +0.000 C 
ATOM      9  C   UNL     1      49.968   3.674  17.595  0.00  0.00    +0.000 C 
ATOM     10  C   UNL     1      48.574   3.224  18.040  0.00  0.00    +0.000 C 
ATOM     11  N   UNL     1      48.443   3.195  19.498  0.00  0.00    +0.000 NA
ATOM     12  C   UNL     1      48.755   4.500  20.085  0.00  0.00    +0.000 C 
ATOM     13  C   UNL     1      50.157   4.979  19.705  0.00  0.00    +0.000 C 
ATOM     14  H   UNL     1      49.085   2.497  19.876  0.00  0.00    +0.000 HD
ENDBRANCH   6   8
ENDBRANCH   1   2
BRANCH   1  15
ATOM     15  O   UNL     1      48.971   6.322  13.402  0.00  0.00    +0.000 OA
BRANCH  15  19
ATOM     16  C   UNL     1      45.066   5.066  13.109  0.00  0.00    +0.000 A 
ATOM     17  C   UNL     1      45.415   6.347  12.674  0.00  0.00    +0.000 A 
ATOM     18  C   UNL     1      46.745   6.758  12.773  0.00  0.00    +0.000 A 
ATOM     19  C   UNL     1      47.673   5.872  13.300  0.00  0.00    +0.000 A 
ATOM     20  N   UNL     1      47.366   4.626  13.720  0.00  0.00    +0.000 NA
ATOM     21  C   UNL     1      46.067   4.255  13.624  0.00  0.00    +0.000 A 
BRANCH  16  23
ATOM     22  N   UNL     1      42.664   5.449  13.043  0.00  0.00    +0.000 N 
ATOM     23  C   UNL     1      43.687   4.542  13.086  0.00  0.00    +0.000 C 
ATOM     24  O   UNL     1      43.461   3.338  13.075  0.00  0.00    +0.000 OA
ATOM     25  H   UNL     1      41.735   5.064  12.928  0.00  0.00    +0.000 HD
ATOM     26  H   UNL     1      42.803   6.420  12.805  0.00  0.00    +0.000 HD
ENDBRANCH  16  23
ENDBRANCH  15  19
ENDBRANCH   1  15
TORSDOF 5
ENDMDL
MODEL 7
REMARK VINA RESULT:    -6.136      4.152      8.063
REMARK INTER + INTRA:          -8.741
REMARK INTER:                  -8.186
REMARK INTRA:                  -0.555
REMARK UNBOUND:                -0.811
REMARK  Name = 
REMARK  5 active torsions:
REMARK  status: ('A' for Active; 'I' for Inactive)
REMARK    1  A    between atoms: C_2  and  C_4
REMARK    2  A    between atoms: C_7  and  O_8
REMARK    3  A    between atoms: O_8  and  C_9
REMARK    4  A    between atoms: C_9  and  C_10
REMARK    5  A    between atoms: C_14  and  C_15
REMARK                            x       y       z     vdW  Elec       q    Type
REMARK                         _______ _______ _______ _____ _____    ______ ____
ROOT
ATOM      1  C   UNL     1      48.353   7.407  13.580  0.00  0.00    +0.000 C 
ENDROOT
BRANCH   1   2
ATOM      2  C   UNL     1      47.011   7.622  12.920  0.00  0.00    +0.000 A 
ATOM      3  C   UNL     1      46.470   8.911  12.872  0.00  0.00    +0.000 A 
ATOM      4  C   UNL     1      45.285   9.147  12.184  0.00  0.00    +0.000 A 
ATOM      5  C   UNL     1      44.619   8.093  11.555  0.00  0.00    +0.000 A 
ATOM      6  C   UNL     1      45.101   6.779  11.628  0.00  0.00    +0.000 A 
ATOM      7  C   UNL     1      46.330   6.574  12.280  0.00  0.00    +0.000 A 
BRANCH   6   8
ATOM      8  C   UNL     1      44.380   5.580  11.012  0.00  0.00    +0.000 C 
ATOM      9  C   UNL     1      42.950   5.313  11.519  0.00  0.00    +0.000 C 
ATOM     10  C   UNL     1      42.934   4.708  12.926  0.00  0.00    +0.000 C 
ATOM     11  N   UNL     1      43.720   3.475  13.005  0.00  0.00    +0.000 NA
ATOM     12  C   UNL     1      45.102   3.698  12.576  0.00  0.00    +0.000 C 
ATOM     13  C   UNL     1      45.178   4.265  11.157  0.00  0.00    +0.000 C 
ATOM     14  H   UNL     1      43.294   2.769  12.403  0.00  0.00    +0.000 HD
ENDBRANCH   6   8
ENDBRANCH   1   2
BRANCH   1  15
ATOM     15  O   UNL     1      48.551   6.024  13.884  0.00  0.00    +0.000 OA
BRANCH  15  19
ATOM     16  C   UNL     1      48.372   5.324  17.933  0.00  0.00    +0.000 A 
ATOM     17  C   UNL     1      48.963   6.498  17.460  0.00  0.00    +0.000 A 
ATOM     18  C   UNL     1      49.011   6.726  16.083  0.00  0.00    +0.000 A 
ATOM     19  C   UNL     1      48.465   5.774  15.237  0.00  0.00    +0.000 A 
ATOM     20  N   UNL     1      47.880   4.635  15.666  0.00  0.00    +0.000 NA
ATOM     21  C   UNL     1      47.856   4.431  17.005  0.00  0.00    +0.000 A 
BRANCH  16  23
ATOM     22  N   UNL     1      48.404   3.639  19.687  0.00  0.00    +0.000 N 
ATOM     23  C   UNL     1      48.300   4.963  19.362  0.00  0.00    +0.000 C 
ATOM     24  O   UNL     1      48.183   5.818  20.232  0.00  0.00    +0.000 OA
ATOM     25  H   UNL     1      48.452   3.428  20.677  0.00  0.00    +0.000 HD
ATOM     26  H   UNL     1      48.743   2.942  19.042  0.00  0.00    +0.000 HD
ENDBRANCH  16  23
ENDBRANCH  15  19
ENDBRANCH   1  15
TORSDOF 5
ENDMDL
MODEL 8
REMARK VINA RESULT:    -6.072      5.932      8.510
REMARK INTER + INTRA:          -8.658
REMARK INTER:                  -8.058
REMARK INTRA:                  -0.600
REMARK UNBOUND:                -0.811
REMARK  Name = 
REMARK  5 active torsions:
REMARK  status: ('A' for Active; 'I' for Inactive)
REMARK    1  A    between atoms: C_2  and  C_4
REMARK    2  A    between atoms: C_7  and  O_8
REMARK    3  A    between atoms: O_8  and  C_9
REMARK    4  A    between atoms: C_9  and  C_10
REMARK    5  A    between atoms: C_14  and  C_15
REMARK                            x       y       z     vdW  Elec       q    Type
REMARK                         _______ _______ _______ _____ _____    ______ ____
ROOT
ATOM      1  C   UNL     1      47.971   3.725  16.800  0.00  0.00    +0.000 C 
ENDROOT
BRANCH   1   2
ATOM      2  C   UNL     1      47.747   4.679  15.650  0.00  0.00    +0.000 A 
ATOM      3  C   UNL     1      48.355   5.938  15.676  0.00  0.00    +0.000 A 
ATOM      4  C   UNL     1      48.242   6.791  14.585  0.00  0.00    +0.000 A 
ATOM      5  C   UNL     1      47.502   6.404  13.466  0.00  0.00    +0.000 A 
ATOM      6  C   UNL     1      46.832   5.173  13.426  0.00  0.00    +0.000 A 
ATOM      7  C   UNL     1      47.008   4.303  14.516  0.00  0.00    +0.000 A 
BRANCH   6   8
ATOM      8  C   UNL     1      45.958   4.726  12.254  0.00  0.00    +0.000 C 
ATOM      9  C   UNL     1      45.618   5.806  11.209  0.00  0.00    +0.000 C 
ATOM     10  C   UNL     1      44.573   6.802  11.719  0.00  0.00    +0.000 C 
ATOM     11  N   UNL     1      43.343   6.136  12.153  0.00  0.00    +0.000 NA
ATOM     12  C   UNL     1      43.618   5.133  13.185  0.00  0.00    +0.000 C 
ATOM     13  C   UNL     1      44.628   4.087  12.712  0.00  0.00    +0.000 C 
ATOM     14  H   UNL     1      42.910   5.679  11.350  0.00  0.00    +0.000 HD
ENDBRANCH   6   8
ENDBRANCH   1   2
BRANCH   1  15
ATOM     15  O   UNL     1      48.683   2.564  16.363  0.00  0.00    +0.000 OA
BRANCH  15  19
ATOM     16  C   UNL     1      52.413   2.374  18.085  0.00  0.00    +0.000 A 
ATOM     17  C   UNL     1      51.682   3.562  18.149  0.00  0.00    +0.000 A 
ATOM     18  C   UNL     1      50.414   3.610  17.566  0.00  0.00    +0.000 A 
ATOM     19  C   UNL     1      49.928   2.470  16.945  0.00  0.00    +0.000 A 
ATOM     20  N   UNL     1      50.609   1.306  16.875  0.00  0.00    +0.000 NA
ATOM     21  C   UNL     1      51.841   1.287  17.438  0.00  0.00    +0.000 A 
BRANCH  16  23
ATOM     22  N   UNL     1      54.809   2.126  17.742  0.00  0.00    +0.000 N 
ATOM     23  C   UNL     1      53.775   2.221  18.632  0.00  0.00    +0.000 C 
ATOM     24  O   UNL     1      53.981   2.210  19.839  0.00  0.00    +0.000 OA
ATOM     25  H   UNL     1      55.739   2.122  18.142  0.00  0.00    +0.000 HD
ATOM     26  H   UNL     1      54.717   2.373  16.768  0.00  0.00    +0.000 HD
ENDBRANCH  16  23
ENDBRANCH  15  19
ENDBRANCH   1  15
TORSDOF 5
ENDMDL
MODEL 9
REMARK VINA RESULT:    -6.050      3.519      5.702
REMARK INTER + INTRA:          -8.629
REMARK INTER:                  -7.932
REMARK INTRA:                  -0.697
REMARK UNBOUND:                -0.811
REMARK  Name = 
REMARK  5 active torsions:
REMARK  status: ('A' for Active; 'I' for Inactive)
REMARK    1  A    between atoms: C_2  and  C_4
REMARK    2  A    between atoms: C_7  and  O_8
REMARK    3  A    between atoms: O_8  and  C_9
REMARK    4  A    between atoms: C_9  and  C_10
REMARK    5  A    between atoms: C_14  and  C_15
REMARK                            x       y       z     vdW  Elec       q    Type
REMARK                         _______ _______ _______ _____ _____    ______ ____
ROOT
ATOM      1  C   UNL     1      48.151   7.151  12.931  0.00  0.00    +0.000 C 
ENDROOT
BRANCH   1   2
ATOM      2  C   UNL     1      48.952   7.033  14.208  0.00  0.00    +0.000 A 
ATOM      3  C   UNL     1      50.234   7.589  14.266  0.00  0.00    +0.000 A 
ATOM      4  C   UNL     1      50.947   7.578  15.458  0.00  0.00    +0.000 A 
ATOM      5  C   UNL     1      50.395   6.993  16.599  0.00  0.00    +0.000 A 
ATOM      6  C   UNL     1      49.137   6.375  16.566  0.00  0.00    +0.000 A 
ATOM      7  C   UNL     1      48.410   6.450  15.364  0.00  0.00    +0.000 A 
BRANCH   6   8
ATOM      8  C   UNL     1      48.512   5.666  17.767  0.00  0.00    +0.000 C 
ATOM      9  C   UNL     1      49.482   5.253  18.891  0.00  0.00    +0.000 C 
ATOM     10  C   UNL     1      50.335   4.040  18.509  0.00  0.00    +0.000 C 
ATOM     11  N   UNL     1      49.515   2.890  18.122  0.00  0.00    +0.000 NA
ATOM     12  C   UNL     1      48.612   3.228  17.020  0.00  0.00    +0.000 C 
ATOM     13  C   UNL     1      47.706   4.411  17.365  0.00  0.00    +0.000 C 
ATOM     14  H   UNL     1      48.963   2.589  18.926  0.00  0.00    +0.000 HD
ENDBRANCH   6   8
ENDBRANCH   1   2
BRANCH   1  15
ATOM     15  O   UNL     1      46.749   7.177  13.214  0.00  0.00    +0.000 OA
BRANCH  15  19
ATOM     16  C   UNL     1      44.745   4.031  11.481  0.00  0.00    +0.000 A 
ATOM     17  C   UNL     1      45.234   5.065  10.680  0.00  0.00    +0.000 A 
ATOM     18  C   UNL     1      45.918   6.124  11.280  0.00  0.00    +0.000 A 
ATOM     19  C   UNL     1      46.088   6.105  12.656  0.00  0.00    +0.000 A 
ATOM     20  N   UNL     1      45.635   5.114  13.454  0.00  0.00    +0.000 NA
ATOM     21  C   UNL     1      44.964   4.105  12.850  0.00  0.00    +0.000 A 
BRANCH  16  23
ATOM     22  N   UNL     1      44.462   2.248   9.851  0.00  0.00    +0.000 N 
ATOM     23  C   UNL     1      43.977   2.885  10.959  0.00  0.00    +0.000 C 
ATOM     24  O   UNL     1      42.957   2.494  11.514  0.00  0.00    +0.000 OA
ATOM     25  H   UNL     1      43.972   1.406   9.574  0.00  0.00    +0.000 HD
ATOM     26  H   UNL     1      45.405   2.374   9.516  0.00  0.00    +0.000 HD
ENDBRANCH  16  23
ENDBRANCH  15  19
ENDBRANCH   1  15
TORSDOF 5
ENDMDL
