MODEL 1
REMARK VINA RESULT:    -8.017      0.000      0.000
REMARK INTER + INTRA:         -11.232
REMARK INTER:                 -10.594
REMARK INTRA:                  -0.638
REMARK UNBOUND:                -0.638
REMARK  Name = 
REMARK  6 active torsions:
REMARK  status: ('A' for Active; 'I' for Inactive)
REMARK    1  A    between atoms: N_1  and  C_2
REMARK    2  A    between atoms: C_2  and  C_3
REMARK    3  A    between atoms: C_3  and  C_4
REMARK    4  A    between atoms: C_7  and  C_8
REMARK    5  A    between atoms: C_8  and  N_9
REMARK    6  A    between atoms: C_15  and  C_16
REMARK                            x       y       z     vdW  Elec       q    Type
REMARK                         _______ _______ _______ _____ _____    ______ ____
ROOT
ATOM      1  N   UNL     1      44.817   5.373  11.695  0.00  0.00    +0.000 N 
ATOM      2  C   UNL     1      45.667   4.641  12.491  0.00  0.00    +0.000 A 
ATOM      3  C   UNL     1      46.432   5.521  13.224  0.00  0.00    +0.000 A 
ATOM      4  C   UNL     1      46.024   6.835  12.876  0.00  0.00    +0.000 A 
ATOM      5  C   UNL     1      46.429   8.124  13.255  0.00  0.00    +0.000 A 
ATOM      6  C   UNL     1      45.779   9.206  12.670  0.00  0.00    +0.000 A 
ATOM      7  C   UNL     1      44.756   8.964  11.758  0.00  0.00    +0.000 A 
ATOM      8  N   UNL     1      44.307   7.732  11.361  0.00  0.00    +0.000 NA
ATOM      9  C   UNL     1      44.991   6.719  11.941  0.00  0.00    +0.000 A 
ENDROOT
BRANCH   7  10
ATOM     10  C   UNL     1      44.084  10.152  11.129  0.00  0.00    +0.000 C 
ATOM     11  N   UNL     1      43.733  10.010   9.812  0.00  0.00    +0.000 N 
ATOM     12  O   UNL     1      43.859  11.189  11.737  0.00  0.00    +0.000 OA
ATOM     13  H   UNL     1      43.924   9.140   9.333  0.00  0.00    +0.000 HD
ATOM     14  H   UNL     1      43.300  10.785   9.333  0.00  0.00    +0.000 HD
ENDBRANCH   7  10
BRANCH   1  15
ATOM     15  C   UNL     1      43.875   4.794  10.746  0.00  0.00    +0.000 C 
BRANCH  15  19
ATOM     16  C   UNL     1      46.027   2.296   7.936  0.00  0.00    +0.000 A 
ATOM     17  C   UNL     1      45.163   1.720   8.877  0.00  0.00    +0.000 A 
ATOM     18  C   UNL     1      44.448   2.522   9.771  0.00  0.00    +0.000 A 
ATOM     19  C   UNL     1      44.576   3.918   9.737  0.00  0.00    +0.000 A 
ATOM     20  C   UNL     1      45.411   4.492   8.769  0.00  0.00    +0.000 A 
ATOM     21  C   UNL     1      46.126   3.691   7.875  0.00  0.00    +0.000 A 
BRANCH  16  22
ATOM     22  C   UNL     1      46.848   1.430   7.013  0.00  0.00    +0.000 C 
BRANCH  22  23
ATOM     23  C   UNL     1      48.172   2.090   6.619  0.00  0.00    +0.000 C 
BRANCH  23  24
ATOM     24  N   UNL     1      48.395   2.007   5.176  0.00  0.00    +0.000 NA
ATOM     25  H   UNL     1      47.847   1.234   4.796  0.00  0.00    +0.000 HD
ATOM     26  H   UNL     1      49.371   1.781   4.992  0.00  0.00    +0.000 HD
ENDBRANCH  23  24
ENDBRANCH  22  23
ENDBRANCH  16  22
ENDBRANCH  15  19
ENDBRANCH   1  15
TORSDOF 6
ENDMDL
MODEL 2
REMARK VINA RESULT:    -7.775      2.518      3.827
REMARK INTER + INTRA:         -10.912
REMARK INTER:                 -10.344
REMARK INTRA:                  -0.568
REMARK UNBOUND:                -0.638
REMARK  Name = 
REMARK  6 active torsions:
REMARK  status: ('A' for Active; 'I' for Inactive)
REMARK    1  A    between atoms: N_1  and  C_2
REMARK    2  A    between atoms: C_2  and  C_3
REMARK    3  A    between atoms: C_3  and  C_4
REMARK    4  A    between atoms: C_7  and  C_8
REMARK    5  A    between atoms: C_8  and  N_9
REMARK    6  A    between atoms: C_15  and  C_16
REMARK                            x       y       z     vdW  Elec       q    Type
REMARK                         _______ _______ _______ _____ _____    ______ ____
ROOT
ATOM      1  N   UNL     1      44.580   6.240  11.488  0.00  0.00    +0.000 N 
ATOM      2  C   UNL     1      44.577   7.546  11.054  0.00  0.00    +0.000 A 
ATOM      3  C   UNL     1      45.525   8.238  11.774  0.00  0.00    +0.000 A 
ATOM      4  C   UNL     1      46.140   7.321  12.665  0.00  0.00    +0.000 A 
ATOM      5  C   UNL     1      47.137   7.421  13.647  0.00  0.00    +0.000 A 
ATOM      6  C   UNL     1      47.476   6.268  14.348  0.00  0.00    +0.000 A 
ATOM      7  C   UNL     1      46.831   5.076  14.034  0.00  0.00    +0.000 A 
ATOM      8  N   UNL     1      45.864   4.912  13.078  0.00  0.00    +0.000 NA
ATOM      9  C   UNL     1      45.556   6.070  12.448  0.00  0.00    +0.000 A 
ENDROOT
BRANCH   7  10
ATOM     10  C   UNL     1      47.205   3.850  14.819  0.00  0.00    +0.000 C 
ATOM     11  N   UNL     1      47.083   3.954  16.180  0.00  0.00    +0.000 N 
ATOM     12  O   UNL     1      47.598   2.817  14.294  0.00  0.00    +0.000 OA
ATOM     13  H   UNL     1      46.750   4.817  16.589  0.00  0.00    +0.000 HD
ATOM     14  H   UNL     1      47.343   3.168  16.758  0.00  0.00    +0.000 HD
ENDBRANCH   7  10
BRANCH   1  15
ATOM     15  C   UNL     1      43.685   5.204  10.988  0.00  0.00    +0.000 C 
BRANCH  15  19
ATOM     16  C   UNL     1      45.823   2.630   8.238  0.00  0.00    +0.000 A 
ATOM     17  C   UNL     1      44.936   2.082   9.173  0.00  0.00    +0.000 A 
ATOM     18  C   UNL     1      44.225   2.910  10.048  0.00  0.00    +0.000 A 
ATOM     19  C   UNL     1      44.381   4.302   9.999  0.00  0.00    +0.000 A 
ATOM     20  C   UNL     1      45.241   4.847   9.035  0.00  0.00    +0.000 A 
ATOM     21  C   UNL     1      45.951   4.021   8.161  0.00  0.00    +0.000 A 
BRANCH  16  22
ATOM     22  C   UNL     1      46.639   1.736   7.336  0.00  0.00    +0.000 C 
BRANCH  22  23
ATOM     23  C   UNL     1      47.915   2.419   6.837  0.00  0.00    +0.000 C 
BRANCH  23  24
ATOM     24  N   UNL     1      48.433   1.760   5.639  0.00  0.00    +0.000 NA
ATOM     25  H   UNL     1      49.067   1.010   5.916  0.00  0.00    +0.000 HD
ATOM     26  H   UNL     1      48.990   2.419   5.098  0.00  0.00    +0.000 HD
ENDBRANCH  23  24
ENDBRANCH  22  23
ENDBRANCH  16  22
ENDBRANCH  15  19
ENDBRANCH   1  15
TORSDOF 6
ENDMDL
MODEL 3
REMARK VINA RESULT:    -7.022      1.856      2.137
REMARK INTER + INTRA:          -9.918
REMARK INTER:                  -9.295
REMARK INTRA:                  -0.623
REMARK UNBOUND:                -0.638
REMARK  Name = 
REMARK  6 active torsions:
REMARK  status: ('A' for Active; 'I' for Inactive)
REMARK    1  A    between atoms: N_1  and  C_2
REMARK    2  A    between atoms: C_2  and  C_3
REMARK    3  A    between atoms: C_3  and  C_4
REMARK    4  A    between atoms: C_7  and  C_8
REMARK    5  A    between atoms: C_8  and  N_9
REMARK    6  A    between atoms: C_15  and  C_16
REMARK                            x       y       z     vdW  Elec       q    Type
REMARK                         _______ _______ _______ _____ _____    ______ ____
ROOT
ATOM      1  N   UNL     1      45.487   5.419  12.193  0.00  0.00    +0.000 N 
ATOM      2  C   UNL     1      45.604   4.308  12.997  0.00  0.00    +0.000 A 
ATOM      3  C   UNL     1      46.623   4.535  13.894  0.00  0.00    +0.000 A 
ATOM      4  C   UNL     1      47.134   5.835  13.643  0.00  0.00    +0.000 A 
ATOM      5  C   UNL     1      48.165   6.611  14.194  0.00  0.00    +0.000 A 
ATOM      6  C   UNL     1      48.384   7.876  13.657  0.00  0.00    +0.000 A 
ATOM      7  C   UNL     1      47.567   8.317  12.620  0.00  0.00    +0.000 A 
ATOM      8  N   UNL     1      46.538   7.613  12.052  0.00  0.00    +0.000 NA
ATOM      9  C   UNL     1      46.389   6.382  12.594  0.00  0.00    +0.000 A 
ENDROOT
BRANCH   7  10
ATOM     10  C   UNL     1      47.837   9.680  12.049  0.00  0.00    +0.000 C 
ATOM     11  N   UNL     1      48.962   9.788  11.274  0.00  0.00    +0.000 N 
ATOM     12  O   UNL     1      47.112  10.643  12.252  0.00  0.00    +0.000 OA
ATOM     13  H   UNL     1      49.543   8.975  11.115  0.00  0.00    +0.000 HD
ATOM     14  H   UNL     1      49.205  10.687  10.883  0.00  0.00    +0.000 HD
ENDBRANCH   7  10
BRANCH   1  15
ATOM     15  C   UNL     1      44.539   5.543  11.093  0.00  0.00    +0.000 C 
BRANCH  15  19
ATOM     16  C   UNL     1      45.851   3.068   7.789  0.00  0.00    +0.000 A 
ATOM     17  C   UNL     1      44.879   2.598   8.681  0.00  0.00    +0.000 A 
ATOM     18  C   UNL     1      44.434   3.401   9.737  0.00  0.00    +0.000 A 
ATOM     19  C   UNL     1      44.947   4.694   9.915  0.00  0.00    +0.000 A 
ATOM     20  C   UNL     1      45.891   5.174   8.996  0.00  0.00    +0.000 A 
ATOM     21  C   UNL     1      46.335   4.373   7.942  0.00  0.00    +0.000 A 
BRANCH  16  22
ATOM     22  C   UNL     1      46.379   2.181   6.688  0.00  0.00    +0.000 C 
BRANCH  22  23
ATOM     23  C   UNL     1      47.894   1.979   6.779  0.00  0.00    +0.000 C 
BRANCH  23  24
ATOM     24  N   UNL     1      48.497   1.912   5.448  0.00  0.00    +0.000 NA
ATOM     25  H   UNL     1      48.142   2.681   4.880  0.00  0.00    +0.000 HD
ATOM     26  H   UNL     1      48.205   1.054   4.982  0.00  0.00    +0.000 HD
ENDBRANCH  23  24
ENDBRANCH  22  23
ENDBRANCH  16  22
ENDBRANCH  15  19
ENDBRANCH   1  15
TORSDOF 6
ENDMDL
MODEL 4
REMARK VINA RESULT:    -6.461      5.228      7.854
REMARK INTER + INTRA:          -9.176
REMARK INTER:                  -9.041
REMARK INTRA:                  -0.135
REMARK UNBOUND:                -0.638
REMARK  Name = 
REMARK  6 active torsions:
REMARK  status: ('A' for Active; 'I' for Inactive)
REMARK    1  A    between atoms: N_1  and  C_2
REMARK    2  A    between atoms: C_2  and  C_3
REMARK    3  A    between atoms: C_3  and  C_4
REMARK    4  A    between atoms: C_7  and  C_8
REMARK    5  A    between atoms: C_8  and  N_9
REMARK    6  A    between atoms: C_15  and  C_16
REMARK                            x       y       z     vdW  Elec       q    Type
REMARK                         _______ _______ _______ _____ _____    ______ ____
ROOT
ATOM      1  N   UNL     1      47.328   5.122  15.057  0.00  0.00    +0.000 N 
ATOM      2  C   UNL     1      48.296   6.095  14.968  0.00  0.00    +0.000 A 
ATOM      3  C   UNL     1      48.208   6.674  13.722  0.00  0.00    +0.000 A 
ATOM      4  C   UNL     1      47.138   6.045  13.033  0.00  0.00    +0.000 A 
ATOM      5  C   UNL     1      46.581   6.176  11.751  0.00  0.00    +0.000 A 
ATOM      6  C   UNL     1      45.513   5.349  11.421  0.00  0.00    +0.000 A 
ATOM      7  C   UNL     1      45.037   4.451  12.372  0.00  0.00    +0.000 A 
ATOM      8  N   UNL     1      45.528   4.289  13.640  0.00  0.00    +0.000 NA
ATOM      9  C   UNL     1      46.582   5.098  13.897  0.00  0.00    +0.000 A 
ENDROOT
BRANCH   7  10
ATOM     10  C   UNL     1      43.893   3.559  11.981  0.00  0.00    +0.000 C 
ATOM     11  N   UNL     1      43.854   2.336  12.599  0.00  0.00    +0.000 N 
ATOM     12  O   UNL     1      43.043   3.885  11.165  0.00  0.00    +0.000 OA
ATOM     13  H   UNL     1      44.565   2.093  13.276  0.00  0.00    +0.000 HD
ATOM     14  H   UNL     1      43.119   1.687  12.357  0.00  0.00    +0.000 HD
ENDBRANCH   7  10
BRANCH   1  15
ATOM     15  C   UNL     1      47.130   4.260  16.216  0.00  0.00    +0.000 C 
BRANCH  15  19
ATOM     16  C   UNL     1      50.958   2.737  17.557  0.00  0.00    +0.000 A 
ATOM     17  C   UNL     1      50.598   4.067  17.811  0.00  0.00    +0.000 A 
ATOM     18  C   UNL     1      49.354   4.558  17.401  0.00  0.00    +0.000 A 
ATOM     19  C   UNL     1      48.442   3.726  16.737  0.00  0.00    +0.000 A 
ATOM     20  C   UNL     1      48.791   2.386  16.519  0.00  0.00    +0.000 A 
ATOM     21  C   UNL     1      50.033   1.895  16.928  0.00  0.00    +0.000 A 
BRANCH  16  22
ATOM     22  C   UNL     1      52.324   2.222  17.941  0.00  0.00    +0.000 C 
BRANCH  22  23
ATOM     23  C   UNL     1      52.630   0.860  17.313  0.00  0.00    +0.000 C 
BRANCH  23  24
ATOM     24  N   UNL     1      52.671  -0.191  18.329  0.00  0.00    +0.000 NA
ATOM     25  H   UNL     1      53.636  -0.494  18.460  0.00  0.00    +0.000 HD
ATOM     26  H   UNL     1      52.159  -1.008  17.998  0.00  0.00    +0.000 HD
ENDBRANCH  23  24
ENDBRANCH  22  23
ENDBRANCH  16  22
ENDBRANCH  15  19
ENDBRANCH   1  15
TORSDOF 6
ENDMDL
MODEL 5
REMARK VINA RESULT:    -6.179      3.097      6.913
REMARK INTER + INTRA:          -8.803
REMARK INTER:                  -8.233
REMARK INTRA:                  -0.571
REMARK UNBOUND:                -0.638
REMARK  Name = 
REMARK  6 active torsions:
REMARK  status: ('A' for Active; 'I' for Inactive)
REMARK    1  A    between atoms: N_1  and  C_2
REMARK    2  A    between atoms: C_2  and  C_3
REMARK    3  A    between atoms: C_3  and  C_4
REMARK    4  A    between atoms: C_7  and  C_8
REMARK    5  A    between atoms: C_8  and  N_9
REMARK    6  A    between atoms: C_15  and  C_16
REMARK                            x       y       z     vdW  Elec       q    Type
REMARK                         _______ _______ _______ _____ _____    ______ ____
ROOT
ATOM      1  N   UNL     1      44.363   5.869  11.616  0.00  0.00    +0.000 N 
ATOM      2  C   UNL     1      43.564   5.504  12.675  0.00  0.00    +0.000 A 
ATOM      3  C   UNL     1      43.220   4.180  12.514  0.00  0.00    +0.000 A 
ATOM      4  C   UNL     1      43.845   3.717  11.326  0.00  0.00    +0.000 A 
ATOM      5  C   UNL     1      43.860   2.496  10.634  0.00  0.00    +0.000 A 
ATOM      6  C   UNL     1      44.602   2.425   9.459  0.00  0.00    +0.000 A 
ATOM      7  C   UNL     1      45.303   3.551   9.038  0.00  0.00    +0.000 A 
ATOM      8  N   UNL     1      45.339   4.762   9.677  0.00  0.00    +0.000 NA
ATOM      9  C   UNL     1      44.579   4.781  10.797  0.00  0.00    +0.000 A 
ENDROOT
BRANCH   7  10
ATOM     10  C   UNL     1      46.082   3.451   7.757  0.00  0.00    +0.000 C 
ATOM     11  N   UNL     1      46.459   2.186   7.386  0.00  0.00    +0.000 N 
ATOM     12  O   UNL     1      46.371   4.424   7.076  0.00  0.00    +0.000 OA
ATOM     13  H   UNL     1      46.202   1.396   7.963  0.00  0.00    +0.000 HD
ATOM     14  H   UNL     1      47.005   2.063   6.546  0.00  0.00    +0.000 HD
ENDBRANCH   7  10
BRANCH   1  15
ATOM     15  C   UNL     1      44.898   7.210  11.414  0.00  0.00    +0.000 C 
BRANCH  15  19
ATOM     16  C   UNL     1      48.503   7.941  13.702  0.00  0.00    +0.000 A 
ATOM     17  C   UNL     1      47.441   8.854  13.746  0.00  0.00    +0.000 A 
ATOM     18  C   UNL     1      46.265   8.612  13.027  0.00  0.00    +0.000 A 
ATOM     19  C   UNL     1      46.126   7.448  12.258  0.00  0.00    +0.000 A 
ATOM     20  C   UNL     1      47.176   6.519  12.249  0.00  0.00    +0.000 A 
ATOM     21  C   UNL     1      48.350   6.760  12.966  0.00  0.00    +0.000 A 
BRANCH  16  22
ATOM     22  C   UNL     1      49.796   8.230  14.425  0.00  0.00    +0.000 C 
BRANCH  22  23
ATOM     23  C   UNL     1      50.165   7.129  15.422  0.00  0.00    +0.000 C 
BRANCH  23  24
ATOM     24  N   UNL     1      51.616   6.998  15.549  0.00  0.00    +0.000 NA
ATOM     25  H   UNL     1      51.896   7.267  16.493  0.00  0.00    +0.000 HD
ATOM     26  H   UNL     1      52.077   7.653  14.918  0.00  0.00    +0.000 HD
ENDBRANCH  23  24
ENDBRANCH  22  23
ENDBRANCH  16  22
ENDBRANCH  15  19
ENDBRANCH   1  15
TORSDOF 6
ENDMDL
MODEL 6
REMARK VINA RESULT:    -6.169      3.629      7.449
REMARK INTER + INTRA:          -8.791
REMARK INTER:                  -8.193
REMARK INTRA:                  -0.598
REMARK UNBOUND:                -0.638
REMARK  Name = 
REMARK  6 active torsions:
REMARK  status: ('A' for Active; 'I' for Inactive)
REMARK    1  A    between atoms: N_1  and  C_2
REMARK    2  A    between atoms: C_2  and  C_3
REMARK    3  A    between atoms: C_3  and  C_4
REMARK    4  A    between atoms: C_7  and  C_8
REMARK    5  A    between atoms: C_8  and  N_9
REMARK    6  A    between atoms: C_15  and  C_16
REMARK                            x       y       z     vdW  Elec       q    Type
REMARK                         _______ _______ _______ _____ _____    ______ ____
ROOT
ATOM      1  N   UNL     1      46.512   6.847  12.339  0.00  0.00    +0.000 N 
ATOM      2  C   UNL     1      46.228   8.192  12.415  0.00  0.00    +0.000 A 
ATOM      3  C   UNL     1      44.926   8.377  12.008  0.00  0.00    +0.000 A 
ATOM      4  C   UNL     1      44.391   7.102  11.688  0.00  0.00    +0.000 A 
ATOM      5  C   UNL     1      43.154   6.646  11.207  0.00  0.00    +0.000 A 
ATOM      6  C   UNL     1      43.004   5.279  10.997  0.00  0.00    +0.000 A 
ATOM      7  C   UNL     1      44.069   4.433  11.287  0.00  0.00    +0.000 A 
ATOM      8  N   UNL     1      45.292   4.816  11.772  0.00  0.00    +0.000 NA
ATOM      9  C   UNL     1      45.390   6.156  11.931  0.00  0.00    +0.000 A 
ENDROOT
BRANCH   7  10
ATOM     10  C   UNL     1      43.884   2.963  11.034  0.00  0.00    +0.000 C 
ATOM     11  N   UNL     1      44.820   2.375  10.224  0.00  0.00    +0.000 N 
ATOM     12  O   UNL     1      42.962   2.316  11.511  0.00  0.00    +0.000 OA
ATOM     13  H   UNL     1      45.577   2.930   9.847  0.00  0.00    +0.000 HD
ATOM     14  H   UNL     1      44.731   1.395  10.001  0.00  0.00    +0.000 HD
ENDBRANCH   7  10
BRANCH   1  15
ATOM     15  C   UNL     1      47.809   6.261  12.654  0.00  0.00    +0.000 C 
BRANCH  15  19
ATOM     16  C   UNL     1      48.209   5.090  16.805  0.00  0.00    +0.000 A 
ATOM     17  C   UNL     1      48.801   6.273  16.344  0.00  0.00    +0.000 A 
ATOM     18  C   UNL     1      48.656   6.669  15.011  0.00  0.00    +0.000 A 
ATOM     19  C   UNL     1      47.908   5.893  14.114  0.00  0.00    +0.000 A 
ATOM     20  C   UNL     1      47.285   4.731  14.589  0.00  0.00    +0.000 A 
ATOM     21  C   UNL     1      47.430   4.335  15.921  0.00  0.00    +0.000 A 
BRANCH  16  22
ATOM     22  C   UNL     1      48.417   4.628  18.227  0.00  0.00    +0.000 C 
BRANCH  22  23
ATOM     23  C   UNL     1      47.718   5.536  19.242  0.00  0.00    +0.000 C 
BRANCH  23  24
ATOM     24  N   UNL     1      46.281   5.611  18.981  0.00  0.00    +0.000 NA
ATOM     25  H   UNL     1      46.130   5.902  18.015  0.00  0.00    +0.000 HD
ATOM     26  H   UNL     1      45.863   6.334  19.565  0.00  0.00    +0.000 HD
ENDBRANCH  23  24
ENDBRANCH  22  23
ENDBRANCH  16  22
ENDBRANCH  15  19
ENDBRANCH   1  15
TORSDOF 6
ENDMDL
MODEL 7
REMARK VINA RESULT:    -6.147      4.632      6.912
REMARK INTER + INTRA:          -8.762
REMARK INTER:                  -8.161
REMARK INTRA:                  -0.601
REMARK UNBOUND:                -0.638
REMARK  Name = 
REMARK  6 active torsions:
REMARK  status: ('A' for Active; 'I' for Inactive)
REMARK    1  A    between atoms: N_1  and  C_2
REMARK    2  A    between atoms: C_2  and  C_3
REMARK    3  A    between atoms: C_3  and  C_4
REMARK    4  A    between atoms: C_7  and  C_8
REMARK    5  A    between atoms: C_8  and  N_9
REMARK    6  A    between atoms: C_15  and  C_16
REMARK                            x       y       z     vdW  Elec       q    Type
REMARK                         _______ _______ _______ _____ _____    ______ ____
ROOT
ATOM      1  N   UNL     1      48.621   7.384  14.584  0.00  0.00    +0.000 N 
ATOM      2  C   UNL     1      48.333   8.718  14.761  0.00  0.00    +0.000 A 
ATOM      3  C   UNL     1      48.313   8.974  16.114  0.00  0.00    +0.000 A 
ATOM      4  C   UNL     1      48.615   7.761  16.785  0.00  0.00    +0.000 A 
ATOM      5  C   UNL     1      48.720   7.380  18.132  0.00  0.00    +0.000 A 
ATOM      6  C   UNL     1      49.031   6.053  18.409  0.00  0.00    +0.000 A 
ATOM      7  C   UNL     1      49.240   5.176  17.349  0.00  0.00    +0.000 A 
ATOM      8  N   UNL     1      49.166   5.490  16.018  0.00  0.00    +0.000 NA
ATOM      9  C   UNL     1      48.834   6.785  15.808  0.00  0.00    +0.000 A 
ENDROOT
BRANCH   7  10
ATOM     10  C   UNL     1      49.558   3.744  17.678  0.00  0.00    +0.000 C 
ATOM     11  N   UNL     1      49.040   3.275  18.857  0.00  0.00    +0.000 N 
ATOM     12  O   UNL     1      50.235   3.029  16.953  0.00  0.00    +0.000 OA
ATOM     13  H   UNL     1      48.477   3.884  19.436  0.00  0.00    +0.000 HD
ATOM     14  H   UNL     1      49.241   2.327  19.139  0.00  0.00    +0.000 HD
ENDBRANCH   7  10
BRANCH   1  15
ATOM     15  C   UNL     1      48.694   6.723  13.287  0.00  0.00    +0.000 C 
BRANCH  15  19
ATOM     16  C   UNL     1      44.888   5.176  11.912  0.00  0.00    +0.000 A 
ATOM     17  C   UNL     1      45.504   4.631  13.046  0.00  0.00    +0.000 A 
ATOM     18  C   UNL     1      46.721   5.142  13.509  0.00  0.00    +0.000 A 
ATOM     19  C   UNL     1      47.342   6.213  12.851  0.00  0.00    +0.000 A 
ATOM     20  C   UNL     1      46.702   6.780  11.740  0.00  0.00    +0.000 A 
ATOM     21  C   UNL     1      45.487   6.270  11.277  0.00  0.00    +0.000 A 
BRANCH  16  22
ATOM     22  C   UNL     1      43.607   4.586  11.374  0.00  0.00    +0.000 C 
BRANCH  22  23
ATOM     23  C   UNL     1      43.798   3.159  10.853  0.00  0.00    +0.000 C 
BRANCH  23  24
ATOM     24  N   UNL     1      43.043   2.199  11.659  0.00  0.00    +0.000 NA
ATOM     25  H   UNL     1      43.494   2.096  12.568  0.00  0.00    +0.000 HD
ATOM     26  H   UNL     1      43.077   1.281  11.219  0.00  0.00    +0.000 HD
ENDBRANCH  23  24
ENDBRANCH  22  23
ENDBRANCH  16  22
ENDBRANCH  15  19
ENDBRANCH   1  15
TORSDOF 6
ENDMDL
MODEL 8
REMARK VINA RESULT:    -6.122      5.220      8.050
REMARK INTER + INTRA:          -8.728
REMARK INTER:                  -8.049
REMARK INTRA:                  -0.679
REMARK UNBOUND:                -0.638
REMARK  Name = 
REMARK  6 active torsions:
REMARK  status: ('A' for Active; 'I' for Inactive)
REMARK    1  A    between atoms: N_1  and  C_2
REMARK    2  A    between atoms: C_2  and  C_3
REMARK    3  A    between atoms: C_3  and  C_4
REMARK    4  A    between atoms: C_7  and  C_8
REMARK    5  A    between atoms: C_8  and  N_9
REMARK    6  A    between atoms: C_15  and  C_16
REMARK                            x       y       z     vdW  Elec       q    Type
REMARK                         _______ _______ _______ _____ _____    ______ ____
ROOT
ATOM      1  N   UNL     1      48.935   7.037  16.279  0.00  0.00    +0.000 N 
ATOM      2  C   UNL     1      48.559   8.081  17.092  0.00  0.00    +0.000 A 
ATOM      3  C   UNL     1      48.436   7.601  18.376  0.00  0.00    +0.000 A 
ATOM      4  C   UNL     1      48.766   6.220  18.351  0.00  0.00    +0.000 A 
ATOM      5  C   UNL     1      48.807   5.200  19.313  0.00  0.00    +0.000 A 
ATOM      6  C   UNL     1      49.177   3.926  18.893  0.00  0.00    +0.000 A 
ATOM      7  C   UNL     1      49.504   3.728  17.555  0.00  0.00    +0.000 A 
ATOM      8  N   UNL     1      49.497   4.684  16.575  0.00  0.00    +0.000 NA
ATOM      9  C   UNL     1      49.104   5.895  17.034  0.00  0.00    +0.000 A 
ENDROOT
BRANCH   7  10
ATOM     10  C   UNL     1      49.884   2.338  17.127  0.00  0.00    +0.000 C 
ATOM     11  N   UNL     1      50.850   1.725  17.881  0.00  0.00    +0.000 N 
ATOM     12  O   UNL     1      49.375   1.775  16.168  0.00  0.00    +0.000 OA
ATOM     13  H   UNL     1      51.250   2.210  18.674  0.00  0.00    +0.000 HD
ATOM     14  H   UNL     1      51.159   0.799  17.625  0.00  0.00    +0.000 HD
ENDBRANCH   7  10
BRANCH   1  15
ATOM     15  C   UNL     1      49.129   7.144  14.839  0.00  0.00    +0.000 C 
BRANCH  15  19
ATOM     16  C   UNL     1      45.516   6.475  12.544  0.00  0.00    +0.000 A 
ATOM     17  C   UNL     1      46.208   5.393  13.104  0.00  0.00    +0.000 A 
ATOM     18  C   UNL     1      47.362   5.604  13.865  0.00  0.00    +0.000 A 
ATOM     19  C   UNL     1      47.842   6.903  14.089  0.00  0.00    +0.000 A 
ATOM     20  C   UNL     1      47.124   7.984  13.559  0.00  0.00    +0.000 A 
ATOM     21  C   UNL     1      45.971   7.773  12.798  0.00  0.00    +0.000 A 
BRANCH  16  22
ATOM     22  C   UNL     1      44.308   6.245  11.669  0.00  0.00    +0.000 C 
BRANCH  22  23
ATOM     23  C   UNL     1      43.458   5.066  12.148  0.00  0.00    +0.000 C 
BRANCH  23  24
ATOM     24  N   UNL     1      42.620   5.447  13.285  0.00  0.00    +0.000 NA
ATOM     25  H   UNL     1      42.315   4.605  13.774  0.00  0.00    +0.000 HD
ATOM     26  H   UNL     1      41.774   5.904  12.950  0.00  0.00    +0.000 HD
ENDBRANCH  23  24
ENDBRANCH  22  23
ENDBRANCH  16  22
ENDBRANCH  15  19
ENDBRANCH   1  15
TORSDOF 6
ENDMDL
