MODEL 1
REMARK VINA RESULT:    -7.967      0.000      0.000
REMARK INTER + INTRA:         -11.676
REMARK INTER:                 -10.762
REMARK INTRA:                  -0.914
REMARK UNBOUND:                -0.914
REMARK  Name = 
REMARK  7 active torsions:
REMARK  status: ('A' for Active; 'I' for Inactive)
REMARK    1  A    between atoms: C_1  and  C_2
REMARK    2  A    between atoms: C_5  and  C_6
REMARK    3  A    between atoms: N_8  and  C_9
REMARK    4  A    between atoms: C_9  and  C_10
REMARK    5  A    between atoms: C_13  and  C_14
REMARK    6  A    between atoms: C_14  and  N_15
REMARK    7  A    between atoms: C_16  and  C_18
REMARK                            x       y       z     vdW  Elec       q    Type
REMARK                         _______ _______ _______ _____ _____    ______ ____
ROOT
ATOM      1  C   UNL     1      46.276   4.901  13.666  0.00  0.00    +0.000 A 
ATOM      2  C   UNL     1      46.853   6.106  13.243  0.00  0.00    +0.000 A 
ATOM      3  C   UNL     1      47.833   6.742  14.016  0.00  0.00    +0.000 A 
ATOM      4  C   UNL     1      48.270   6.177  15.220  0.00  0.00    +0.000 A 
ATOM      5  C   UNL     1      47.682   4.979  15.651  0.00  0.00    +0.000 A 
ATOM      6  C   UNL     1      46.705   4.343  14.877  0.00  0.00    +0.000 A 
ENDROOT
BRANCH   1   7
ATOM      7  C   UNL     1      45.216   4.221  12.837  0.00  0.00    +0.000 C 
BRANCH   7  10
ATOM      8  C   UNL     1      44.798   3.421  10.546  0.00  0.00    +0.000 C 
ATOM      9  O   UNL     1      43.630   3.130  10.774  0.00  0.00    +0.000 OA
ATOM     10  N   UNL     1      45.647   3.970  11.485  0.00  0.00    +0.000 N 
ATOM     11  H   UNL     1      46.610   4.132  11.204  0.00  0.00    +0.000 HD
BRANCH   8  16
ATOM     12  C   UNL     1      47.163   2.713   5.360  0.00  0.00    +0.000 C 
ATOM     13  C   UNL     1      46.542   2.843   6.716  0.00  0.00    +0.000 A 
ATOM     14  C   UNL     1      46.221   1.725   7.488  0.00  0.00    +0.000 A 
ATOM     15  C   UNL     1      45.645   1.899   8.744  0.00  0.00    +0.000 A 
ATOM     16  C   UNL     1      45.413   3.194   9.194  0.00  0.00    +0.000 A 
ATOM     17  N   UNL     1      45.711   4.308   8.469  0.00  0.00    +0.000 NA
ATOM     18  C   UNL     1      46.263   4.099   7.250  0.00  0.00    +0.000 A 
ENDBRANCH   8  16
ENDBRANCH   7  10
ENDBRANCH   1   7
BRANCH   4  19
ATOM     19  C   UNL     1      49.335   6.846  16.052  0.00  0.00    +0.000 C 
BRANCH  19  20
ATOM     20  N   UNL     1      50.333   5.907  16.498  0.00  0.00    +0.000 N 
ATOM     21  C   UNL     1      50.529   5.658  17.834  0.00  0.00    +0.000 C 
ATOM     22  O   UNL     1      49.834   6.178  18.702  0.00  0.00    +0.000 OA
ATOM     23  H   UNL     1      51.057   5.652  15.832  0.00  0.00    +0.000 HD
BRANCH  21  24
ATOM     24  C   UNL     1      51.573   4.682  18.175  0.00  0.00    +0.000 A 
ATOM     25  C   UNL     1      52.714   5.097  18.848  0.00  0.00    +0.000 A 
ATOM     26  S   UNL     1      53.797   3.830  19.210  0.00  0.00    +0.000 S 
ATOM     27  C   UNL     1      52.805   2.688  18.431  0.00  0.00    +0.000 A 
ATOM     28  N   UNL     1      53.168   1.379  18.358  0.00  0.00    +0.000 NA
ATOM     29  C   UNL     1      52.336   0.629  17.716  0.00  0.00    +0.000 A 
ATOM     30  N   UNL     1      51.171   1.068  17.145  0.00  0.00    +0.000 N 
ATOM     31  C   UNL     1      50.751   2.376  17.212  0.00  0.00    +0.000 A 
ATOM     32  O   UNL     1      49.686   2.731  16.716  0.00  0.00    +0.000 OA
ATOM     33  C   UNL     1      51.655   3.263  17.918  0.00  0.00    +0.000 A 
ATOM     34  H   UNL     1      50.557   0.428  16.661  0.00  0.00    +0.000 HD
ENDBRANCH  21  24
ENDBRANCH  19  20
ENDBRANCH   4  19
TORSDOF 6
ENDMDL
MODEL 2
REMARK VINA RESULT:    -7.788      2.643      3.089
REMARK INTER + INTRA:         -11.434
REMARK INTER:                 -10.555
REMARK INTRA:                  -0.879
REMARK UNBOUND:                -0.914
REMARK  Name = 
REMARK  7 active torsions:
REMARK  status: ('A' for Active; 'I' for Inactive)
REMARK    1  A    between atoms: C_1  and  C_2
REMARK    2  A    between atoms: C_5  and  C_6
REMARK    3  A    between atoms: N_8  and  C_9
REMARK    4  A    between atoms: C_9  and  C_10
REMARK    5  A    between atoms: C_13  and  C_14
REMARK    6  A    between atoms: C_14  and  N_15
REMARK    7  A    between atoms: C_16  and  C_18
REMARK                            x       y       z     vdW  Elec       q    Type
REMARK                         _______ _______ _______ _____ _____    ______ ____
ROOT
ATOM      1  C   UNL     1      44.975   6.522  11.697  0.00  0.00    +0.000 A 
ATOM      2  C   UNL     1      44.795   7.908  11.811  0.00  0.00    +0.000 A 
ATOM      3  C   UNL     1      45.649   8.677  12.612  0.00  0.00    +0.000 A 
ATOM      4  C   UNL     1      46.712   8.081  13.300  0.00  0.00    +0.000 A 
ATOM      5  C   UNL     1      46.883   6.694  13.197  0.00  0.00    +0.000 A 
ATOM      6  C   UNL     1      46.031   5.925  12.396  0.00  0.00    +0.000 A 
ENDROOT
BRANCH   1   7
ATOM      7  C   UNL     1      44.051   5.693  10.841  0.00  0.00    +0.000 C 
BRANCH   7  10
ATOM      8  C   UNL     1      44.890   3.700   9.662  0.00  0.00    +0.000 C 
ATOM      9  O   UNL     1      44.455   2.921  10.500  0.00  0.00    +0.000 OA
ATOM     10  N   UNL     1      44.732   5.069   9.735  0.00  0.00    +0.000 N 
ATOM     11  H   UNL     1      45.172   5.628   9.009  0.00  0.00    +0.000 HD
BRANCH   8  16
ATOM     12  C   UNL     1      47.807   1.996   5.016  0.00  0.00    +0.000 C 
ATOM     13  C   UNL     1      47.046   2.388   6.244  0.00  0.00    +0.000 A 
ATOM     14  C   UNL     1      46.731   1.462   7.241  0.00  0.00    +0.000 A 
ATOM     15  C   UNL     1      46.021   1.877   8.365  0.00  0.00    +0.000 A 
ATOM     16  C   UNL     1      45.652   3.215   8.461  0.00  0.00    +0.000 A 
ATOM     17  N   UNL     1      45.939   4.145   7.508  0.00  0.00    +0.000 NA
ATOM     18  C   UNL     1      46.624   3.703   6.427  0.00  0.00    +0.000 A 
ENDBRANCH   8  16
ENDBRANCH   7  10
ENDBRANCH   1   7
BRANCH   4  19
ATOM     19  C   UNL     1      47.646   8.903  14.152  0.00  0.00    +0.000 C 
BRANCH  19  20
ATOM     20  N   UNL     1      47.931   8.258  15.409  0.00  0.00    +0.000 N 
ATOM     21  C   UNL     1      49.106   7.576  15.608  0.00  0.00    +0.000 C 
ATOM     22  O   UNL     1      49.985   7.530  14.752  0.00  0.00    +0.000 OA
ATOM     23  H   UNL     1      47.144   8.087  16.027  0.00  0.00    +0.000 HD
BRANCH  21  24
ATOM     24  C   UNL     1      49.291   6.957  16.928  0.00  0.00    +0.000 A 
ATOM     25  C   UNL     1      49.922   7.668  17.941  0.00  0.00    +0.000 A 
ATOM     26  S   UNL     1      50.007   6.823  19.420  0.00  0.00    +0.000 S 
ATOM     27  C   UNL     1      49.252   5.455  18.745  0.00  0.00    +0.000 A 
ATOM     28  N   UNL     1      49.035   4.337  19.488  0.00  0.00    +0.000 NA
ATOM     29  C   UNL     1      48.479   3.367  18.842  0.00  0.00    +0.000 A 
ATOM     30  N   UNL     1      48.117   3.415  17.522  0.00  0.00    +0.000 N 
ATOM     31  C   UNL     1      48.297   4.530  16.737  0.00  0.00    +0.000 A 
ATOM     32  O   UNL     1      47.933   4.551  15.566  0.00  0.00    +0.000 OA
ATOM     33  C   UNL     1      48.924   5.648  17.414  0.00  0.00    +0.000 A 
ATOM     34  H   UNL     1      47.678   2.623  17.075  0.00  0.00    +0.000 HD
ENDBRANCH  21  24
ENDBRANCH  19  20
ENDBRANCH   4  19
TORSDOF 6
ENDMDL
MODEL 3
REMARK VINA RESULT:    -7.108      5.158      5.660
REMARK INTER + INTRA:         -10.516
REMARK INTER:                  -9.314
REMARK INTRA:                  -1.202
REMARK UNBOUND:                -0.914
REMARK  Name = 
REMARK  7 active torsions:
REMARK  status: ('A' for Active; 'I' for Inactive)
REMARK    1  A    between atoms: C_1  and  C_2
REMARK    2  A    between atoms: C_5  and  C_6
REMARK    3  A    between atoms: N_8  and  C_9
REMARK    4  A    between atoms: C_9  and  C_10
REMARK    5  A    between atoms: C_13  and  C_14
REMARK    6  A    between atoms: C_14  and  N_15
REMARK    7  A    between atoms: C_16  and  C_18
REMARK                            x       y       z     vdW  Elec       q    Type
REMARK                         _______ _______ _______ _____ _____    ______ ____
ROOT
ATOM      1  C   UNL     1      45.362   7.178  12.224  0.00  0.00    +0.000 A 
ATOM      2  C   UNL     1      46.419   6.492  12.838  0.00  0.00    +0.000 A 
ATOM      3  C   UNL     1      47.371   7.179  13.603  0.00  0.00    +0.000 A 
ATOM      4  C   UNL     1      47.275   8.563  13.786  0.00  0.00    +0.000 A 
ATOM      5  C   UNL     1      46.226   9.251  13.160  0.00  0.00    +0.000 A 
ATOM      6  C   UNL     1      45.274   8.565  12.397  0.00  0.00    +0.000 A 
ENDROOT
BRANCH   1   7
ATOM      7  C   UNL     1      44.342   6.439  11.394  0.00  0.00    +0.000 C 
BRANCH   7  10
ATOM      8  C   UNL     1      44.533   4.326  10.144  0.00  0.00    +0.000 C 
ATOM      9  O   UNL     1      43.626   3.784  10.762  0.00  0.00    +0.000 OA
ATOM     10  N   UNL     1      44.947   5.623  10.372  0.00  0.00    +0.000 N 
ATOM     11  H   UNL     1      45.739   5.961   9.833  0.00  0.00    +0.000 HD
BRANCH   8  16
ATOM     12  C   UNL     1      47.459   1.702   5.956  0.00  0.00    +0.000 C 
ATOM     13  C   UNL     1      46.684   2.336   7.067  0.00  0.00    +0.000 A 
ATOM     14  C   UNL     1      46.103   1.577   8.086  0.00  0.00    +0.000 A 
ATOM     15  C   UNL     1      45.391   2.216   9.099  0.00  0.00    +0.000 A 
ATOM     16  C   UNL     1      45.288   3.602   9.065  0.00  0.00    +0.000 A 
ATOM     17  N   UNL     1      45.840   4.375   8.088  0.00  0.00    +0.000 NA
ATOM     18  C   UNL     1      46.517   3.718   7.116  0.00  0.00    +0.000 A 
ENDBRANCH   8  16
ENDBRANCH   7  10
ENDBRANCH   1   7
BRANCH   4  19
ATOM     19  C   UNL     1      48.285   9.310  14.620  0.00  0.00    +0.000 C 
BRANCH  19  20
ATOM     20  N   UNL     1      49.610   9.222  14.060  0.00  0.00    +0.000 N 
ATOM     21  C   UNL     1      50.100  10.205  13.236  0.00  0.00    +0.000 C 
ATOM     22  O   UNL     1      49.460  11.221  12.983  0.00  0.00    +0.000 OA
ATOM     23  H   UNL     1      50.052   8.307  14.064  0.00  0.00    +0.000 HD
BRANCH  21  24
ATOM     24  C   UNL     1      51.464  10.012  12.723  0.00  0.00    +0.000 A 
ATOM     25  C   UNL     1      52.456  10.933  13.036  0.00  0.00    +0.000 A 
ATOM     26  S   UNL     1      53.988  10.531  12.403  0.00  0.00    +0.000 S 
ATOM     27  C   UNL     1      53.370   9.140  11.643  0.00  0.00    +0.000 A 
ATOM     28  N   UNL     1      54.173   8.335  10.897  0.00  0.00    +0.000 NA
ATOM     29  C   UNL     1      53.567   7.331  10.356  0.00  0.00    +0.000 A 
ATOM     30  N   UNL     1      52.232   7.057  10.496  0.00  0.00    +0.000 N 
ATOM     31  C   UNL     1      51.386   7.830  11.257  0.00  0.00    +0.000 A 
ATOM     32  O   UNL     1      50.201   7.540  11.388  0.00  0.00    +0.000 OA
ATOM     33  C   UNL     1      52.016   8.976  11.883  0.00  0.00    +0.000 A 
ATOM     34  H   UNL     1      51.818   6.250  10.052  0.00  0.00    +0.000 HD
ENDBRANCH  21  24
ENDBRANCH  19  20
ENDBRANCH   4  19
TORSDOF 6
ENDMDL
MODEL 4
REMARK VINA RESULT:    -6.935      3.339      9.337
REMARK INTER + INTRA:         -10.282
REMARK INTER:                  -9.466
REMARK INTRA:                  -0.816
REMARK UNBOUND:                -0.914
REMARK  Name = 
REMARK  7 active torsions:
REMARK  status: ('A' for Active; 'I' for Inactive)
REMARK    1  A    between atoms: C_1  and  C_2
REMARK    2  A    between atoms: C_5  and  C_6
REMARK    3  A    between atoms: N_8  and  C_9
REMARK    4  A    between atoms: C_9  and  C_10
REMARK    5  A    between atoms: C_13  and  C_14
REMARK    6  A    between atoms: C_14  and  N_15
REMARK    7  A    between atoms: C_16  and  C_18
REMARK                            x       y       z     vdW  Elec       q    Type
REMARK                         _______ _______ _______ _____ _____    ______ ____
ROOT
ATOM      1  C   UNL     1      49.764   7.270  15.890  0.00  0.00    +0.000 A 
ATOM      2  C   UNL     1      48.728   6.495  15.351  0.00  0.00    +0.000 A 
ATOM      3  C   UNL     1      48.210   6.777  14.080  0.00  0.00    +0.000 A 
ATOM      4  C   UNL     1      48.729   7.828  13.314  0.00  0.00    +0.000 A 
ATOM      5  C   UNL     1      49.755   8.612  13.860  0.00  0.00    +0.000 A 
ATOM      6  C   UNL     1      50.275   8.329  15.128  0.00  0.00    +0.000 A 
ENDROOT
BRANCH   1   7
ATOM      7  C   UNL     1      50.317   6.972  17.261  0.00  0.00    +0.000 C 
BRANCH   7  10
ATOM      8  C   UNL     1      50.419   4.564  17.771  0.00  0.00    +0.000 C 
ATOM      9  O   UNL     1      49.253   4.512  18.143  0.00  0.00    +0.000 OA
ATOM     10  N   UNL     1      51.023   5.717  17.312  0.00  0.00    +0.000 N 
ATOM     11  H   UNL     1      52.009   5.661  17.069  0.00  0.00    +0.000 HD
BRANCH   8  16
ATOM     12  C   UNL     1      53.920   0.013  17.903  0.00  0.00    +0.000 C 
ATOM     13  C   UNL     1      52.968   1.167  17.847  0.00  0.00    +0.000 A 
ATOM     14  C   UNL     1      51.643   1.009  17.434  0.00  0.00    +0.000 A 
ATOM     15  C   UNL     1      50.797   2.115  17.400  0.00  0.00    +0.000 A 
ATOM     16  C   UNL     1      51.303   3.350  17.789  0.00  0.00    +0.000 A 
ATOM     17  N   UNL     1      52.589   3.543  18.196  0.00  0.00    +0.000 NA
ATOM     18  C   UNL     1      53.384   2.446  18.209  0.00  0.00    +0.000 A 
ENDBRANCH   8  16
ENDBRANCH   7  10
ENDBRANCH   1   7
BRANCH   4  19
ATOM     19  C   UNL     1      48.188   8.130  11.939  0.00  0.00    +0.000 C 
BRANCH  19  20
ATOM     20  N   UNL     1      47.512   6.992  11.369  0.00  0.00    +0.000 N 
ATOM     21  C   UNL     1      46.141   6.914  11.354  0.00  0.00    +0.000 C 
ATOM     22  O   UNL     1      45.432   7.825  11.773  0.00  0.00    +0.000 OA
ATOM     23  H   UNL     1      48.061   6.148  11.238  0.00  0.00    +0.000 HD
BRANCH  21  24
ATOM     24  C   UNL     1      45.558   5.709  10.748  0.00  0.00    +0.000 A 
ATOM     25  C   UNL     1      45.723   5.471   9.389  0.00  0.00    +0.000 A 
ATOM     26  S   UNL     1      45.029   4.005   8.861  0.00  0.00    +0.000 S 
ATOM     27  C   UNL     1      44.435   3.662  10.418  0.00  0.00    +0.000 A 
ATOM     28  N   UNL     1      43.712   2.536  10.659  0.00  0.00    +0.000 NA
ATOM     29  C   UNL     1      43.302   2.416  11.877  0.00  0.00    +0.000 A 
ATOM     30  N   UNL     1      43.553   3.318  12.877  0.00  0.00    +0.000 N 
ATOM     31  C   UNL     1      44.297   4.458  12.687  0.00  0.00    +0.000 A 
ATOM     32  O   UNL     1      44.530   5.230  13.612  0.00  0.00    +0.000 OA
ATOM     33  C   UNL     1      44.777   4.644  11.331  0.00  0.00    +0.000 A 
ATOM     34  H   UNL     1      43.208   3.162  13.814  0.00  0.00    +0.000 HD
ENDBRANCH  21  24
ENDBRANCH  19  20
ENDBRANCH   4  19
TORSDOF 6
ENDMDL
MODEL 5
REMARK VINA RESULT:    -6.924      5.977      8.794
REMARK INTER + INTRA:         -10.267
REMARK INTER:                  -9.315
REMARK INTRA:                  -0.952
REMARK UNBOUND:                -0.914
REMARK  Name = 
REMARK  7 active torsions:
REMARK  status: ('A' for Active; 'I' for Inactive)
REMARK    1  A    between atoms: C_1  and  C_2
REMARK    2  A    between atoms: C_5  and  C_6
REMARK    3  A    between atoms: N_8  and  C_9
REMARK    4  A    between atoms: C_9  and  C_10
REMARK    5  A    between atoms: C_13  and  C_14
REMARK    6  A    between atoms: C_14  and  N_15
REMARK    7  A    between atoms: C_16  and  C_18
REMARK                            x       y       z     vdW  Elec       q    Type
REMARK                         _______ _______ _______ _____ _____    ______ ____
ROOT
ATOM      1  C   UNL     1      50.591   8.848  11.383  0.00  0.00    +0.000 A 
ATOM      2  C   UNL     1      49.781   9.958  11.664  0.00  0.00    +0.000 A 
ATOM      3  C   UNL     1      48.480   9.789  12.154  0.00  0.00    +0.000 A 
ATOM      4  C   UNL     1      47.967   8.509  12.392  0.00  0.00    +0.000 A 
ATOM      5  C   UNL     1      48.771   7.399  12.098  0.00  0.00    +0.000 A 
ATOM      6  C   UNL     1      50.072   7.567  11.610  0.00  0.00    +0.000 A 
ENDROOT
BRANCH   1   7
ATOM      7  C   UNL     1      51.989   9.029  10.849  0.00  0.00    +0.000 C 
BRANCH   7  10
ATOM      8  C   UNL     1      53.541   7.270  10.097  0.00  0.00    +0.000 C 
ATOM      9  O   UNL     1      54.321   7.449  11.024  0.00  0.00    +0.000 OA
ATOM     10  N   UNL     1      52.371   7.984   9.933  0.00  0.00    +0.000 N 
ATOM     11  H   UNL     1      51.818   7.787   9.103  0.00  0.00    +0.000 HD
BRANCH   8  16
ATOM     12  C   UNL     1      54.678   3.270   6.135  0.00  0.00    +0.000 C 
ATOM     13  C   UNL     1      54.340   4.330   7.136  0.00  0.00    +0.000 A 
ATOM     14  C   UNL     1      53.240   5.175   6.971  0.00  0.00    +0.000 A 
ATOM     15  C   UNL     1      52.968   6.146   7.931  0.00  0.00    +0.000 A 
ATOM     16  C   UNL     1      53.806   6.238   9.037  0.00  0.00    +0.000 A 
ATOM     17  N   UNL     1      54.889   5.434   9.231  0.00  0.00    +0.000 NA
ATOM     18  C   UNL     1      55.125   4.507   8.273  0.00  0.00    +0.000 A 
ENDBRANCH   8  16
ENDBRANCH   7  10
ENDBRANCH   1   7
BRANCH   4  19
ATOM     19  C   UNL     1      46.573   8.317  12.934  0.00  0.00    +0.000 C 
BRANCH  19  20
ATOM     20  N   UNL     1      46.081   6.985  12.687  0.00  0.00    +0.000 N 
ATOM     21  C   UNL     1      45.005   6.766  11.864  0.00  0.00    +0.000 C 
ATOM     22  O   UNL     1      44.449   7.680  11.262  0.00  0.00    +0.000 OA
ATOM     23  H   UNL     1      46.366   6.261  13.340  0.00  0.00    +0.000 HD
BRANCH  21  24
ATOM     24  C   UNL     1      44.590   5.368  11.683  0.00  0.00    +0.000 A 
ATOM     25  C   UNL     1      43.931   4.705  12.710  0.00  0.00    +0.000 A 
ATOM     26  S   UNL     1      43.476   3.109  12.315  0.00  0.00    +0.000 S 
ATOM     27  C   UNL     1      44.192   3.228  10.777  0.00  0.00    +0.000 A 
ATOM     28  N   UNL     1      44.177   2.176   9.915  0.00  0.00    +0.000 NA
ATOM     29  C   UNL     1      44.780   2.396   8.794  0.00  0.00    +0.000 A 
ATOM     30  N   UNL     1      45.392   3.574   8.456  0.00  0.00    +0.000 N 
ATOM     31  C   UNL     1      45.414   4.671   9.285  0.00  0.00    +0.000 A 
ATOM     32  O   UNL     1      45.944   5.722   8.939  0.00  0.00    +0.000 OA
ATOM     33  C   UNL     1      44.755   4.474  10.561  0.00  0.00    +0.000 A 
ATOM     34  H   UNL     1      45.842   3.686   7.558  0.00  0.00    +0.000 HD
ENDBRANCH  21  24
ENDBRANCH  19  20
ENDBRANCH   4  19
TORSDOF 6
ENDMDL
MODEL 6
REMARK VINA RESULT:    -6.518      3.064      4.546
REMARK INTER + INTRA:          -9.719
REMARK INTER:                  -8.615
REMARK INTRA:                  -1.104
REMARK UNBOUND:                -0.914
REMARK  Name = 
REMARK  7 active torsions:
REMARK  status: ('A' for Active; 'I' for Inactive)
REMARK    1  A    between atoms: C_1  and  C_2
REMARK    2  A    between atoms: C_5  and  C_6
REMARK    3  A    between atoms: N_8  and  C_9
REMARK    4  A    between atoms: C_9  and  C_10
REMARK    5  A    between atoms: C_13  and  C_14
REMARK    6  A    between atoms: C_14  and  N_15
REMARK    7  A    between atoms: C_16  and  C_18
REMARK                            x       y       z     vdW  Elec       q    Type
REMARK                         _______ _______ _______ _____ _____    ______ ____
ROOT
ATOM      1  C   UNL     1      45.641   5.648  12.508  0.00  0.00    +0.000 A 
ATOM      2  C   UNL     1      45.710   4.538  13.361  0.00  0.00    +0.000 A 
ATOM      3  C   UNL     1      46.595   4.522  14.447  0.00  0.00    +0.000 A 
ATOM      4  C   UNL     1      47.417   5.623  14.714  0.00  0.00    +0.000 A 
ATOM      5  C   UNL     1      47.359   6.728  13.853  0.00  0.00    +0.000 A 
ATOM      6  C   UNL     1      46.473   6.745  12.769  0.00  0.00    +0.000 A 
ENDROOT
BRANCH   1   7
ATOM      7  C   UNL     1      44.694   5.663  11.335  0.00  0.00    +0.000 C 
BRANCH   7  10
ATOM      8  C   UNL     1      44.998   3.779   9.777  0.00  0.00    +0.000 C 
ATOM      9  O   UNL     1      44.243   3.040  10.397  0.00  0.00    +0.000 OA
ATOM     10  N   UNL     1      45.272   5.079  10.150  0.00  0.00    +0.000 N 
ATOM     11  H   UNL     1      45.948   5.592   9.591  0.00  0.00    +0.000 HD
BRANCH   8  16
ATOM     12  C   UNL     1      47.713   2.159   4.983  0.00  0.00    +0.000 C 
ATOM     13  C   UNL     1      47.003   2.528   6.247  0.00  0.00    +0.000 A 
ATOM     14  C   UNL     1      46.675   1.574   7.213  0.00  0.00    +0.000 A 
ATOM     15  C   UNL     1      46.014   1.969   8.373  0.00  0.00    +0.000 A 
ATOM     16  C   UNL     1      45.706   3.315   8.536  0.00  0.00    +0.000 A 
ATOM     17  N   UNL     1      46.008   4.273   7.616  0.00  0.00    +0.000 NA
ATOM     18  C   UNL     1      46.644   3.851   6.498  0.00  0.00    +0.000 A 
ENDBRANCH   8  16
ENDBRANCH   7  10
ENDBRANCH   1   7
BRANCH   4  19
ATOM     19  C   UNL     1      48.362   5.622  15.889  0.00  0.00    +0.000 C 
BRANCH  19  20
ATOM     20  N   UNL     1      49.220   6.780  15.887  0.00  0.00    +0.000 N 
ATOM     21  C   UNL     1      50.537   6.690  16.264  0.00  0.00    +0.000 C 
ATOM     22  O   UNL     1      51.056   5.620  16.566  0.00  0.00    +0.000 OA
ATOM     23  H   UNL     1      48.767   7.689  15.870  0.00  0.00    +0.000 HD
BRANCH  21  24
ATOM     24  C   UNL     1      51.318   7.934  16.222  0.00  0.00    +0.000 A 
ATOM     25  C   UNL     1      51.906   8.419  17.383  0.00  0.00    +0.000 A 
ATOM     26  S   UNL     1      52.818   9.841  17.147  0.00  0.00    +0.000 S 
ATOM     27  C   UNL     1      52.416   9.890  15.495  0.00  0.00    +0.000 A 
ATOM     28  N   UNL     1      52.866  10.893  14.694  0.00  0.00    +0.000 NA
ATOM     29  C   UNL     1      52.463  10.820  13.470  0.00  0.00    +0.000 A 
ATOM     30  N   UNL     1      51.652   9.834  12.973  0.00  0.00    +0.000 N 
ATOM     31  C   UNL     1      51.190   8.789  13.738  0.00  0.00    +0.000 A 
ATOM     32  O   UNL     1      50.492   7.904  13.254  0.00  0.00    +0.000 OA
ATOM     33  C   UNL     1      51.611   8.826  15.125  0.00  0.00    +0.000 A 
ATOM     34  H   UNL     1      51.377   9.829  12.001  0.00  0.00    +0.000 HD
ENDBRANCH  21  24
ENDBRANCH  19  20
ENDBRANCH   4  19
TORSDOF 6
ENDMDL
MODEL 7
REMARK VINA RESULT:    -6.495      3.161      5.003
REMARK INTER + INTRA:          -9.688
REMARK INTER:                  -8.689
REMARK INTRA:                  -0.999
REMARK UNBOUND:                -0.914
REMARK  Name = 
REMARK  7 active torsions:
REMARK  status: ('A' for Active; 'I' for Inactive)
REMARK    1  A    between atoms: C_1  and  C_2
REMARK    2  A    between atoms: C_5  and  C_6
REMARK    3  A    between atoms: N_8  and  C_9
REMARK    4  A    between atoms: C_9  and  C_10
REMARK    5  A    between atoms: C_13  and  C_14
REMARK    6  A    between atoms: C_14  and  N_15
REMARK    7  A    between atoms: C_16  and  C_18
REMARK                            x       y       z     vdW  Elec       q    Type
REMARK                         _______ _______ _______ _____ _____    ______ ____
ROOT
ATOM      1  C   UNL     1      45.523   5.223  12.763  0.00  0.00    +0.000 A 
ATOM      2  C   UNL     1      45.647   4.024  13.479  0.00  0.00    +0.000 A 
ATOM      3  C   UNL     1      46.530   3.924  14.561  0.00  0.00    +0.000 A 
ATOM      4  C   UNL     1      47.295   5.026  14.963  0.00  0.00    +0.000 A 
ATOM      5  C   UNL     1      47.182   6.220  14.238  0.00  0.00    +0.000 A 
ATOM      6  C   UNL     1      46.297   6.321  13.158  0.00  0.00    +0.000 A 
ENDROOT
BRANCH   1   7
ATOM      7  C   UNL     1      44.577   5.328  11.593  0.00  0.00    +0.000 C 
BRANCH   7  10
ATOM      8  C   UNL     1      44.968   3.550   9.934  0.00  0.00    +0.000 C 
ATOM      9  O   UNL     1      44.287   2.729  10.535  0.00  0.00    +0.000 OA
ATOM     10  N   UNL     1      45.159   4.847  10.366  0.00  0.00    +0.000 N 
ATOM     11  H   UNL     1      45.781   5.434   9.816  0.00  0.00    +0.000 HD
BRANCH   8  16
ATOM     12  C   UNL     1      47.648   2.056   5.079  0.00  0.00    +0.000 C 
ATOM     13  C   UNL     1      46.952   2.498   6.328  0.00  0.00    +0.000 A 
ATOM     14  C   UNL     1      46.595   3.831   6.540  0.00  0.00    +0.000 A 
ATOM     15  C   UNL     1      45.948   4.192   7.719  0.00  0.00    +0.000 A 
ATOM     16  C   UNL     1      45.670   3.200   8.653  0.00  0.00    +0.000 A 
ATOM     17  N   UNL     1      46.004   1.890   8.483  0.00  0.00    +0.000 NA
ATOM     18  C   UNL     1      46.639   1.579   7.328  0.00  0.00    +0.000 A 
ENDBRANCH   8  16
ENDBRANCH   7  10
ENDBRANCH   1   7
BRANCH   4  19
ATOM     19  C   UNL     1      48.238   4.932  16.136  0.00  0.00    +0.000 C 
BRANCH  19  20
ATOM     20  N   UNL     1      47.996   5.976  17.100  0.00  0.00    +0.000 N 
ATOM     21  C   UNL     1      49.020   6.510  17.842  0.00  0.00    +0.000 C 
ATOM     22  O   UNL     1      50.188   6.165  17.684  0.00  0.00    +0.000 OA
ATOM     23  H   UNL     1      47.037   6.106  17.408  0.00  0.00    +0.000 HD
BRANCH  21  24
ATOM     24  C   UNL     1      48.659   7.569  18.794  0.00  0.00    +0.000 A 
ATOM     25  C   UNL     1      48.704   7.315  20.159  0.00  0.00    +0.000 A 
ATOM     26  S   UNL     1      48.305   8.666  21.121  0.00  0.00    +0.000 S 
ATOM     27  C   UNL     1      48.006   9.624  19.748  0.00  0.00    +0.000 A 
ATOM     28  N   UNL     1      47.597  10.916  19.870  0.00  0.00    +0.000 NA
ATOM     29  C   UNL     1      47.382  11.516  18.748  0.00  0.00    +0.000 A 
ATOM     30  N   UNL     1      47.541  10.943  17.513  0.00  0.00    +0.000 N 
ATOM     31  C   UNL     1      47.973   9.650  17.339  0.00  0.00    +0.000 A 
ATOM     32  O   UNL     1      48.136   9.177  16.219  0.00  0.00    +0.000 OA
ATOM     33  C   UNL     1      48.224   8.928  18.572  0.00  0.00    +0.000 A 
ATOM     34  H   UNL     1      47.362  11.470  16.670  0.00  0.00    +0.000 HD
ENDBRANCH  21  24
ENDBRANCH  19  20
ENDBRANCH   4  19
TORSDOF 6
ENDMDL
MODEL 8
REMARK VINA RESULT:    -6.447      3.806      9.287
REMARK INTER + INTRA:          -9.623
REMARK INTER:                  -8.704
REMARK INTRA:                  -0.919
REMARK UNBOUND:                -0.914
REMARK  Name = 
REMARK  7 active torsions:
REMARK  status: ('A' for Active; 'I' for Inactive)
REMARK    1  A    between atoms: C_1  and  C_2
REMARK    2  A    between atoms: C_5  and  C_6
REMARK    3  A    between atoms: N_8  and  C_9
REMARK    4  A    between atoms: C_9  and  C_10
REMARK    5  A    between atoms: C_13  and  C_14
REMARK    6  A    between atoms: C_14  and  N_15
REMARK    7  A    between atoms: C_16  and  C_18
REMARK                            x       y       z     vdW  Elec       q    Type
REMARK                         _______ _______ _______ _____ _____    ______ ____
ROOT
ATOM      1  C   UNL     1      50.036   5.707  18.210  0.00  0.00    +0.000 A 
ATOM      2  C   UNL     1      50.350   7.073  18.212  0.00  0.00    +0.000 A 
ATOM      3  C   UNL     1      49.887   7.916  17.193  0.00  0.00    +0.000 A 
ATOM      4  C   UNL     1      49.085   7.415  16.161  0.00  0.00    +0.000 A 
ATOM      5  C   UNL     1      48.783   6.046  16.151  0.00  0.00    +0.000 A 
ATOM      6  C   UNL     1      49.243   5.204  17.170  0.00  0.00    +0.000 A 
ENDROOT
BRANCH   1   7
ATOM      7  C   UNL     1      50.540   4.798  19.302  0.00  0.00    +0.000 C 
BRANCH   7  10
ATOM      8  C   UNL     1      52.681   3.779  18.637  0.00  0.00    +0.000 C 
ATOM      9  O   UNL     1      53.338   4.769  18.936  0.00  0.00    +0.000 OA
ATOM     10  N   UNL     1      51.313   3.694  18.791  0.00  0.00    +0.000 N 
ATOM     11  H   UNL     1      50.860   2.843  18.469  0.00  0.00    +0.000 HD
BRANCH   8  16
ATOM     12  C   UNL     1      55.029  -0.995  16.472  0.00  0.00    +0.000 C 
ATOM     13  C   UNL     1      54.463   0.276  17.024  0.00  0.00    +0.000 A 
ATOM     14  C   UNL     1      55.160   1.485  16.950  0.00  0.00    +0.000 A 
ATOM     15  C   UNL     1      54.590   2.640  17.478  0.00  0.00    +0.000 A 
ATOM     16  C   UNL     1      53.330   2.552  18.062  0.00  0.00    +0.000 A 
ATOM     17  N   UNL     1      52.622   1.392  18.154  0.00  0.00    +0.000 NA
ATOM     18  C   UNL     1      53.212   0.288  17.636  0.00  0.00    +0.000 A 
ENDBRANCH   8  16
ENDBRANCH   7  10
ENDBRANCH   1   7
BRANCH   4  19
ATOM     19  C   UNL     1      48.569   8.317  15.068  0.00  0.00    +0.000 C 
BRANCH  19  20
ATOM     20  N   UNL     1      47.404   7.765  14.425  0.00  0.00    +0.000 N 
ATOM     21  C   UNL     1      47.502   7.088  13.234  0.00  0.00    +0.000 C 
ATOM     22  O   UNL     1      48.583   6.876  12.693  0.00  0.00    +0.000 OA
ATOM     23  H   UNL     1      46.500   8.121  14.722  0.00  0.00    +0.000 HD
BRANCH  21  24
ATOM     24  C   UNL     1      46.250   6.567  12.669  0.00  0.00    +0.000 A 
ATOM     25  C   UNL     1      45.337   7.440  12.091  0.00  0.00    +0.000 A 
ATOM     26  S   UNL     1      43.965   6.664  11.439  0.00  0.00    +0.000 S 
ATOM     27  C   UNL     1      44.515   5.139  11.954  0.00  0.00    +0.000 A 
ATOM     28  N   UNL     1      43.781   4.017  11.727  0.00  0.00    +0.000 NA
ATOM     29  C   UNL     1      44.304   2.933  12.195  0.00  0.00    +0.000 A 
ATOM     30  N   UNL     1      45.496   2.869  12.866  0.00  0.00    +0.000 N 
ATOM     31  C   UNL     1      46.283   3.973  13.100  0.00  0.00    +0.000 A 
ATOM     32  O   UNL     1      47.362   3.876  13.677  0.00  0.00    +0.000 OA
ATOM     33  C   UNL     1      45.737   5.219  12.599  0.00  0.00    +0.000 A 
ATOM     34  H   UNL     1      45.856   1.987  13.202  0.00  0.00    +0.000 HD
ENDBRANCH  21  24
ENDBRANCH  19  20
ENDBRANCH   4  19
TORSDOF 6
ENDMDL
MODEL 9
REMARK VINA RESULT:    -6.156      6.650      8.643
REMARK INTER + INTRA:          -9.229
REMARK INTER:                  -8.312
REMARK INTRA:                  -0.918
REMARK UNBOUND:                -0.914
REMARK  Name = 
REMARK  7 active torsions:
REMARK  status: ('A' for Active; 'I' for Inactive)
REMARK    1  A    between atoms: C_1  and  C_2
REMARK    2  A    between atoms: C_5  and  C_6
REMARK    3  A    between atoms: N_8  and  C_9
REMARK    4  A    between atoms: C_9  and  C_10
REMARK    5  A    between atoms: C_13  and  C_14
REMARK    6  A    between atoms: C_14  and  N_15
REMARK    7  A    between atoms: C_16  and  C_18
REMARK                            x       y       z     vdW  Elec       q    Type
REMARK                         _______ _______ _______ _____ _____    ______ ____
ROOT
ATOM      1  C   UNL     1      49.057   8.798  11.733  0.00  0.00    +0.000 A 
ATOM      2  C   UNL     1      50.066   7.835  11.593  0.00  0.00    +0.000 A 
ATOM      3  C   UNL     1      51.334   8.190  11.115  0.00  0.00    +0.000 A 
ATOM      4  C   UNL     1      51.626   9.519  10.784  0.00  0.00    +0.000 A 
ATOM      5  C   UNL     1      50.613  10.480  10.910  0.00  0.00    +0.000 A 
ATOM      6  C   UNL     1      49.347  10.125  11.390  0.00  0.00    +0.000 A 
ENDROOT
BRANCH   1   7
ATOM      7  C   UNL     1      47.690   8.415  12.241  0.00  0.00    +0.000 C 
BRANCH   7  10
ATOM      8  C   UNL     1      45.973   6.669  11.976  0.00  0.00    +0.000 C 
ATOM      9  O   UNL     1      45.278   7.102  12.886  0.00  0.00    +0.000 OA
ATOM     10  N   UNL     1      47.161   7.249  11.580  0.00  0.00    +0.000 N 
ATOM     11  H   UNL     1      47.684   6.783  10.843  0.00  0.00    +0.000 HD
BRANCH   8  16
ATOM     12  C   UNL     1      44.431   1.903   9.167  0.00  0.00    +0.000 C 
ATOM     13  C   UNL     1      44.846   3.168   9.851  0.00  0.00    +0.000 A 
ATOM     14  C   UNL     1      45.260   4.292   9.132  0.00  0.00    +0.000 A 
ATOM     15  C   UNL     1      45.637   5.445   9.815  0.00  0.00    +0.000 A 
ATOM     16  C   UNL     1      45.580   5.441  11.205  0.00  0.00    +0.000 A 
ATOM     17  N   UNL     1      45.184   4.365  11.940  0.00  0.00    +0.000 NA
ATOM     18  C   UNL     1      44.832   3.260  11.241  0.00  0.00    +0.000 A 
ENDBRANCH   8  16
ENDBRANCH   7  10
ENDBRANCH   1   7
BRANCH   4  19
ATOM     19  C   UNL     1      52.993   9.914  10.283  0.00  0.00    +0.000 C 
BRANCH  19  20
ATOM     20  N   UNL     1      53.418   9.087   9.182  0.00  0.00    +0.000 N 
ATOM     21  C   UNL     1      53.022   9.357   7.895  0.00  0.00    +0.000 C 
ATOM     22  O   UNL     1      52.338  10.338   7.617  0.00  0.00    +0.000 OA
ATOM     23  H   UNL     1      53.776   8.164   9.410  0.00  0.00    +0.000 HD
BRANCH  21  24
ATOM     24  C   UNL     1      53.515   8.448   6.851  0.00  0.00    +0.000 A 
ATOM     25  C   UNL     1      53.961   8.965   5.641  0.00  0.00    +0.000 A 
ATOM     26  S   UNL     1      54.547   7.778   4.565  0.00  0.00    +0.000 S 
ATOM     27  C   UNL     1      54.176   6.527   5.655  0.00  0.00    +0.000 A 
ATOM     28  N   UNL     1      54.414   5.226   5.336  0.00  0.00    +0.000 NA
ATOM     29  C   UNL     1      54.059   4.380   6.245  0.00  0.00    +0.000 A 
ATOM     30  N   UNL     1      53.493   4.717   7.446  0.00  0.00    +0.000 N 
ATOM     31  C   UNL     1      53.254   6.018   7.821  0.00  0.00    +0.000 A 
ATOM     32  O   UNL     1      52.773   6.287   8.918  0.00  0.00    +0.000 OA
ATOM     33  C   UNL     1      53.629   7.009   6.832  0.00  0.00    +0.000 A 
ATOM     34  H   UNL     1      53.243   4.007   8.119  0.00  0.00    +0.000 HD
ENDBRANCH  21  24
ENDBRANCH  19  20
ENDBRANCH   4  19
TORSDOF 6
ENDMDL
