MODEL 1
REMARK VINA RESULT:    -7.760      0.000      0.000
REMARK INTER + INTRA:         -12.115
REMARK INTER:                 -10.936
REMARK INTRA:                  -1.180
REMARK UNBOUND:                -1.180
REMARK  Name = 
REMARK  8 active torsions:
REMARK  status: ('A' for Active; 'I' for Inactive)
REMARK    1  A    between atoms: C_1  and  N_2
REMARK    2  A    between atoms: N_2  and  C_3
REMARK    3  A    between atoms: C_3  and  C_4
REMARK    4  A    between atoms: C_7  and  C_8
REMARK    5  A    between atoms: C_8  and  N_9
REMARK    6  A    between atoms: N_9  and  C_10
REMARK    7  A    between atoms: C_10  and  C_11
REMARK    8  A    between atoms: C_18  and  C_20
REMARK                            x       y       z     vdW  Elec       q    Type
REMARK                         _______ _______ _______ _____ _____    ______ ____
ROOT
ATOM      1  C   UNL     1      47.103   6.172  12.411  0.00  0.00    +0.000 C 
ENDROOT
BRANCH   1   2
ATOM      2  C   UNL     1      47.405   5.740  13.815  0.00  0.00    +0.000 A 
ATOM      3  C   UNL     1      46.808   4.607  14.365  0.00  0.00    +0.000 A 
ATOM      4  C   UNL     1      47.134   4.223  15.661  0.00  0.00    +0.000 A 
ATOM      5  C   UNL     1      48.058   4.983  16.376  0.00  0.00    +0.000 A 
ATOM      6  N   UNL     1      48.648   6.092  15.862  0.00  0.00    +0.000 NA
ATOM      7  C   UNL     1      48.306   6.446  14.605  0.00  0.00    +0.000 A 
BRANCH   5   8
ATOM      8  C   UNL     1      48.420   4.602  17.797  0.00  0.00    +0.000 C 
BRANCH   8   9
ATOM      9  N   UNL     1      49.303   3.434  17.902  0.00  0.00    +0.000 NA
ATOM     10  H   UNL     1      49.077   2.812  17.120  0.00  0.00    +0.000 HD
BRANCH   9  11
ATOM     11  C   UNL     1      50.716   3.797  17.748  0.00  0.00    +0.000 C 
BRANCH  11  12
ATOM     12  C   UNL     1      51.521   2.536  17.688  0.00  0.00    +0.000 A 
ATOM     13  C   UNL     1      52.875   2.358  18.064  0.00  0.00    +0.000 A 
ATOM     14  C   UNL     1      53.132   1.027  17.839  0.00  0.00    +0.000 A 
ATOM     15  N   UNL     1      51.970   0.494  17.367  0.00  0.00    +0.000 N 
ATOM     16  N   UNL     1      50.978   1.389  17.249  0.00  0.00    +0.000 NA
ATOM     17  H   UNL     1      51.782  -0.467  17.104  0.00  0.00    +0.000 HD
ENDBRANCH  11  12
ENDBRANCH   9  11
ENDBRANCH   8   9
ENDBRANCH   5   8
ENDBRANCH   1   2
BRANCH   1  19
ATOM     18  C   UNL     1      46.173   8.525  12.366  0.00  0.00    +0.000 C 
ATOM     19  N   UNL     1      45.970   7.087  12.225  0.00  0.00    +0.000 N 
ATOM     20  C   UNL     1      44.734   6.686  11.687  0.00  0.00    +0.000 C 
ATOM     21  O   UNL     1      43.879   7.510  11.370  0.00  0.00    +0.000 OA
BRANCH  20  22
ATOM     22  C   UNL     1      44.444   5.253  11.536  0.00  0.00    +0.000 A 
ATOM     23  C   UNL     1      43.679   4.510  12.421  0.00  0.00    +0.000 A 
ATOM     24  S   UNL     1      43.462   2.886  11.941  0.00  0.00    +0.000 S 
ATOM     25  C   UNL     1      44.258   3.165  10.463  0.00  0.00    +0.000 A 
ATOM     26  N   UNL     1      44.329   2.193   9.516  0.00  0.00    +0.000 NA
ATOM     27  C   UNL     1      44.898   2.570   8.417  0.00  0.00    +0.000 A 
ATOM     28  N   UNL     1      45.432   3.814   8.199  0.00  0.00    +0.000 N 
ATOM     29  C   UNL     1      45.510   4.781   9.180  0.00  0.00    +0.000 A 
ATOM     30  O   UNL     1      46.208   5.774   9.033  0.00  0.00    +0.000 OA
ATOM     31  C   UNL     1      44.769   4.446  10.385  0.00  0.00    +0.000 A 
ATOM     32  H   UNL     1      45.920   4.022   7.340  0.00  0.00    +0.000 HD
ENDBRANCH  20  22
ENDBRANCH   1  19
TORSDOF 7
ENDMDL
MODEL 2
REMARK VINA RESULT:    -7.319      1.332      2.019
REMARK INTER + INTRA:         -11.494
REMARK INTER:                 -10.649
REMARK INTRA:                  -0.844
REMARK UNBOUND:                -1.180
REMARK  Name = 
REMARK  8 active torsions:
REMARK  status: ('A' for Active; 'I' for Inactive)
REMARK    1  A    between atoms: C_1  and  N_2
REMARK    2  A    between atoms: N_2  and  C_3
REMARK    3  A    between atoms: C_3  and  C_4
REMARK    4  A    between atoms: C_7  and  C_8
REMARK    5  A    between atoms: C_8  and  N_9
REMARK    6  A    between atoms: N_9  and  C_10
REMARK    7  A    between atoms: C_10  and  C_11
REMARK    8  A    between atoms: C_18  and  C_20
REMARK                            x       y       z     vdW  Elec       q    Type
REMARK                         _______ _______ _______ _____ _____    ______ ____
ROOT
ATOM      1  C   UNL     1      47.384   6.115  12.721  0.00  0.00    +0.000 C 
ENDROOT
BRANCH   1   2
ATOM      2  C   UNL     1      47.566   5.602  14.118  0.00  0.00    +0.000 A 
ATOM      3  C   UNL     1      46.963   4.416  14.535  0.00  0.00    +0.000 A 
ATOM      4  C   UNL     1      47.178   3.959  15.830  0.00  0.00    +0.000 A 
ATOM      5  C   UNL     1      47.997   4.701  16.679  0.00  0.00    +0.000 A 
ATOM      6  N   UNL     1      48.589   5.860  16.296  0.00  0.00    +0.000 NA
ATOM      7  C   UNL     1      48.357   6.284  15.036  0.00  0.00    +0.000 A 
BRANCH   5   8
ATOM      8  C   UNL     1      48.233   4.240  18.103  0.00  0.00    +0.000 C 
BRANCH   8   9
ATOM      9  N   UNL     1      49.266   3.205  18.238  0.00  0.00    +0.000 NA
ATOM     10  H   UNL     1      48.946   2.388  17.707  0.00  0.00    +0.000 HD
BRANCH   9  11
ATOM     11  C   UNL     1      50.539   3.616  17.638  0.00  0.00    +0.000 C 
BRANCH  11  12
ATOM     12  C   UNL     1      51.452   2.430  17.615  0.00  0.00    +0.000 A 
ATOM     13  C   UNL     1      52.800   2.370  18.047  0.00  0.00    +0.000 A 
ATOM     14  C   UNL     1      53.181   1.067  17.837  0.00  0.00    +0.000 A 
ATOM     15  N   UNL     1      52.091   0.435  17.319  0.00  0.00    +0.000 N 
ATOM     16  N   UNL     1      51.030   1.240  17.158  0.00  0.00    +0.000 NA
ATOM     17  H   UNL     1      51.998  -0.539  17.052  0.00  0.00    +0.000 HD
ENDBRANCH  11  12
ENDBRANCH   9  11
ENDBRANCH   8   9
ENDBRANCH   5   8
ENDBRANCH   1   2
BRANCH   1  19
ATOM     18  C   UNL     1      46.640   8.480  13.229  0.00  0.00    +0.000 C 
ATOM     19  N   UNL     1      46.430   7.214  12.533  0.00  0.00    +0.000 N 
ATOM     20  C   UNL     1      45.437   7.213  11.537  0.00  0.00    +0.000 C 
ATOM     21  O   UNL     1      44.784   8.223  11.286  0.00  0.00    +0.000 OA
BRANCH  20  22
ATOM     22  C   UNL     1      45.148   5.970  10.808  0.00  0.00    +0.000 A 
ATOM     23  C   UNL     1      45.652   5.661   9.555  0.00  0.00    +0.000 A 
ATOM     24  S   UNL     1      45.194   4.114   8.996  0.00  0.00    +0.000 S 
ATOM     25  C   UNL     1      44.433   3.751  10.473  0.00  0.00    +0.000 A 
ATOM     26  N   UNL     1      43.914   2.517  10.705  0.00  0.00    +0.000 NA
ATOM     27  C   UNL     1      43.434   2.363  11.897  0.00  0.00    +0.000 A 
ATOM     28  N   UNL     1      43.392   3.342  12.856  0.00  0.00    +0.000 N 
ATOM     29  C   UNL     1      43.774   4.646  12.617  0.00  0.00    +0.000 A 
ATOM     30  O   UNL     1      43.494   5.540  13.402  0.00  0.00    +0.000 OA
ATOM     31  C   UNL     1      44.439   4.830  11.337  0.00  0.00    +0.000 A 
ATOM     32  H   UNL     1      42.944   3.174  13.745  0.00  0.00    +0.000 HD
ENDBRANCH  20  22
ENDBRANCH   1  19
TORSDOF 7
ENDMDL
MODEL 3
REMARK VINA RESULT:    -7.236      3.876      8.401
REMARK INTER + INTRA:         -11.377
REMARK INTER:                 -10.335
REMARK INTRA:                  -1.042
REMARK UNBOUND:                -1.180
REMARK  Name = 
REMARK  8 active torsions:
REMARK  status: ('A' for Active; 'I' for Inactive)
REMARK    1  A    between atoms: C_1  and  N_2
REMARK    2  A    between atoms: N_2  and  C_3
REMARK    3  A    between atoms: C_3  and  C_4
REMARK    4  A    between atoms: C_7  and  C_8
REMARK    5  A    between atoms: C_8  and  N_9
REMARK    6  A    between atoms: N_9  and  C_10
REMARK    7  A    between atoms: C_10  and  C_11
REMARK    8  A    between atoms: C_18  and  C_20
REMARK                            x       y       z     vdW  Elec       q    Type
REMARK                         _______ _______ _______ _____ _____    ______ ____
ROOT
ATOM      1  C   UNL     1      47.323   7.593  13.641  0.00  0.00    +0.000 C 
ENDROOT
BRANCH   1   2
ATOM      2  C   UNL     1      46.494   6.543  12.962  0.00  0.00    +0.000 A 
ATOM      3  C   UNL     1      45.933   6.769  11.707  0.00  0.00    +0.000 A 
ATOM      4  C   UNL     1      45.193   5.762  11.098  0.00  0.00    +0.000 A 
ATOM      5  C   UNL     1      45.037   4.546  11.760  0.00  0.00    +0.000 A 
ATOM      6  N   UNL     1      45.571   4.306  12.985  0.00  0.00    +0.000 NA
ATOM      7  C   UNL     1      46.277   5.305  13.556  0.00  0.00    +0.000 A 
BRANCH   5   8
ATOM      8  C   UNL     1      44.220   3.436  11.132  0.00  0.00    +0.000 C 
BRANCH   8   9
ATOM      9  N   UNL     1      44.998   2.516  10.293  0.00  0.00    +0.000 NA
ATOM     10  H   UNL     1      44.793   1.565  10.617  0.00  0.00    +0.000 HD
BRANCH   9  11
ATOM     11  C   UNL     1      44.586   2.573   8.887  0.00  0.00    +0.000 C 
BRANCH  11  12
ATOM     12  C   UNL     1      45.804   2.821   8.051  0.00  0.00    +0.000 A 
ATOM     13  C   UNL     1      46.753   1.869   7.605  0.00  0.00    +0.000 A 
ATOM     14  C   UNL     1      47.657   2.591   6.864  0.00  0.00    +0.000 A 
ATOM     15  N   UNL     1      47.222   3.883   6.895  0.00  0.00    +0.000 N 
ATOM     16  N   UNL     1      46.108   4.056   7.621  0.00  0.00    +0.000 NA
ATOM     17  H   UNL     1      47.633   4.694   6.447  0.00  0.00    +0.000 HD
ENDBRANCH  11  12
ENDBRANCH   9  11
ENDBRANCH   8   9
ENDBRANCH   5   8
ENDBRANCH   1   2
BRANCH   1  19
ATOM     18  C   UNL     1      49.417   7.049  12.328  0.00  0.00    +0.000 C 
ATOM     19  N   UNL     1      48.780   7.429  13.585  0.00  0.00    +0.000 N 
ATOM     20  C   UNL     1      49.644   7.842  14.616  0.00  0.00    +0.000 C 
ATOM     21  O   UNL     1      50.862   7.866  14.457  0.00  0.00    +0.000 OA
BRANCH  20  22
ATOM     22  C   UNL     1      49.081   8.218  15.921  0.00  0.00    +0.000 A 
ATOM     23  C   UNL     1      48.753   9.512  16.291  0.00  0.00    +0.000 A 
ATOM     24  S   UNL     1      48.056   9.623  17.845  0.00  0.00    +0.000 S 
ATOM     25  C   UNL     1      48.033   7.930  18.010  0.00  0.00    +0.000 A 
ATOM     26  N   UNL     1      47.453   7.343  19.089  0.00  0.00    +0.000 NA
ATOM     27  C   UNL     1      47.444   6.050  19.044  0.00  0.00    +0.000 A 
ATOM     28  N   UNL     1      47.996   5.299  18.039  0.00  0.00    +0.000 N 
ATOM     29  C   UNL     1      48.719   5.848  17.000  0.00  0.00    +0.000 A 
ATOM     30  O   UNL     1      49.404   5.147  16.268  0.00  0.00    +0.000 OA
ATOM     31  C   UNL     1      48.642   7.299  16.943  0.00  0.00    +0.000 A 
ATOM     32  H   UNL     1      48.012   4.291  18.098  0.00  0.00    +0.000 HD
ENDBRANCH  20  22
ENDBRANCH   1  19
TORSDOF 7
ENDMDL
MODEL 4
REMARK VINA RESULT:    -7.004      3.986      8.581
REMARK INTER + INTRA:         -11.049
REMARK INTER:                  -9.825
REMARK INTRA:                  -1.224
REMARK UNBOUND:                -1.180
REMARK  Name = 
REMARK  8 active torsions:
REMARK  status: ('A' for Active; 'I' for Inactive)
REMARK    1  A    between atoms: C_1  and  N_2
REMARK    2  A    between atoms: N_2  and  C_3
REMARK    3  A    between atoms: C_3  and  C_4
REMARK    4  A    between atoms: C_7  and  C_8
REMARK    5  A    between atoms: C_8  and  N_9
REMARK    6  A    between atoms: N_9  and  C_10
REMARK    7  A    between atoms: C_10  and  C_11
REMARK    8  A    between atoms: C_18  and  C_20
REMARK                            x       y       z     vdW  Elec       q    Type
REMARK                         _______ _______ _______ _____ _____    ______ ____
ROOT
ATOM      1  C   UNL     1      47.510   7.406  13.921  0.00  0.00    +0.000 C 
ENDROOT
BRANCH   1   2
ATOM      2  C   UNL     1      46.745   6.344  13.190  0.00  0.00    +0.000 A 
ATOM      3  C   UNL     1      46.284   6.552  11.891  0.00  0.00    +0.000 A 
ATOM      4  C   UNL     1      45.602   5.533  11.236  0.00  0.00    +0.000 A 
ATOM      5  C   UNL     1      45.402   4.323  11.897  0.00  0.00    +0.000 A 
ATOM      6  N   UNL     1      45.839   4.100  13.163  0.00  0.00    +0.000 NA
ATOM      7  C   UNL     1      46.490   5.110  13.778  0.00  0.00    +0.000 A 
BRANCH   5   8
ATOM      8  C   UNL     1      44.646   3.200  11.218  0.00  0.00    +0.000 C 
BRANCH   8   9
ATOM      9  N   UNL     1      44.336   3.450   9.805  0.00  0.00    +0.000 NA
ATOM     10  H   UNL     1      44.940   4.218   9.494  0.00  0.00    +0.000 HD
BRANCH   9  11
ATOM     11  C   UNL     1      44.662   2.297   8.959  0.00  0.00    +0.000 C 
BRANCH  11  12
ATOM     12  C   UNL     1      45.834   2.662   8.100  0.00  0.00    +0.000 A 
ATOM     13  C   UNL     1      46.832   1.796   7.590  0.00  0.00    +0.000 A 
ATOM     14  C   UNL     1      47.661   2.608   6.853  0.00  0.00    +0.000 A 
ATOM     15  N   UNL     1      47.138   3.863   6.947  0.00  0.00    +0.000 N 
ATOM     16  N   UNL     1      46.037   3.930   7.710  0.00  0.00    +0.000 NA
ATOM     17  H   UNL     1      47.478   4.717   6.520  0.00  0.00    +0.000 HD
ENDBRANCH  11  12
ENDBRANCH   9  11
ENDBRANCH   8   9
ENDBRANCH   5   8
ENDBRANCH   1   2
BRANCH   1  19
ATOM     18  C   UNL     1      49.773   7.609  12.806  0.00  0.00    +0.000 C 
ATOM     19  N   UNL     1      48.970   7.259  13.973  0.00  0.00    +0.000 N 
ATOM     20  C   UNL     1      49.680   7.019  15.164  0.00  0.00    +0.000 C 
ATOM     21  O   UNL     1      50.906   7.092  15.200  0.00  0.00    +0.000 OA
BRANCH  20  22
ATOM     22  C   UNL     1      48.944   6.638  16.378  0.00  0.00    +0.000 A 
ATOM     23  C   UNL     1      48.696   5.331  16.767  0.00  0.00    +0.000 A 
ATOM     24  S   UNL     1      47.876   5.206  18.259  0.00  0.00    +0.000 S 
ATOM     25  C   UNL     1      47.960   6.888  18.503  0.00  0.00    +0.000 A 
ATOM     26  N   UNL     1      47.527   7.446  19.663  0.00  0.00    +0.000 NA
ATOM     27  C   UNL     1      47.721   8.723  19.738  0.00  0.00    +0.000 A 
ATOM     28  N   UNL     1      48.271   9.490  18.743  0.00  0.00    +0.000 N 
ATOM     29  C   UNL     1      48.591   8.990  17.498  0.00  0.00    +0.000 A 
ATOM     30  O   UNL     1      48.840   9.737  16.563  0.00  0.00    +0.000 OA
ATOM     31  C   UNL     1      48.511   7.540  17.416  0.00  0.00    +0.000 A 
ATOM     32  H   UNL     1      48.335  10.493  18.841  0.00  0.00    +0.000 HD
ENDBRANCH  20  22
ENDBRANCH   1  19
TORSDOF 7
ENDMDL
MODEL 5
REMARK VINA RESULT:    -6.954      3.337      8.489
REMARK INTER + INTRA:         -10.979
REMARK INTER:                  -9.980
REMARK INTRA:                  -1.000
REMARK UNBOUND:                -1.180
REMARK  Name = 
REMARK  8 active torsions:
REMARK  status: ('A' for Active; 'I' for Inactive)
REMARK    1  A    between atoms: C_1  and  N_2
REMARK    2  A    between atoms: N_2  and  C_3
REMARK    3  A    between atoms: C_3  and  C_4
REMARK    4  A    between atoms: C_7  and  C_8
REMARK    5  A    between atoms: C_8  and  N_9
REMARK    6  A    between atoms: N_9  and  C_10
REMARK    7  A    between atoms: C_10  and  C_11
REMARK    8  A    between atoms: C_18  and  C_20
REMARK                            x       y       z     vdW  Elec       q    Type
REMARK                         _______ _______ _______ _____ _____    ______ ____
ROOT
ATOM      1  C   UNL     1      48.413   6.681  13.478  0.00  0.00    +0.000 C 
ENDROOT
BRANCH   1   2
ATOM      2  C   UNL     1      47.227   6.089  12.778  0.00  0.00    +0.000 A 
ATOM      3  C   UNL     1      46.444   5.110  13.388  0.00  0.00    +0.000 A 
ATOM      4  C   UNL     1      45.335   4.606  12.718  0.00  0.00    +0.000 A 
ATOM      5  C   UNL     1      45.033   5.098  11.450  0.00  0.00    +0.000 A 
ATOM      6  N   UNL     1      45.784   6.047  10.835  0.00  0.00    +0.000 NA
ATOM      7  C   UNL     1      46.859   6.513  11.506  0.00  0.00    +0.000 A 
BRANCH   5   8
ATOM      8  C   UNL     1      43.844   4.554  10.685  0.00  0.00    +0.000 C 
BRANCH   8   9
ATOM      9  N   UNL     1      44.098   4.326   9.257  0.00  0.00    +0.000 NA
ATOM     10  H   UNL     1      44.857   4.958   8.981  0.00  0.00    +0.000 HD
BRANCH   9  11
ATOM     11  C   UNL     1      44.576   2.965   8.994  0.00  0.00    +0.000 C 
BRANCH  11  12
ATOM     12  C   UNL     1      45.784   3.053   8.114  0.00  0.00    +0.000 A 
ATOM     13  C   UNL     1      46.598   1.988   7.657  0.00  0.00    +0.000 A 
ATOM     14  C   UNL     1      47.554   2.585   6.872  0.00  0.00    +0.000 A 
ATOM     15  N   UNL     1      47.276   3.919   6.890  0.00  0.00    +0.000 N 
ATOM     16  N   UNL     1      46.216   4.236   7.648  0.00  0.00    +0.000 NA
ATOM     17  H   UNL     1      47.764   4.668   6.412  0.00  0.00    +0.000 HD
ENDBRANCH  11  12
ENDBRANCH   9  11
ENDBRANCH   8   9
ENDBRANCH   5   8
ENDBRANCH   1   2
BRANCH   1  19
ATOM     18  C   UNL     1      47.007   8.710  14.033  0.00  0.00    +0.000 C 
ATOM     19  N   UNL     1      48.177   7.877  14.294  0.00  0.00    +0.000 N 
ATOM     20  C   UNL     1      48.884   8.157  15.478  0.00  0.00    +0.000 C 
ATOM     21  O   UNL     1      48.532   9.061  16.232  0.00  0.00    +0.000 OA
BRANCH  20  22
ATOM     22  C   UNL     1      50.088   7.378  15.800  0.00  0.00    +0.000 A 
ATOM     23  C   UNL     1      51.385   7.811  15.575  0.00  0.00    +0.000 A 
ATOM     24  S   UNL     1      52.575   6.713  16.116  0.00  0.00    +0.000 S 
ATOM     25  C   UNL     1      51.396   5.696  16.802  0.00  0.00    +0.000 A 
ATOM     26  N   UNL     1      51.754   4.605  17.528  0.00  0.00    +0.000 NA
ATOM     27  C   UNL     1      50.755   3.968  18.049  0.00  0.00    +0.000 A 
ATOM     28  N   UNL     1      49.437   4.304  17.875  0.00  0.00    +0.000 N 
ATOM     29  C   UNL     1      49.023   5.314  17.031  0.00  0.00    +0.000 A 
ATOM     30  O   UNL     1      47.850   5.424  16.706  0.00  0.00    +0.000 OA
ATOM     31  C   UNL     1      50.114   6.134  16.530  0.00  0.00    +0.000 A 
ATOM     32  H   UNL     1      48.703   3.726  18.257  0.00  0.00    +0.000 HD
ENDBRANCH  20  22
ENDBRANCH   1  19
TORSDOF 7
ENDMDL
MODEL 6
REMARK VINA RESULT:    -6.896      2.282      3.211
REMARK INTER + INTRA:         -10.898
REMARK INTER:                  -9.575
REMARK INTRA:                  -1.323
REMARK UNBOUND:                -1.180
REMARK  Name = 
REMARK  8 active torsions:
REMARK  status: ('A' for Active; 'I' for Inactive)
REMARK    1  A    between atoms: C_1  and  N_2
REMARK    2  A    between atoms: N_2  and  C_3
REMARK    3  A    between atoms: C_3  and  C_4
REMARK    4  A    between atoms: C_7  and  C_8
REMARK    5  A    between atoms: C_8  and  N_9
REMARK    6  A    between atoms: N_9  and  C_10
REMARK    7  A    between atoms: C_10  and  C_11
REMARK    8  A    between atoms: C_18  and  C_20
REMARK                            x       y       z     vdW  Elec       q    Type
REMARK                         _______ _______ _______ _____ _____    ______ ____
ROOT
ATOM      1  C   UNL     1      47.207   6.121  12.412  0.00  0.00    +0.000 C 
ENDROOT
BRANCH   1   2
ATOM      2  C   UNL     1      47.482   5.675  13.817  0.00  0.00    +0.000 A 
ATOM      3  C   UNL     1      46.875   4.537  14.345  0.00  0.00    +0.000 A 
ATOM      4  C   UNL     1      47.176   4.141  15.643  0.00  0.00    +0.000 A 
ATOM      5  C   UNL     1      48.086   4.894  16.383  0.00  0.00    +0.000 A 
ATOM      6  N   UNL     1      48.685   6.008  15.891  0.00  0.00    +0.000 NA
ATOM      7  C   UNL     1      48.367   6.374  14.631  0.00  0.00    +0.000 A 
BRANCH   5   8
ATOM      8  C   UNL     1      48.420   4.501  17.807  0.00  0.00    +0.000 C 
BRANCH   8   9
ATOM      9  N   UNL     1      47.288   4.589  18.739  0.00  0.00    +0.000 NA
ATOM     10  H   UNL     1      47.630   4.293  19.658  0.00  0.00    +0.000 HD
BRANCH   9  11
ATOM     11  C   UNL     1      46.813   5.968  18.897  0.00  0.00    +0.000 C 
BRANCH  11  12
ATOM     12  C   UNL     1      47.864   6.745  19.628  0.00  0.00    +0.000 A 
ATOM     13  C   UNL     1      48.412   8.001  19.270  0.00  0.00    +0.000 A 
ATOM     14  C   UNL     1      49.314   8.289  20.266  0.00  0.00    +0.000 A 
ATOM     15  N   UNL     1      49.260   7.242  21.137  0.00  0.00    +0.000 N 
ATOM     16  N   UNL     1      48.399   6.282  20.769  0.00  0.00    +0.000 NA
ATOM     17  H   UNL     1      49.779   7.116  21.999  0.00  0.00    +0.000 HD
ENDBRANCH  11  12
ENDBRANCH   9  11
ENDBRANCH   8   9
ENDBRANCH   5   8
ENDBRANCH   1   2
BRANCH   1  19
ATOM     18  C   UNL     1      46.367   8.507  12.336  0.00  0.00    +0.000 C 
ATOM     19  N   UNL     1      46.109   7.075  12.219  0.00  0.00    +0.000 N 
ATOM     20  C   UNL     1      44.854   6.713  11.695  0.00  0.00    +0.000 C 
ATOM     21  O   UNL     1      44.029   7.564  11.370  0.00  0.00    +0.000 OA
BRANCH  20  22
ATOM     22  C   UNL     1      44.509   5.290  11.569  0.00  0.00    +0.000 A 
ATOM     23  C   UNL     1      43.758   4.580  12.492  0.00  0.00    +0.000 A 
ATOM     24  S   UNL     1      43.466   2.961  12.036  0.00  0.00    +0.000 S 
ATOM     25  C   UNL     1      44.206   3.202  10.523  0.00  0.00    +0.000 A 
ATOM     26  N   UNL     1      44.203   2.222   9.582  0.00  0.00    +0.000 NA
ATOM     27  C   UNL     1      44.736   2.571   8.456  0.00  0.00    +0.000 A 
ATOM     28  N   UNL     1      45.303   3.794   8.205  0.00  0.00    +0.000 N 
ATOM     29  C   UNL     1      45.457   4.765   9.173  0.00  0.00    +0.000 A 
ATOM     30  O   UNL     1      46.181   5.732   8.988  0.00  0.00    +0.000 OA
ATOM     31  C   UNL     1      44.757   4.464  10.412  0.00  0.00    +0.000 A 
ATOM     32  H   UNL     1      45.760   3.979   7.324  0.00  0.00    +0.000 HD
ENDBRANCH  20  22
ENDBRANCH   1  19
TORSDOF 7
ENDMDL
MODEL 7
REMARK VINA RESULT:    -6.792      3.204      8.205
REMARK INTER + INTRA:         -10.751
REMARK INTER:                  -9.753
REMARK INTRA:                  -0.998
REMARK UNBOUND:                -1.180
REMARK  Name = 
REMARK  8 active torsions:
REMARK  status: ('A' for Active; 'I' for Inactive)
REMARK    1  A    between atoms: C_1  and  N_2
REMARK    2  A    between atoms: N_2  and  C_3
REMARK    3  A    between atoms: C_3  and  C_4
REMARK    4  A    between atoms: C_7  and  C_8
REMARK    5  A    between atoms: C_8  and  N_9
REMARK    6  A    between atoms: N_9  and  C_10
REMARK    7  A    between atoms: C_10  and  C_11
REMARK    8  A    between atoms: C_18  and  C_20
REMARK                            x       y       z     vdW  Elec       q    Type
REMARK                         _______ _______ _______ _____ _____    ______ ____
ROOT
ATOM      1  C   UNL     1      49.350   6.841  15.207  0.00  0.00    +0.000 C 
ENDROOT
BRANCH   1   2
ATOM      2  C   UNL     1      48.116   6.780  14.358  0.00  0.00    +0.000 A 
ATOM      3  C   UNL     1      47.512   5.562  14.050  0.00  0.00    +0.000 A 
ATOM      4  C   UNL     1      46.353   5.549  13.283  0.00  0.00    +0.000 A 
ATOM      5  C   UNL     1      45.821   6.759  12.845  0.00  0.00    +0.000 A 
ATOM      6  N   UNL     1      46.394   7.956  13.129  0.00  0.00    +0.000 NA
ATOM      7  C   UNL     1      47.524   7.939  13.868  0.00  0.00    +0.000 A 
BRANCH   5   8
ATOM      8  C   UNL     1      44.570   6.777  11.990  0.00  0.00    +0.000 C 
BRANCH   8   9
ATOM      9  N   UNL     1      43.432   6.054  12.571  0.00  0.00    +0.000 NA
ATOM     10  H   UNL     1      42.856   6.743  13.065  0.00  0.00    +0.000 HD
BRANCH   9  11
ATOM     11  C   UNL     1      42.575   5.458  11.541  0.00  0.00    +0.000 C 
BRANCH  11  12
ATOM     12  C   UNL     1      43.280   4.264  10.976  0.00  0.00    +0.000 A 
ATOM     13  C   UNL     1      44.111   4.215   9.831  0.00  0.00    +0.000 A 
ATOM     14  C   UNL     1      44.524   2.907   9.749  0.00  0.00    +0.000 A 
ATOM     15  N   UNL     1      43.951   2.265  10.806  0.00  0.00    +0.000 N 
ATOM     16  N   UNL     1      43.177   3.060  11.560  0.00  0.00    +0.000 NA
ATOM     17  H   UNL     1      44.042   1.292  11.073  0.00  0.00    +0.000 HD
ENDBRANCH  11  12
ENDBRANCH   9  11
ENDBRANCH   8   9
ENDBRANCH   5   8
ENDBRANCH   1   2
BRANCH   1  19
ATOM     18  C   UNL     1      49.358   8.940  16.621  0.00  0.00    +0.000 C 
ATOM     19  N   UNL     1      49.226   7.490  16.517  0.00  0.00    +0.000 N 
ATOM     20  C   UNL     1      48.752   6.829  17.665  0.00  0.00    +0.000 C 
ATOM     21  O   UNL     1      48.482   7.447  18.692  0.00  0.00    +0.000 OA
BRANCH  20  22
ATOM     22  C   UNL     1      48.615   5.365  17.648  0.00  0.00    +0.000 A 
ATOM     23  C   UNL     1      47.418   4.692  17.460  0.00  0.00    +0.000 A 
ATOM     24  S   UNL     1      47.587   2.994  17.422  0.00  0.00    +0.000 S 
ATOM     25  C   UNL     1      49.283   3.112  17.507  0.00  0.00    +0.000 A 
ATOM     26  N   UNL     1      50.063   2.004  17.410  0.00  0.00    +0.000 NA
ATOM     27  C   UNL     1      51.333   2.253  17.416  0.00  0.00    +0.000 A 
ATOM     28  N   UNL     1      51.885   3.501  17.549  0.00  0.00    +0.000 N 
ATOM     29  C   UNL     1      51.135   4.632  17.795  0.00  0.00    +0.000 A 
ATOM     30  O   UNL     1      51.664   5.674  18.155  0.00  0.00    +0.000 OA
ATOM     31  C   UNL     1      49.703   4.418  17.666  0.00  0.00    +0.000 A 
ATOM     32  H   UNL     1      52.886   3.618  17.611  0.00  0.00    +0.000 HD
ENDBRANCH  20  22
ENDBRANCH   1  19
TORSDOF 7
ENDMDL
MODEL 8
REMARK VINA RESULT:    -6.772      1.617      2.184
REMARK INTER + INTRA:         -10.723
REMARK INTER:                  -9.452
REMARK INTRA:                  -1.271
REMARK UNBOUND:                -1.180
REMARK  Name = 
REMARK  8 active torsions:
REMARK  status: ('A' for Active; 'I' for Inactive)
REMARK    1  A    between atoms: C_1  and  N_2
REMARK    2  A    between atoms: N_2  and  C_3
REMARK    3  A    between atoms: C_3  and  C_4
REMARK    4  A    between atoms: C_7  and  C_8
REMARK    5  A    between atoms: C_8  and  N_9
REMARK    6  A    between atoms: N_9  and  C_10
REMARK    7  A    between atoms: C_10  and  C_11
REMARK    8  A    between atoms: C_18  and  C_20
REMARK                            x       y       z     vdW  Elec       q    Type
REMARK                         _______ _______ _______ _____ _____    ______ ____
ROOT
ATOM      1  C   UNL     1      47.105   6.132  12.265  0.00  0.00    +0.000 C 
ENDROOT
BRANCH   1   2
ATOM      2  C   UNL     1      47.335   5.655  13.668  0.00  0.00    +0.000 A 
ATOM      3  C   UNL     1      48.105   6.394  14.564  0.00  0.00    +0.000 A 
ATOM      4  C   UNL     1      48.272   5.932  15.865  0.00  0.00    +0.000 A 
ATOM      5  C   UNL     1      47.658   4.739  16.240  0.00  0.00    +0.000 A 
ATOM      6  N   UNL     1      46.908   4.001  15.383  0.00  0.00    +0.000 NA
ATOM      7  C   UNL     1      46.770   4.469  14.124  0.00  0.00    +0.000 A 
BRANCH   5   8
ATOM      8  C   UNL     1      47.838   4.198  17.643  0.00  0.00    +0.000 C 
BRANCH   8   9
ATOM      9  N   UNL     1      49.077   3.438  17.843  0.00  0.00    +0.000 NA
ATOM     10  H   UNL     1      49.600   3.474  16.961  0.00  0.00    +0.000 HD
BRANCH   9  11
ATOM     11  C   UNL     1      49.939   4.048  18.861  0.00  0.00    +0.000 C 
BRANCH  11  12
ATOM     12  C   UNL     1      50.729   5.142  18.213  0.00  0.00    +0.000 A 
ATOM     13  C   UNL     1      50.883   6.477  18.662  0.00  0.00    +0.000 A 
ATOM     14  C   UNL     1      51.709   7.068  17.738  0.00  0.00    +0.000 A 
ATOM     15  N   UNL     1      52.003   6.101  16.823  0.00  0.00    +0.000 N 
ATOM     16  N   UNL     1      51.410   4.925  17.077  0.00  0.00    +0.000 NA
ATOM     17  H   UNL     1      52.598   6.171  16.005  0.00  0.00    +0.000 HD
ENDBRANCH  11  12
ENDBRANCH   9  11
ENDBRANCH   8   9
ENDBRANCH   5   8
ENDBRANCH   1   2
BRANCH   1  19
ATOM     18  C   UNL     1      46.231   8.504  12.145  0.00  0.00    +0.000 C 
ATOM     19  N   UNL     1      45.994   7.067  12.053  0.00  0.00    +0.000 N 
ATOM     20  C   UNL     1      44.746   6.678  11.534  0.00  0.00    +0.000 C 
ATOM     21  O   UNL     1      43.910   7.511  11.192  0.00  0.00    +0.000 OA
BRANCH  20  22
ATOM     22  C   UNL     1      44.421   5.248  11.432  0.00  0.00    +0.000 A 
ATOM     23  C   UNL     1      43.649   4.552  12.348  0.00  0.00    +0.000 A 
ATOM     24  S   UNL     1      43.390   2.919  11.924  0.00  0.00    +0.000 S 
ATOM     25  C   UNL     1      44.176   3.131  10.429  0.00  0.00    +0.000 A 
ATOM     26  N   UNL     1      44.214   2.129   9.514  0.00  0.00    +0.000 NA
ATOM     27  C   UNL     1      44.779   2.457   8.397  0.00  0.00    +0.000 A 
ATOM     28  N   UNL     1      45.339   3.680   8.133  0.00  0.00    +0.000 N 
ATOM     29  C   UNL     1      45.451   4.676   9.082  0.00  0.00    +0.000 A 
ATOM     30  O   UNL     1      46.170   5.647   8.895  0.00  0.00    +0.000 OA
ATOM     31  C   UNL     1      44.715   4.397  10.305  0.00  0.00    +0.000 A 
ATOM     32  H   UNL     1      45.822   3.849   7.263  0.00  0.00    +0.000 HD
ENDBRANCH  20  22
ENDBRANCH   1  19
TORSDOF 7
ENDMDL
MODEL 9
REMARK VINA RESULT:    -6.478      1.960      2.973
REMARK INTER + INTRA:         -10.308
REMARK INTER:                  -9.314
REMARK INTRA:                  -0.994
REMARK UNBOUND:                -1.180
REMARK  Name = 
REMARK  8 active torsions:
REMARK  status: ('A' for Active; 'I' for Inactive)
REMARK    1  A    between atoms: C_1  and  N_2
REMARK    2  A    between atoms: N_2  and  C_3
REMARK    3  A    between atoms: C_3  and  C_4
REMARK    4  A    between atoms: C_7  and  C_8
REMARK    5  A    between atoms: C_8  and  N_9
REMARK    6  A    between atoms: N_9  and  C_10
REMARK    7  A    between atoms: C_10  and  C_11
REMARK    8  A    between atoms: C_18  and  C_20
REMARK                            x       y       z     vdW  Elec       q    Type
REMARK                         _______ _______ _______ _____ _____    ______ ____
ROOT
ATOM      1  C   UNL     1      47.469   6.685  12.225  0.00  0.00    +0.000 C 
ENDROOT
BRANCH   1   2
ATOM      2  C   UNL     1      48.276   6.642  13.488  0.00  0.00    +0.000 A 
ATOM      3  C   UNL     1      49.451   7.381  13.618  0.00  0.00    +0.000 A 
ATOM      4  C   UNL     1      50.157   7.336  14.815  0.00  0.00    +0.000 A 
ATOM      5  C   UNL     1      49.666   6.554  15.858  0.00  0.00    +0.000 A 
ATOM      6  N   UNL     1      48.527   5.823  15.751  0.00  0.00    +0.000 NA
ATOM      7  C   UNL     1      47.866   5.878  14.575  0.00  0.00    +0.000 A 
BRANCH   5   8
ATOM      8  C   UNL     1      50.422   6.468  17.167  0.00  0.00    +0.000 C 
BRANCH   8   9
ATOM      9  N   UNL     1      51.328   5.317  17.266  0.00  0.00    +0.000 NA
ATOM     10  H   UNL     1      52.250   5.679  17.529  0.00  0.00    +0.000 HD
BRANCH   9  11
ATOM     11  C   UNL     1      50.927   4.391  18.330  0.00  0.00    +0.000 C 
BRANCH  11  12
ATOM     12  C   UNL     1      49.710   3.648  17.872  0.00  0.00    +0.000 A 
ATOM     13  C   UNL     1      48.431   3.631  18.480  0.00  0.00    +0.000 A 
ATOM     14  C   UNL     1      47.666   2.826  17.672  0.00  0.00    +0.000 A 
ATOM     15  N   UNL     1      48.485   2.421  16.660  0.00  0.00    +0.000 N 
ATOM     16  N   UNL     1      49.737   2.893  16.763  0.00  0.00    +0.000 NA
ATOM     17  H   UNL     1      48.261   1.827  15.870  0.00  0.00    +0.000 HD
ENDBRANCH  11  12
ENDBRANCH   9  11
ENDBRANCH   8   9
ENDBRANCH   5   8
ENDBRANCH   1   2
BRANCH   1  19
ATOM     18  C   UNL     1      46.382   8.885  12.845  0.00  0.00    +0.000 C 
ATOM     19  N   UNL     1      46.300   7.573  12.211  0.00  0.00    +0.000 N 
ATOM     20  C   UNL     1      45.162   7.339  11.419  0.00  0.00    +0.000 C 
ATOM     21  O   UNL     1      44.289   8.194  11.287  0.00  0.00    +0.000 OA
BRANCH  20  22
ATOM     22  C   UNL     1      44.993   6.032  10.766  0.00  0.00    +0.000 A 
ATOM     23  C   UNL     1      45.549   5.688   9.545  0.00  0.00    +0.000 A 
ATOM     24  S   UNL     1      45.233   4.077   9.079  0.00  0.00    +0.000 S 
ATOM     25  C   UNL     1      44.471   3.745  10.564  0.00  0.00    +0.000 A 
ATOM     26  N   UNL     1      44.052   2.489  10.866  0.00  0.00    +0.000 NA
ATOM     27  C   UNL     1      43.559   2.370  12.056  0.00  0.00    +0.000 A 
ATOM     28  N   UNL     1      43.415   3.400  12.949  0.00  0.00    +0.000 N 
ATOM     29  C   UNL     1      43.694   4.714  12.633  0.00  0.00    +0.000 A 
ATOM     30  O   UNL     1      43.322   5.629  13.354  0.00  0.00    +0.000 OA
ATOM     31  C   UNL     1      44.369   4.872  11.355  0.00  0.00    +0.000 A 
ATOM     32  H   UNL     1      42.963   3.252  13.840  0.00  0.00    +0.000 HD
ENDBRANCH  20  22
ENDBRANCH   1  19
TORSDOF 7
ENDMDL
