MODEL 1
REMARK VINA RESULT:    -8.352      0.000      0.000
REMARK INTER + INTRA:         -12.930
REMARK INTER:                 -12.014
REMARK INTRA:                  -0.916
REMARK UNBOUND:                -0.916
REMARK  Name = 
REMARK  8 active torsions:
REMARK  status: ('A' for Active; 'I' for Inactive)
REMARK    1  A    between atoms: C_2  and  C_21
REMARK    2  A    between atoms: N_3  and  C_4
REMARK    3  A    between atoms: C_4  and  C_5
REMARK    4  A    between atoms: C_8  and  C_9
REMARK    5  A    between atoms: C_9  and  C_10
REMARK    6  A    between atoms: C_10  and  O_11
REMARK    7  A    between atoms: C_10  and  C_12
REMARK    8  A    between atoms: C_12  and  C_13
REMARK                            x       y       z     vdW  Elec       q    Type
REMARK                         _______ _______ _______ _____ _____    ______ ____
ROOT
ATOM      1  C   UNL     1      47.576   6.329  13.423  0.00  0.00    +0.000 A 
ATOM      2  C   UNL     1      47.098   6.685  12.166  0.00  0.00    +0.000 A 
ATOM      3  C   UNL     1      46.113   5.912  11.554  0.00  0.00    +0.000 A 
ATOM      4  C   UNL     1      45.596   4.799  12.219  0.00  0.00    +0.000 A 
ATOM      5  N   UNL     1      45.998   4.463  13.468  0.00  0.00    +0.000 NA
ATOM      6  C   UNL     1      46.975   5.225  14.036  0.00  0.00    +0.000 A 
ENDROOT
BRANCH   1   7
ATOM      7  C   UNL     1      48.675   7.111  14.083  0.00  0.00    +0.000 C 
BRANCH   7  10
ATOM      8  O   UNL     1      50.772   6.469  15.884  0.00  0.00    +0.000 OA
ATOM      9  C   UNL     1      49.675   6.795  16.328  0.00  0.00    +0.000 C 
ATOM     10  N   UNL     1      48.595   7.042  15.519  0.00  0.00    +0.000 N 
ATOM     11  H   UNL     1      47.756   7.433  15.932  0.00  0.00    +0.000 HD
BRANCH   9  12
ATOM     12  C   UNL     1      49.430   6.914  17.772  0.00  0.00    +0.000 A 
ATOM     13  C   UNL     1      49.409   8.161  18.382  0.00  0.00    +0.000 A 
ATOM     14  S   UNL     1      49.091   8.096  20.058  0.00  0.00    +0.000 S 
ATOM     15  C   UNL     1      48.929   6.402  20.018  0.00  0.00    +0.000 A 
ATOM     16  N   UNL     1      48.608   5.699  21.139  0.00  0.00    +0.000 NA
ATOM     17  C   UNL     1      48.473   4.428  20.951  0.00  0.00    +0.000 A 
ATOM     18  N   UNL     1      48.646   3.793  19.750  0.00  0.00    +0.000 N 
ATOM     19  C   UNL     1      49.058   4.448  18.617  0.00  0.00    +0.000 A 
ATOM     20  O   UNL     1      49.365   3.826  17.605  0.00  0.00    +0.000 OA
ATOM     21  C   UNL     1      49.157   5.890  18.754  0.00  0.00    +0.000 A 
ATOM     22  H   UNL     1      48.569   2.789  19.678  0.00  0.00    +0.000 HD
ENDBRANCH   9  12
ENDBRANCH   7  10
ENDBRANCH   1   7
BRANCH   4  23
ATOM     23  C   UNL     1      44.534   3.969  11.518  0.00  0.00    +0.000 C 
BRANCH  23  24
ATOM     24  C   UNL     1      44.513   3.926   9.976  0.00  0.00    +0.000 C 
BRANCH  24  25
ATOM     25  O   UNL     1      43.421   4.725   9.496  0.00  0.00    +0.000 OA
ATOM     26  H   UNL     1      43.357   5.481  10.113  0.00  0.00    +0.000 HD
ENDBRANCH  24  25
BRANCH  24  27
ATOM     27  C   UNL     1      44.478   2.517   9.363  0.00  0.00    +0.000 C 
BRANCH  27  28
ATOM     28  C   UNL     1      45.538   2.341   8.291  0.00  0.00    +0.000 A 
ATOM     29  C   UNL     1      45.809   3.373   7.392  0.00  0.00    +0.000 A 
ATOM     30  C   UNL     1      46.798   3.195   6.428  0.00  0.00    +0.000 A 
ATOM     31  C   UNL     1      47.495   1.995   6.385  0.00  0.00    +0.000 A 
ATOM     32  C   UNL     1      47.168   1.020   7.312  0.00  0.00    +0.000 A 
ATOM     33  N   UNL     1      46.210   1.162   8.258  0.00  0.00    +0.000 NA
ENDBRANCH  27  28
ENDBRANCH  24  27
ENDBRANCH  23  24
ENDBRANCH   4  23
TORSDOF 8
ENDMDL
MODEL 2
REMARK VINA RESULT:    -8.263      1.641      2.348
REMARK INTER + INTRA:         -12.802
REMARK INTER:                 -11.844
REMARK INTRA:                  -0.958
REMARK UNBOUND:                -0.916
REMARK  Name = 
REMARK  8 active torsions:
REMARK  status: ('A' for Active; 'I' for Inactive)
REMARK    1  A    between atoms: C_2  and  C_21
REMARK    2  A    between atoms: N_3  and  C_4
REMARK    3  A    between atoms: C_4  and  C_5
REMARK    4  A    between atoms: C_8  and  C_9
REMARK    5  A    between atoms: C_9  and  C_10
REMARK    6  A    between atoms: C_10  and  O_11
REMARK    7  A    between atoms: C_10  and  C_12
REMARK    8  A    between atoms: C_12  and  C_13
REMARK                            x       y       z     vdW  Elec       q    Type
REMARK                         _______ _______ _______ _____ _____    ______ ____
ROOT
ATOM      1  C   UNL     1      47.341   5.933  13.685  0.00  0.00    +0.000 A 
ATOM      2  C   UNL     1      46.896   6.500  12.494  0.00  0.00    +0.000 A 
ATOM      3  C   UNL     1      45.910   5.860  11.746  0.00  0.00    +0.000 A 
ATOM      4  C   UNL     1      45.357   4.665  12.211  0.00  0.00    +0.000 A 
ATOM      5  N   UNL     1      45.726   4.120  13.396  0.00  0.00    +0.000 NA
ATOM      6  C   UNL     1      46.705   4.757  14.098  0.00  0.00    +0.000 A 
ENDROOT
BRANCH   1   7
ATOM      7  C   UNL     1      48.439   6.572  14.483  0.00  0.00    +0.000 C 
BRANCH   7  10
ATOM      8  O   UNL     1      49.733   5.304  16.668  0.00  0.00    +0.000 OA
ATOM      9  C   UNL     1      48.818   6.093  16.884  0.00  0.00    +0.000 C 
ATOM     10  N   UNL     1      48.097   6.682  15.877  0.00  0.00    +0.000 N 
ATOM     11  H   UNL     1      47.444   7.421  16.112  0.00  0.00    +0.000 HD
BRANCH   9  12
ATOM     12  C   UNL     1      48.406   6.441  18.251  0.00  0.00    +0.000 A 
ATOM     13  C   UNL     1      48.183   5.447  19.194  0.00  0.00    +0.000 A 
ATOM     14  S   UNL     1      47.731   6.049  20.727  0.00  0.00    +0.000 S 
ATOM     15  C   UNL     1      47.858   7.660  20.194  0.00  0.00    +0.000 A 
ATOM     16  N   UNL     1      47.639   8.701  21.043  0.00  0.00    +0.000 NA
ATOM     17  C   UNL     1      47.817   9.867  20.515  0.00  0.00    +0.000 A 
ATOM     18  N   UNL     1      48.176  10.088  19.212  0.00  0.00    +0.000 N 
ATOM     19  C   UNL     1      48.318   9.073  18.299  0.00  0.00    +0.000 A 
ATOM     20  O   UNL     1      48.473   9.314  17.106  0.00  0.00    +0.000 OA
ATOM     21  C   UNL     1      48.199   7.737  18.856  0.00  0.00    +0.000 A 
ATOM     22  H   UNL     1      48.256  11.026  18.847  0.00  0.00    +0.000 HD
ENDBRANCH   9  12
ENDBRANCH   7  10
ENDBRANCH   1   7
BRANCH   4  23
ATOM     23  C   UNL     1      44.295   3.985  11.365  0.00  0.00    +0.000 C 
BRANCH  23  24
ATOM     24  C   UNL     1      44.518   3.853   9.844  0.00  0.00    +0.000 C 
BRANCH  24  25
ATOM     25  O   UNL     1      43.520   4.619   9.153  0.00  0.00    +0.000 OA
ATOM     26  H   UNL     1      43.698   5.552   9.383  0.00  0.00    +0.000 HD
ENDBRANCH  24  25
BRANCH  24  27
ATOM     27  C   UNL     1      44.572   2.410   9.315  0.00  0.00    +0.000 C 
BRANCH  27  28
ATOM     28  C   UNL     1      45.665   2.231   8.277  0.00  0.00    +0.000 A 
ATOM     29  C   UNL     1      46.011   3.285   7.430  0.00  0.00    +0.000 A 
ATOM     30  C   UNL     1      47.028   3.102   6.496  0.00  0.00    +0.000 A 
ATOM     31  C   UNL     1      47.677   1.876   6.431  0.00  0.00    +0.000 A 
ATOM     32  C   UNL     1      47.276   0.881   7.306  0.00  0.00    +0.000 A 
ATOM     33  N   UNL     1      46.288   1.027   8.221  0.00  0.00    +0.000 NA
ENDBRANCH  27  28
ENDBRANCH  24  27
ENDBRANCH  23  24
ENDBRANCH   4  23
TORSDOF 8
ENDMDL
MODEL 3
REMARK VINA RESULT:    -7.312      4.896      9.782
REMARK INTER + INTRA:         -11.435
REMARK INTER:                 -10.350
REMARK INTRA:                  -1.085
REMARK UNBOUND:                -0.916
REMARK  Name = 
REMARK  8 active torsions:
REMARK  status: ('A' for Active; 'I' for Inactive)
REMARK    1  A    between atoms: C_2  and  C_21
REMARK    2  A    between atoms: N_3  and  C_4
REMARK    3  A    between atoms: C_4  and  C_5
REMARK    4  A    between atoms: C_8  and  C_9
REMARK    5  A    between atoms: C_9  and  C_10
REMARK    6  A    between atoms: C_10  and  O_11
REMARK    7  A    between atoms: C_10  and  C_12
REMARK    8  A    between atoms: C_12  and  C_13
REMARK                            x       y       z     vdW  Elec       q    Type
REMARK                         _______ _______ _______ _____ _____    ______ ____
ROOT
ATOM      1  C   UNL     1      48.540   3.356  17.165  0.00  0.00    +0.000 A 
ATOM      2  C   UNL     1      49.234   2.156  17.045  0.00  0.00    +0.000 A 
ATOM      3  C   UNL     1      50.604   2.117  17.301  0.00  0.00    +0.000 A 
ATOM      4  C   UNL     1      51.264   3.281  17.701  0.00  0.00    +0.000 A 
ATOM      5  N   UNL     1      50.605   4.450  17.885  0.00  0.00    +0.000 NA
ATOM      6  C   UNL     1      49.270   4.463  17.609  0.00  0.00    +0.000 A 
ENDROOT
BRANCH   1   7
ATOM      7  C   UNL     1      47.077   3.438  16.843  0.00  0.00    +0.000 C 
BRANCH   7  10
ATOM      8  O   UNL     1      47.265   3.106  14.030  0.00  0.00    +0.000 OA
ATOM      9  C   UNL     1      46.847   4.166  14.486  0.00  0.00    +0.000 C 
ATOM     10  N   UNL     1      46.804   4.426  15.832  0.00  0.00    +0.000 N 
ATOM     11  H   UNL     1      46.329   5.263  16.152  0.00  0.00    +0.000 HD
BRANCH   9  12
ATOM     12  C   UNL     1      46.391   5.256  13.611  0.00  0.00    +0.000 A 
ATOM     13  C   UNL     1      47.226   6.329  13.330  0.00  0.00    +0.000 A 
ATOM     14  S   UNL     1      46.526   7.481  12.282  0.00  0.00    +0.000 S 
ATOM     15  C   UNL     1      45.100   6.564  12.134  0.00  0.00    +0.000 A 
ATOM     16  N   UNL     1      44.081   6.971  11.329  0.00  0.00    +0.000 NA
ATOM     17  C   UNL     1      43.081   6.154  11.277  0.00  0.00    +0.000 A 
ATOM     18  N   UNL     1      42.999   4.976  11.970  0.00  0.00    +0.000 N 
ATOM     19  C   UNL     1      43.960   4.571  12.862  0.00  0.00    +0.000 A 
ATOM     20  O   UNL     1      43.779   3.599  13.589  0.00  0.00    +0.000 OA
ATOM     21  C   UNL     1      45.140   5.417  12.907  0.00  0.00    +0.000 A 
ATOM     22  H   UNL     1      42.170   4.402  11.922  0.00  0.00    +0.000 HD
ENDBRANCH   9  12
ENDBRANCH   7  10
ENDBRANCH   1   7
BRANCH   4  23
ATOM     23  C   UNL     1      52.760   3.208  17.958  0.00  0.00    +0.000 C 
BRANCH  23  24
ATOM     24  C   UNL     1      53.379   1.870  18.412  0.00  0.00    +0.000 C 
BRANCH  24  25
ATOM     25  O   UNL     1      54.186   2.095  19.577  0.00  0.00    +0.000 OA
ATOM     26  H   UNL     1      54.890   1.417  19.545  0.00  0.00    +0.000 HD
ENDBRANCH  24  25
BRANCH  24  27
ATOM     27  C   UNL     1      54.169   1.116  17.329  0.00  0.00    +0.000 C 
BRANCH  27  28
ATOM     28  C   UNL     1      54.346  -0.350  17.679  0.00  0.00    +0.000 A 
ATOM     29  C   UNL     1      55.082  -1.190  16.843  0.00  0.00    +0.000 A 
ATOM     30  C   UNL     1      55.246  -2.528  17.193  0.00  0.00    +0.000 A 
ATOM     31  C   UNL     1      54.674  -2.996  18.369  0.00  0.00    +0.000 A 
ATOM     32  C   UNL     1      53.958  -2.101  19.145  0.00  0.00    +0.000 A 
ATOM     33  N   UNL     1      53.779  -0.796  18.829  0.00  0.00    +0.000 NA
ENDBRANCH  27  28
ENDBRANCH  24  27
ENDBRANCH  23  24
ENDBRANCH   4  23
TORSDOF 8
ENDMDL
MODEL 4
REMARK VINA RESULT:    -7.265      1.651      2.040
REMARK INTER + INTRA:         -11.367
REMARK INTER:                  -9.993
REMARK INTRA:                  -1.374
REMARK UNBOUND:                -0.916
REMARK  Name = 
REMARK  8 active torsions:
REMARK  status: ('A' for Active; 'I' for Inactive)
REMARK    1  A    between atoms: C_2  and  C_21
REMARK    2  A    between atoms: N_3  and  C_4
REMARK    3  A    between atoms: C_4  and  C_5
REMARK    4  A    between atoms: C_8  and  C_9
REMARK    5  A    between atoms: C_9  and  C_10
REMARK    6  A    between atoms: C_10  and  O_11
REMARK    7  A    between atoms: C_10  and  C_12
REMARK    8  A    between atoms: C_12  and  C_13
REMARK                            x       y       z     vdW  Elec       q    Type
REMARK                         _______ _______ _______ _____ _____    ______ ____
ROOT
ATOM      1  C   UNL     1      47.744   6.808  13.103  0.00  0.00    +0.000 A 
ATOM      2  C   UNL     1      47.413   5.462  13.217  0.00  0.00    +0.000 A 
ATOM      3  C   UNL     1      46.079   5.065  13.134  0.00  0.00    +0.000 A 
ATOM      4  C   UNL     1      45.087   6.022  12.912  0.00  0.00    +0.000 A 
ATOM      5  N   UNL     1      45.385   7.332  12.737  0.00  0.00    +0.000 NA
ATOM      6  C   UNL     1      46.694   7.694  12.841  0.00  0.00    +0.000 A 
ENDROOT
BRANCH   1   7
ATOM      7  C   UNL     1      49.165   7.269  13.243  0.00  0.00    +0.000 C 
BRANCH   7  10
ATOM      8  O   UNL     1      48.630   9.014  15.417  0.00  0.00    +0.000 OA
ATOM      9  C   UNL     1      49.278   7.990  15.611  0.00  0.00    +0.000 C 
ATOM     10  N   UNL     1      49.642   7.142  14.596  0.00  0.00    +0.000 N 
ATOM     11  H   UNL     1      50.061   6.250  14.831  0.00  0.00    +0.000 HD
BRANCH   9  12
ATOM     12  C   UNL     1      49.744   7.613  16.953  0.00  0.00    +0.000 A 
ATOM     13  C   UNL     1      50.518   8.489  17.701  0.00  0.00    +0.000 A 
ATOM     14  S   UNL     1      50.944   7.881  19.238  0.00  0.00    +0.000 S 
ATOM     15  C   UNL     1      50.072   6.444  18.974  0.00  0.00    +0.000 A 
ATOM     16  N   UNL     1      49.987   5.485  19.936  0.00  0.00    +0.000 NA
ATOM     17  C   UNL     1      49.255   4.469  19.615  0.00  0.00    +0.000 A 
ATOM     18  N   UNL     1      48.614   4.317  18.415  0.00  0.00    +0.000 N 
ATOM     19  C   UNL     1      48.745   5.214  17.385  0.00  0.00    +0.000 A 
ATOM     20  O   UNL     1      48.297   4.965  16.269  0.00  0.00    +0.000 OA
ATOM     21  C   UNL     1      49.500   6.410  17.715  0.00  0.00    +0.000 A 
ATOM     22  H   UNL     1      48.091   3.478  18.208  0.00  0.00    +0.000 HD
ENDBRANCH   9  12
ENDBRANCH   7  10
ENDBRANCH   1   7
BRANCH   4  23
ATOM     23  C   UNL     1      43.642   5.559  12.842  0.00  0.00    +0.000 C 
BRANCH  23  24
ATOM     24  C   UNL     1      43.083   5.046  11.498  0.00  0.00    +0.000 C 
BRANCH  24  25
ATOM     25  O   UNL     1      41.682   5.344  11.426  0.00  0.00    +0.000 OA
ATOM     26  H   UNL     1      41.301   4.676  10.821  0.00  0.00    +0.000 HD
ENDBRANCH  24  25
BRANCH  24  27
ATOM     27  C   UNL     1      43.349   3.560  11.206  0.00  0.00    +0.000 C 
BRANCH  27  28
ATOM     28  C   UNL     1      44.285   3.376  10.025  0.00  0.00    +0.000 A 
ATOM     29  C   UNL     1      44.837   4.486   9.384  0.00  0.00    +0.000 A 
ATOM     30  C   UNL     1      45.706   4.292   8.314  0.00  0.00    +0.000 A 
ATOM     31  C   UNL     1      46.007   2.998   7.910  0.00  0.00    +0.000 A 
ATOM     32  C   UNL     1      45.419   1.949   8.597  0.00  0.00    +0.000 A 
ATOM     33  N   UNL     1      44.568   2.107   9.639  0.00  0.00    +0.000 NA
ENDBRANCH  27  28
ENDBRANCH  24  27
ENDBRANCH  23  24
ENDBRANCH   4  23
TORSDOF 8
ENDMDL
MODEL 5
REMARK VINA RESULT:    -7.226      2.923      9.230
REMARK INTER + INTRA:         -11.311
REMARK INTER:                  -9.671
REMARK INTRA:                  -1.639
REMARK UNBOUND:                -0.916
REMARK  Name = 
REMARK  8 active torsions:
REMARK  status: ('A' for Active; 'I' for Inactive)
REMARK    1  A    between atoms: C_2  and  C_21
REMARK    2  A    between atoms: N_3  and  C_4
REMARK    3  A    between atoms: C_4  and  C_5
REMARK    4  A    between atoms: C_8  and  C_9
REMARK    5  A    between atoms: C_9  and  C_10
REMARK    6  A    between atoms: C_10  and  O_11
REMARK    7  A    between atoms: C_10  and  C_12
REMARK    8  A    between atoms: C_12  and  C_13
REMARK                            x       y       z     vdW  Elec       q    Type
REMARK                         _______ _______ _______ _____ _____    ______ ____
ROOT
ATOM      1  C   UNL     1      47.937   8.082  13.142  0.00  0.00    +0.000 A 
ATOM      2  C   UNL     1      48.070   9.186  13.977  0.00  0.00    +0.000 A 
ATOM      3  C   UNL     1      48.994   9.162  15.020  0.00  0.00    +0.000 A 
ATOM      4  C   UNL     1      49.797   8.035  15.205  0.00  0.00    +0.000 A 
ATOM      5  N   UNL     1      49.733   6.968  14.372  0.00  0.00    +0.000 NA
ATOM      6  C   UNL     1      48.808   7.011  13.372  0.00  0.00    +0.000 A 
ENDROOT
BRANCH   1   7
ATOM      7  C   UNL     1      46.913   8.059  12.045  0.00  0.00    +0.000 C 
BRANCH   7  10
ATOM      8  O   UNL     1      44.188   7.528  11.457  0.00  0.00    +0.000 OA
ATOM      9  C   UNL     1      44.976   6.593  11.560  0.00  0.00    +0.000 C 
ATOM     10  N   UNL     1      46.288   6.768  11.920  0.00  0.00    +0.000 N 
ATOM     11  H   UNL     1      46.920   5.978  11.861  0.00  0.00    +0.000 HD
BRANCH   9  12
ATOM     12  C   UNL     1      44.557   5.202  11.336  0.00  0.00    +0.000 A 
ATOM     13  C   UNL     1      43.787   4.538  12.281  0.00  0.00    +0.000 A 
ATOM     14  S   UNL     1      43.386   2.940  11.833  0.00  0.00    +0.000 S 
ATOM     15  C   UNL     1      44.191   3.095  10.342  0.00  0.00    +0.000 A 
ATOM     16  N   UNL     1      44.197   2.080   9.436  0.00  0.00    +0.000 NA
ATOM     17  C   UNL     1      44.806   2.354   8.330  0.00  0.00    +0.000 A 
ATOM     18  N   UNL     1      45.425   3.544   8.054  0.00  0.00    +0.000 N 
ATOM     19  C   UNL     1      45.522   4.560   8.971  0.00  0.00    +0.000 A 
ATOM     20  O   UNL     1      46.225   5.543   8.753  0.00  0.00    +0.000 OA
ATOM     21  C   UNL     1      44.794   4.333  10.206  0.00  0.00    +0.000 A 
ATOM     22  H   UNL     1      45.923   3.682   7.186  0.00  0.00    +0.000 HD
ENDBRANCH   9  12
ENDBRANCH   7  10
ENDBRANCH   1   7
BRANCH   4  23
ATOM     23  C   UNL     1      50.783   8.034  16.360  0.00  0.00    +0.000 C 
BRANCH  23  24
ATOM     24  C   UNL     1      50.793   6.839  17.336  0.00  0.00    +0.000 C 
BRANCH  24  25
ATOM     25  O   UNL     1      51.091   5.638  16.609  0.00  0.00    +0.000 OA
ATOM     26  H   UNL     1      52.047   5.682  16.409  0.00  0.00    +0.000 HD
ENDBRANCH  24  25
BRANCH  24  27
ATOM     27  C   UNL     1      49.517   6.674  18.178  0.00  0.00    +0.000 C 
BRANCH  27  28
ATOM     28  C   UNL     1      48.823   5.354  17.897  0.00  0.00    +0.000 A 
ATOM     29  C   UNL     1      48.922   4.298  18.803  0.00  0.00    +0.000 A 
ATOM     30  C   UNL     1      48.262   3.102  18.532  0.00  0.00    +0.000 A 
ATOM     31  C   UNL     1      47.516   2.989  17.365  0.00  0.00    +0.000 A 
ATOM     32  C   UNL     1      47.467   4.081  16.516  0.00  0.00    +0.000 A 
ATOM     33  N   UNL     1      48.101   5.255  16.752  0.00  0.00    +0.000 NA
ENDBRANCH  27  28
ENDBRANCH  24  27
ENDBRANCH  23  24
ENDBRANCH   4  23
TORSDOF 8
ENDMDL
MODEL 6
REMARK VINA RESULT:    -7.100      3.329      8.738
REMARK INTER + INTRA:         -11.130
REMARK INTER:                  -9.422
REMARK INTRA:                  -1.707
REMARK UNBOUND:                -0.916
REMARK  Name = 
REMARK  8 active torsions:
REMARK  status: ('A' for Active; 'I' for Inactive)
REMARK    1  A    between atoms: C_2  and  C_21
REMARK    2  A    between atoms: N_3  and  C_4
REMARK    3  A    between atoms: C_4  and  C_5
REMARK    4  A    between atoms: C_8  and  C_9
REMARK    5  A    between atoms: C_9  and  C_10
REMARK    6  A    between atoms: C_10  and  O_11
REMARK    7  A    between atoms: C_10  and  C_12
REMARK    8  A    between atoms: C_12  and  C_13
REMARK                            x       y       z     vdW  Elec       q    Type
REMARK                         _______ _______ _______ _____ _____    ______ ____
ROOT
ATOM      1  C   UNL     1      48.511   8.060  13.548  0.00  0.00    +0.000 A 
ATOM      2  C   UNL     1      48.579   9.242  14.277  0.00  0.00    +0.000 A 
ATOM      3  C   UNL     1      48.654   9.197  15.668  0.00  0.00    +0.000 A 
ATOM      4  C   UNL     1      48.684   7.962  16.318  0.00  0.00    +0.000 A 
ATOM      5  N   UNL     1      48.681   6.793  15.632  0.00  0.00    +0.000 NA
ATOM      6  C   UNL     1      48.589   6.867  14.274  0.00  0.00    +0.000 A 
ENDROOT
BRANCH   1   7
ATOM      7  C   UNL     1      48.376   8.078  12.053  0.00  0.00    +0.000 C 
BRANCH   7  10
ATOM      8  O   UNL     1      45.550   7.913  11.847  0.00  0.00    +0.000 OA
ATOM      9  C   UNL     1      46.240   6.987  11.431  0.00  0.00    +0.000 C 
ATOM     10  N   UNL     1      47.604   6.963  11.569  0.00  0.00    +0.000 N 
ATOM     11  H   UNL     1      48.130   6.239  11.092  0.00  0.00    +0.000 HD
BRANCH   9  12
ATOM     12  C   UNL     1      45.644   5.812  10.779  0.00  0.00    +0.000 A 
ATOM     13  C   UNL     1      45.881   5.558   9.435  0.00  0.00    +0.000 A 
ATOM     14  S   UNL     1      45.121   4.140   8.865  0.00  0.00    +0.000 S 
ATOM     15  C   UNL     1      44.484   3.794  10.405  0.00  0.00    +0.000 A 
ATOM     16  N   UNL     1      43.751   2.669  10.628  0.00  0.00    +0.000 NA
ATOM     17  C   UNL     1      43.373   2.512  11.853  0.00  0.00    +0.000 A 
ATOM     18  N   UNL     1      43.645   3.385  12.873  0.00  0.00    +0.000 N 
ATOM     19  C   UNL     1      44.301   4.574  12.676  0.00  0.00    +0.000 A 
ATOM     20  O   UNL     1      44.381   5.407  13.574  0.00  0.00    +0.000 OA
ATOM     21  C   UNL     1      44.811   4.769  11.331  0.00  0.00    +0.000 A 
ATOM     22  H   UNL     1      43.283   3.227  13.802  0.00  0.00    +0.000 HD
ENDBRANCH   9  12
ENDBRANCH   7  10
ENDBRANCH   1   7
BRANCH   4  23
ATOM     23  C   UNL     1      48.750   7.948  17.835  0.00  0.00    +0.000 C 
BRANCH  23  24
ATOM     24  C   UNL     1      49.761   7.014  18.533  0.00  0.00    +0.000 C 
BRANCH  24  25
ATOM     25  O   UNL     1      50.707   6.536  17.566  0.00  0.00    +0.000 OA
ATOM     26  H   UNL     1      50.919   7.306  17.002  0.00  0.00    +0.000 HD
ENDBRANCH  24  25
BRANCH  24  27
ATOM     27  C   UNL     1      49.138   5.849  19.320  0.00  0.00    +0.000 C 
BRANCH  27  28
ATOM     28  C   UNL     1      48.962   4.615  18.455  0.00  0.00    +0.000 A 
ATOM     29  C   UNL     1      47.708   4.293  17.933  0.00  0.00    +0.000 A 
ATOM     30  C   UNL     1      47.574   3.164  17.128  0.00  0.00    +0.000 A 
ATOM     31  C   UNL     1      48.693   2.386  16.860  0.00  0.00    +0.000 A 
ATOM     32  C   UNL     1      49.902   2.772  17.414  0.00  0.00    +0.000 A 
ATOM     33  N   UNL     1      50.062   3.861  18.203  0.00  0.00    +0.000 NA
ENDBRANCH  27  28
ENDBRANCH  24  27
ENDBRANCH  23  24
ENDBRANCH   4  23
TORSDOF 8
ENDMDL
MODEL 7
REMARK VINA RESULT:    -7.019      1.816      2.161
REMARK INTER + INTRA:         -11.013
REMARK INTER:                 -10.444
REMARK INTRA:                  -0.569
REMARK UNBOUND:                -0.916
REMARK  Name = 
REMARK  8 active torsions:
REMARK  status: ('A' for Active; 'I' for Inactive)
REMARK    1  A    between atoms: C_2  and  C_21
REMARK    2  A    between atoms: N_3  and  C_4
REMARK    3  A    between atoms: C_4  and  C_5
REMARK    4  A    between atoms: C_8  and  C_9
REMARK    5  A    between atoms: C_9  and  C_10
REMARK    6  A    between atoms: C_10  and  O_11
REMARK    7  A    between atoms: C_10  and  C_12
REMARK    8  A    between atoms: C_12  and  C_13
REMARK                            x       y       z     vdW  Elec       q    Type
REMARK                         _______ _______ _______ _____ _____    ______ ____
ROOT
ATOM      1  C   UNL     1      47.005   7.088  12.658  0.00  0.00    +0.000 A 
ATOM      2  C   UNL     1      45.906   6.696  13.415  0.00  0.00    +0.000 A 
ATOM      3  C   UNL     1      44.882   5.958  12.824  0.00  0.00    +0.000 A 
ATOM      4  C   UNL     1      44.979   5.598  11.479  0.00  0.00    +0.000 A 
ATOM      5  N   UNL     1      46.065   5.913  10.731  0.00  0.00    +0.000 NA
ATOM      6  C   UNL     1      47.042   6.650  11.330  0.00  0.00    +0.000 A 
ENDROOT
BRANCH   1   7
ATOM      7  C   UNL     1      48.096   7.929  13.255  0.00  0.00    +0.000 C 
BRANCH   7  10
ATOM      8  O   UNL     1      48.146   9.025  15.872  0.00  0.00    +0.000 OA
ATOM      9  C   UNL     1      48.573   7.890  15.686  0.00  0.00    +0.000 C 
ATOM     10  N   UNL     1      48.653   7.326  14.438  0.00  0.00    +0.000 N 
ATOM     11  H   UNL     1      48.889   6.344  14.360  0.00  0.00    +0.000 HD
BRANCH   9  12
ATOM     12  C   UNL     1      49.064   7.058  16.793  0.00  0.00    +0.000 A 
ATOM     13  C   UNL     1      49.857   7.610  17.790  0.00  0.00    +0.000 A 
ATOM     14  S   UNL     1      50.312   6.493  18.998  0.00  0.00    +0.000 S 
ATOM     15  C   UNL     1      49.431   5.242  18.253  0.00  0.00    +0.000 A 
ATOM     16  N   UNL     1      49.363   4.001  18.807  0.00  0.00    +0.000 NA
ATOM     17  C   UNL     1      48.621   3.165  18.158  0.00  0.00    +0.000 A 
ATOM     18  N   UNL     1      47.955   3.452  16.996  0.00  0.00    +0.000 N 
ATOM     19  C   UNL     1      48.068   4.660  16.354  0.00  0.00    +0.000 A 
ATOM     20  O   UNL     1      47.596   4.826  15.233  0.00  0.00    +0.000 OA
ATOM     21  C   UNL     1      48.833   5.660  17.077  0.00  0.00    +0.000 A 
ATOM     22  H   UNL     1      47.426   2.741  16.512  0.00  0.00    +0.000 HD
ENDBRANCH   9  12
ENDBRANCH   7  10
ENDBRANCH   1   7
BRANCH   4  23
ATOM     23  C   UNL     1      43.840   4.807  10.860  0.00  0.00    +0.000 C 
BRANCH  23  24
ATOM     24  C   UNL     1      44.164   3.541  10.039  0.00  0.00    +0.000 C 
BRANCH  24  25
ATOM     25  O   UNL     1      45.256   2.845  10.657  0.00  0.00    +0.000 OA
ATOM     26  H   UNL     1      46.066   3.208  10.247  0.00  0.00    +0.000 HD
ENDBRANCH  24  25
BRANCH  24  27
ATOM     27  C   UNL     1      44.438   3.785   8.546  0.00  0.00    +0.000 C 
BRANCH  27  28
ATOM     28  C   UNL     1      45.595   2.943   8.040  0.00  0.00    +0.000 A 
ATOM     29  C   UNL     1      45.607   1.564   8.252  0.00  0.00    +0.000 A 
ATOM     30  C   UNL     1      46.671   0.809   7.763  0.00  0.00    +0.000 A 
ATOM     31  C   UNL     1      47.694   1.446   7.073  0.00  0.00    +0.000 A 
ATOM     32  C   UNL     1      47.609   2.818   6.904  0.00  0.00    +0.000 A 
ATOM     33  N   UNL     1      46.589   3.578   7.371  0.00  0.00    +0.000 NA
ENDBRANCH  27  28
ENDBRANCH  24  27
ENDBRANCH  23  24
ENDBRANCH   4  23
TORSDOF 8
ENDMDL
MODEL 8
REMARK VINA RESULT:    -6.813      1.777      2.116
REMARK INTER + INTRA:         -10.716
REMARK INTER:                 -10.499
REMARK INTRA:                  -0.217
REMARK UNBOUND:                -0.916
REMARK  Name = 
REMARK  8 active torsions:
REMARK  status: ('A' for Active; 'I' for Inactive)
REMARK    1  A    between atoms: C_2  and  C_21
REMARK    2  A    between atoms: N_3  and  C_4
REMARK    3  A    between atoms: C_4  and  C_5
REMARK    4  A    between atoms: C_8  and  C_9
REMARK    5  A    between atoms: C_9  and  C_10
REMARK    6  A    between atoms: C_10  and  O_11
REMARK    7  A    between atoms: C_10  and  C_12
REMARK    8  A    between atoms: C_12  and  C_13
REMARK                            x       y       z     vdW  Elec       q    Type
REMARK                         _______ _______ _______ _____ _____    ______ ____
ROOT
ATOM      1  C   UNL     1      46.871   6.510  12.948  0.00  0.00    +0.000 A 
ATOM      2  C   UNL     1      45.974   5.678  13.610  0.00  0.00    +0.000 A 
ATOM      3  C   UNL     1      44.998   4.994  12.887  0.00  0.00    +0.000 A 
ATOM      4  C   UNL     1      44.943   5.133  11.499  0.00  0.00    +0.000 A 
ATOM      5  N   UNL     1      45.840   5.888  10.820  0.00  0.00    +0.000 NA
ATOM      6  C   UNL     1      46.772   6.559  11.553  0.00  0.00    +0.000 A 
ENDROOT
BRANCH   1   7
ATOM      7  C   UNL     1      47.898   7.299  13.706  0.00  0.00    +0.000 C 
BRANCH   7  10
ATOM      8  O   UNL     1      48.720   8.324  16.222  0.00  0.00    +0.000 OA
ATOM      9  C   UNL     1      48.748   7.113  16.026  0.00  0.00    +0.000 C 
ATOM     10  N   UNL     1      48.441   6.554  14.812  0.00  0.00    +0.000 N 
ATOM     11  H   UNL     1      48.355   5.546  14.746  0.00  0.00    +0.000 HD
BRANCH   9  12
ATOM     12  C   UNL     1      49.148   6.169  17.079  0.00  0.00    +0.000 A 
ATOM     13  C   UNL     1      50.060   5.157  16.808  0.00  0.00    +0.000 A 
ATOM     14  S   UNL     1      50.412   4.177  18.160  0.00  0.00    +0.000 S 
ATOM     15  C   UNL     1      49.391   5.096  19.165  0.00  0.00    +0.000 A 
ATOM     16  N   UNL     1      49.264   4.812  20.489  0.00  0.00    +0.000 NA
ATOM     17  C   UNL     1      48.493   5.620  21.138  0.00  0.00    +0.000 A 
ATOM     18  N   UNL     1      47.823   6.676  20.580  0.00  0.00    +0.000 N 
ATOM     19  C   UNL     1      47.850   6.945  19.235  0.00  0.00    +0.000 A 
ATOM     20  O   UNL     1      47.108   7.791  18.745  0.00  0.00    +0.000 OA
ATOM     21  C   UNL     1      48.758   6.110  18.469  0.00  0.00    +0.000 A 
ATOM     22  H   UNL     1      47.199   7.246  21.133  0.00  0.00    +0.000 HD
ENDBRANCH   9  12
ENDBRANCH   7  10
ENDBRANCH   1   7
BRANCH   4  23
ATOM     23  C   UNL     1      43.857   4.386  10.743  0.00  0.00    +0.000 C 
BRANCH  23  24
ATOM     24  C   UNL     1      44.261   3.267   9.761  0.00  0.00    +0.000 C 
BRANCH  24  25
ATOM     25  O   UNL     1      45.338   2.507  10.329  0.00  0.00    +0.000 OA
ATOM     26  H   UNL     1      46.102   2.648   9.736  0.00  0.00    +0.000 HD
ENDBRANCH  24  25
BRANCH  24  27
ATOM     27  C   UNL     1      44.608   3.740   8.340  0.00  0.00    +0.000 C 
BRANCH  27  28
ATOM     28  C   UNL     1      45.691   2.884   7.709  0.00  0.00    +0.000 A 
ATOM     29  C   UNL     1      46.447   3.375   6.645  0.00  0.00    +0.000 A 
ATOM     30  C   UNL     1      47.447   2.578   6.093  0.00  0.00    +0.000 A 
ATOM     31  C   UNL     1      47.671   1.312   6.617  0.00  0.00    +0.000 A 
ATOM     32  C   UNL     1      46.879   0.896   7.674  0.00  0.00    +0.000 A 
ATOM     33  N   UNL     1      45.897   1.647   8.228  0.00  0.00    +0.000 NA
ENDBRANCH  27  28
ENDBRANCH  24  27
ENDBRANCH  23  24
ENDBRANCH   4  23
TORSDOF 8
ENDMDL
MODEL 9
REMARK VINA RESULT:    -6.809      2.903      3.747
REMARK INTER + INTRA:         -10.711
REMARK INTER:                  -9.652
REMARK INTRA:                  -1.059
REMARK UNBOUND:                -0.916
REMARK  Name = 
REMARK  8 active torsions:
REMARK  status: ('A' for Active; 'I' for Inactive)
REMARK    1  A    between atoms: C_2  and  C_21
REMARK    2  A    between atoms: N_3  and  C_4
REMARK    3  A    between atoms: C_4  and  C_5
REMARK    4  A    between atoms: C_8  and  C_9
REMARK    5  A    between atoms: C_9  and  C_10
REMARK    6  A    between atoms: C_10  and  O_11
REMARK    7  A    between atoms: C_10  and  C_12
REMARK    8  A    between atoms: C_12  and  C_13
REMARK                            x       y       z     vdW  Elec       q    Type
REMARK                         _______ _______ _______ _____ _____    ______ ____
ROOT
ATOM      1  C   UNL     1      48.677   7.270  12.821  0.00  0.00    +0.000 A 
ATOM      2  C   UNL     1      47.885   7.590  11.723  0.00  0.00    +0.000 A 
ATOM      3  C   UNL     1      46.737   6.845  11.455  0.00  0.00    +0.000 A 
ATOM      4  C   UNL     1      46.379   5.798  12.305  0.00  0.00    +0.000 A 
ATOM      5  N   UNL     1      47.098   5.501  13.415  0.00  0.00    +0.000 NA
ATOM      6  C   UNL     1      48.225   6.233  13.643  0.00  0.00    +0.000 A 
ENDROOT
BRANCH   1   7
ATOM      7  C   UNL     1      49.946   8.020  13.103  0.00  0.00    +0.000 C 
BRANCH   7  10
ATOM      8  O   UNL     1      50.344   8.820  15.797  0.00  0.00    +0.000 OA
ATOM      9  C   UNL     1      50.836   7.768  15.402  0.00  0.00    +0.000 C 
ATOM     10  N   UNL     1      50.752   7.357  14.096  0.00  0.00    +0.000 N 
ATOM     11  H   UNL     1      51.062   6.422  13.857  0.00  0.00    +0.000 HD
BRANCH   9  12
ATOM     12  C   UNL     1      51.586   6.880  16.302  0.00  0.00    +0.000 A 
ATOM     13  C   UNL     1      50.968   6.316  17.409  0.00  0.00    +0.000 A 
ATOM     14  S   UNL     1      51.994   5.300  18.320  0.00  0.00    +0.000 S 
ATOM     15  C   UNL     1      53.288   5.546  17.242  0.00  0.00    +0.000 A 
ATOM     16  N   UNL     1      54.482   4.916  17.419  0.00  0.00    +0.000 NA
ATOM     17  C   UNL     1      55.356   5.159  16.499  0.00  0.00    +0.000 A 
ATOM     18  N   UNL     1      55.152   5.988  15.428  0.00  0.00    +0.000 N 
ATOM     19  C   UNL     1      53.999   6.712  15.259  0.00  0.00    +0.000 A 
ATOM     20  O   UNL     1      53.914   7.569  14.384  0.00  0.00    +0.000 OA
ATOM     21  C   UNL     1      52.955   6.423  16.226  0.00  0.00    +0.000 A 
ATOM     22  H   UNL     1      55.891   6.171  14.765  0.00  0.00    +0.000 HD
ENDBRANCH   9  12
ENDBRANCH   7  10
ENDBRANCH   1   7
BRANCH   4  23
ATOM     23  C   UNL     1      45.132   4.996  11.976  0.00  0.00    +0.000 C 
BRANCH  23  24
ATOM     24  C   UNL     1      44.452   5.195  10.605  0.00  0.00    +0.000 C 
BRANCH  24  25
ATOM     25  O   UNL     1      43.349   6.100  10.753  0.00  0.00    +0.000 OA
ATOM     26  H   UNL     1      43.132   6.401   9.848  0.00  0.00    +0.000 HD
ENDBRANCH  24  25
BRANCH  24  27
ATOM     27  C   UNL     1      44.015   3.901   9.901  0.00  0.00    +0.000 C 
BRANCH  27  28
ATOM     28  C   UNL     1      45.076   3.396   8.940  0.00  0.00    +0.000 A 
ATOM     29  C   UNL     1      45.395   2.038   8.892  0.00  0.00    +0.000 A 
ATOM     30  C   UNL     1      46.360   1.596   7.990  0.00  0.00    +0.000 A 
ATOM     31  C   UNL     1      46.981   2.516   7.156  0.00  0.00    +0.000 A 
ATOM     32  C   UNL     1      46.609   3.846   7.264  0.00  0.00    +0.000 A 
ATOM     33  N   UNL     1      45.678   4.306   8.133  0.00  0.00    +0.000 NA
ENDBRANCH  27  28
ENDBRANCH  24  27
ENDBRANCH  23  24
ENDBRANCH   4  23
TORSDOF 8
ENDMDL
