MODEL 1
REMARK VINA RESULT:    -7.560      0.000      0.000
REMARK INTER + INTRA:         -11.215
REMARK INTER:                 -10.432
REMARK INTRA:                  -0.783
REMARK UNBOUND:                -0.783
REMARK  Name = 
REMARK  7 active torsions:
REMARK  status: ('A' for Active; 'I' for Inactive)
REMARK    1  A    between atoms: N_1  and  C_2
REMARK    2  A    between atoms: C_2  and  C_3
REMARK    3  A    between atoms: C_6  and  C_7
REMARK    4  A    between atoms: C_7  and  C_8
REMARK    5  A    between atoms: C_8  and  N_9
REMARK    6  A    between atoms: N_9  and  C_10
REMARK    7  A    between atoms: C_13  and  C_14
REMARK                            x       y       z     vdW  Elec       q    Type
REMARK                         _______ _______ _______ _____ _____    ______ ____
ROOT
ATOM      1  N   UNL     1      43.739   4.740  10.142  0.00  0.00    +0.000 N 
ATOM      2  H   UNL     1      44.109   5.655  10.394  0.00  0.00    +0.000 HD
ENDROOT
BRANCH   1   3
ATOM      3  C   UNL     1      44.685   3.989   9.417  0.00  0.00    +0.000 A 
ATOM      4  C   UNL     1      44.766   2.595   9.489  0.00  0.00    +0.000 A 
ATOM      5  C   UNL     1      45.656   1.887   8.684  0.00  0.00    +0.000 A 
ATOM      6  C   UNL     1      46.441   2.595   7.790  0.00  0.00    +0.000 A 
ATOM      7  N   UNL     1      46.393   3.948   7.651  0.00  0.00    +0.000 NA
ATOM      8  C   UNL     1      45.507   4.594   8.456  0.00  0.00    +0.000 A 
BRANCH   6   9
ATOM      9  C   UNL     1      47.379   1.846   6.897  0.00  0.00    +0.000 C 
ATOM     10  N   UNL     1      48.475   2.542   6.468  0.00  0.00    +0.000 N 
ATOM     11  O   UNL     1      47.187   0.683   6.558  0.00  0.00    +0.000 OA
ATOM     12  H   UNL     1      48.593   3.509   6.745  0.00  0.00    +0.000 HD
ATOM     13  H   UNL     1      49.127   2.100   5.839  0.00  0.00    +0.000 HD
ENDBRANCH   6   9
ENDBRANCH   1   3
BRANCH   1  14
ATOM     14  C   UNL     1      43.106   4.062  11.285  0.00  0.00    +0.000 C 
BRANCH  14  15
ATOM     15  C   UNL     1      43.167   4.931  12.545  0.00  0.00    +0.000 C 
BRANCH  15  19
ATOM     16  C   UNL     1      46.969   6.594  13.278  0.00  0.00    +0.000 A 
ATOM     17  C   UNL     1      45.955   7.335  12.685  0.00  0.00    +0.000 A 
ATOM     18  N   UNL     1      44.730   6.823  12.414  0.00  0.00    +0.000 NA
ATOM     19  C   UNL     1      44.538   5.523  12.748  0.00  0.00    +0.000 A 
ATOM     20  C   UNL     1      45.557   4.780  13.338  0.00  0.00    +0.000 A 
ATOM     21  N   UNL     1      46.782   5.290  13.612  0.00  0.00    +0.000 NA
BRANCH  16  22
ATOM     22  C   UNL     1      48.289   7.244  13.613  0.00  0.00    +0.000 C 
BRANCH  22  23
ATOM     23  N   UNL     1      49.410   6.619  12.901  0.00  0.00    +0.000 NA
ATOM     24  H   UNL     1      49.086   5.753  12.473  0.00  0.00    +0.000 HD
ATOM     25  H   UNL     1      50.108   6.344  13.593  0.00  0.00    +0.000 HD
ENDBRANCH  22  23
ENDBRANCH  16  22
ENDBRANCH  15  19
ENDBRANCH  14  15
ENDBRANCH   1  14
TORSDOF 7
ENDMDL
MODEL 2
REMARK VINA RESULT:    -7.343      1.085      1.403
REMARK INTER + INTRA:         -10.916
REMARK INTER:                 -10.102
REMARK INTRA:                  -0.815
REMARK UNBOUND:                -0.783
REMARK  Name = 
REMARK  7 active torsions:
REMARK  status: ('A' for Active; 'I' for Inactive)
REMARK    1  A    between atoms: N_1  and  C_2
REMARK    2  A    between atoms: C_2  and  C_3
REMARK    3  A    between atoms: C_6  and  C_7
REMARK    4  A    between atoms: C_7  and  C_8
REMARK    5  A    between atoms: C_8  and  N_9
REMARK    6  A    between atoms: N_9  and  C_10
REMARK    7  A    between atoms: C_13  and  C_14
REMARK                            x       y       z     vdW  Elec       q    Type
REMARK                         _______ _______ _______ _____ _____    ______ ____
ROOT
ATOM      1  N   UNL     1      43.689   3.864  10.411  0.00  0.00    +0.000 N 
ATOM      2  H   UNL     1      43.752   4.862  10.606  0.00  0.00    +0.000 HD
ENDROOT
BRANCH   1   3
ATOM      3  C   UNL     1      44.587   3.485   9.393  0.00  0.00    +0.000 A 
ATOM      4  C   UNL     1      45.233   4.410   8.568  0.00  0.00    +0.000 A 
ATOM      5  C   UNL     1      46.184   3.994   7.637  0.00  0.00    +0.000 A 
ATOM      6  C   UNL     1      46.493   2.647   7.567  0.00  0.00    +0.000 A 
ATOM      7  N   UNL     1      45.921   1.700   8.360  0.00  0.00    +0.000 NA
ATOM      8  C   UNL     1      45.002   2.154   9.254  0.00  0.00    +0.000 A 
BRANCH   6   9
ATOM      9  C   UNL     1      47.534   2.191   6.595  0.00  0.00    +0.000 C 
ATOM     10  N   UNL     1      47.599   2.890   5.422  0.00  0.00    +0.000 N 
ATOM     11  O   UNL     1      48.284   1.247   6.818  0.00  0.00    +0.000 OA
ATOM     12  H   UNL     1      46.950   3.650   5.256  0.00  0.00    +0.000 HD
ATOM     13  H   UNL     1      48.260   2.610   4.714  0.00  0.00    +0.000 HD
ENDBRANCH   6   9
ENDBRANCH   1   3
BRANCH   1  14
ATOM     14  C   UNL     1      43.718   3.056  11.640  0.00  0.00    +0.000 C 
BRANCH  14  15
ATOM     15  C   UNL     1      43.933   3.936  12.875  0.00  0.00    +0.000 C 
BRANCH  15  19
ATOM     16  C   UNL     1      47.531   6.129  12.812  0.00  0.00    +0.000 A 
ATOM     17  C   UNL     1      46.436   6.508  12.045  0.00  0.00    +0.000 A 
ATOM     18  N   UNL     1      45.274   5.811  12.025  0.00  0.00    +0.000 NA
ATOM     19  C   UNL     1      45.230   4.699  12.798  0.00  0.00    +0.000 A 
ATOM     20  C   UNL     1      46.329   4.318  13.562  0.00  0.00    +0.000 A 
ATOM     21  N   UNL     1      47.493   5.013  13.586  0.00  0.00    +0.000 NA
BRANCH  16  22
ATOM     22  C   UNL     1      48.772   6.986  12.840  0.00  0.00    +0.000 C 
BRANCH  22  23
ATOM     23  N   UNL     1      49.567   6.770  14.054  0.00  0.00    +0.000 NA
ATOM     24  H   UNL     1      49.058   6.140  14.673  0.00  0.00    +0.000 HD
ATOM     25  H   UNL     1      49.630   7.659  14.552  0.00  0.00    +0.000 HD
ENDBRANCH  22  23
ENDBRANCH  16  22
ENDBRANCH  15  19
ENDBRANCH  14  15
ENDBRANCH   1  14
TORSDOF 7
ENDMDL
MODEL 3
REMARK VINA RESULT:    -7.255      1.890      2.362
REMARK INTER + INTRA:         -10.795
REMARK INTER:                 -10.323
REMARK INTRA:                  -0.472
REMARK UNBOUND:                -0.783
REMARK  Name = 
REMARK  7 active torsions:
REMARK  status: ('A' for Active; 'I' for Inactive)
REMARK    1  A    between atoms: N_1  and  C_2
REMARK    2  A    between atoms: C_2  and  C_3
REMARK    3  A    between atoms: C_6  and  C_7
REMARK    4  A    between atoms: C_7  and  C_8
REMARK    5  A    between atoms: C_8  and  N_9
REMARK    6  A    between atoms: N_9  and  C_10
REMARK    7  A    between atoms: C_13  and  C_14
REMARK                            x       y       z     vdW  Elec       q    Type
REMARK                         _______ _______ _______ _____ _____    ______ ____
ROOT
ATOM      1  N   UNL     1      43.751   4.936   9.827  0.00  0.00    +0.000 N 
ATOM      2  H   UNL     1      43.660   5.801   9.296  0.00  0.00    +0.000 HD
ENDROOT
BRANCH   1   3
ATOM      3  C   UNL     1      44.538   3.993   9.136  0.00  0.00    +0.000 A 
ATOM      4  C   UNL     1      45.503   4.356   8.191  0.00  0.00    +0.000 A 
ATOM      5  C   UNL     1      46.323   3.395   7.602  0.00  0.00    +0.000 A 
ATOM      6  C   UNL     1      46.178   2.076   7.994  0.00  0.00    +0.000 A 
ATOM      7  N   UNL     1      45.278   1.660   8.926  0.00  0.00    +0.000 NA
ATOM      8  C   UNL     1      44.503   2.634   9.475  0.00  0.00    +0.000 A 
BRANCH   6   9
ATOM      9  C   UNL     1      47.072   1.038   7.392  0.00  0.00    +0.000 C 
ATOM     10  N   UNL     1      46.769  -0.259   7.699  0.00  0.00    +0.000 N 
ATOM     11  O   UNL     1      48.024   1.319   6.672  0.00  0.00    +0.000 OA
ATOM     12  H   UNL     1      45.990  -0.458   8.316  0.00  0.00    +0.000 HD
ATOM     13  H   UNL     1      47.354  -1.001   7.348  0.00  0.00    +0.000 HD
ENDBRANCH   6   9
ENDBRANCH   1   3
BRANCH   1  14
ATOM     14  C   UNL     1      44.112   5.182  11.232  0.00  0.00    +0.000 C 
BRANCH  14  15
ATOM     15  C   UNL     1      45.458   5.903  11.338  0.00  0.00    +0.000 C 
BRANCH  15  19
ATOM     16  C   UNL     1      47.364   4.932  14.969  0.00  0.00    +0.000 A 
ATOM     17  C   UNL     1      47.728   6.055  14.237  0.00  0.00    +0.000 A 
ATOM     18  N   UNL     1      47.151   6.381  13.054  0.00  0.00    +0.000 NA
ATOM     19  C   UNL     1      46.188   5.539  12.606  0.00  0.00    +0.000 A 
ATOM     20  C   UNL     1      45.829   4.412  13.339  0.00  0.00    +0.000 A 
ATOM     21  N   UNL     1      46.402   4.083  14.522  0.00  0.00    +0.000 NA
BRANCH  16  22
ATOM     22  C   UNL     1      48.000   4.661  16.310  0.00  0.00    +0.000 C 
BRANCH  22  23
ATOM     23  N   UNL     1      48.460   3.274  16.435  0.00  0.00    +0.000 NA
ATOM     24  H   UNL     1      48.170   2.911  17.342  0.00  0.00    +0.000 HD
ATOM     25  H   UNL     1      49.481   3.280  16.452  0.00  0.00    +0.000 HD
ENDBRANCH  22  23
ENDBRANCH  16  22
ENDBRANCH  15  19
ENDBRANCH  14  15
ENDBRANCH   1  14
TORSDOF 7
ENDMDL
MODEL 4
REMARK VINA RESULT:    -6.988      2.916      6.558
REMARK INTER + INTRA:         -10.426
REMARK INTER:                  -9.859
REMARK INTRA:                  -0.568
REMARK UNBOUND:                -0.783
REMARK  Name = 
REMARK  7 active torsions:
REMARK  status: ('A' for Active; 'I' for Inactive)
REMARK    1  A    between atoms: N_1  and  C_2
REMARK    2  A    between atoms: C_2  and  C_3
REMARK    3  A    between atoms: C_6  and  C_7
REMARK    4  A    between atoms: C_7  and  C_8
REMARK    5  A    between atoms: C_8  and  N_9
REMARK    6  A    between atoms: N_9  and  C_10
REMARK    7  A    between atoms: C_13  and  C_14
REMARK                            x       y       z     vdW  Elec       q    Type
REMARK                         _______ _______ _______ _____ _____    ______ ____
ROOT
ATOM      1  N   UNL     1      45.822   5.610  10.816  0.00  0.00    +0.000 N 
ATOM      2  H   UNL     1      46.319   6.413  10.433  0.00  0.00    +0.000 HD
ENDROOT
BRANCH   1   3
ATOM      3  C   UNL     1      46.286   5.292  12.108  0.00  0.00    +0.000 A 
ATOM      4  C   UNL     1      47.196   6.090  12.807  0.00  0.00    +0.000 A 
ATOM      5  C   UNL     1      47.555   5.784  14.119  0.00  0.00    +0.000 A 
ATOM      6  C   UNL     1      46.967   4.686  14.724  0.00  0.00    +0.000 A 
ATOM      7  N   UNL     1      46.055   3.884  14.109  0.00  0.00    +0.000 NA
ATOM      8  C   UNL     1      45.735   4.224  12.832  0.00  0.00    +0.000 A 
BRANCH   6   9
ATOM      9  C   UNL     1      47.320   4.364  16.141  0.00  0.00    +0.000 C 
ATOM     10  N   UNL     1      48.398   5.030  16.652  0.00  0.00    +0.000 N 
ATOM     11  O   UNL     1      46.693   3.552  16.813  0.00  0.00    +0.000 OA
ATOM     12  H   UNL     1      48.911   5.678  16.065  0.00  0.00    +0.000 HD
ATOM     13  H   UNL     1      48.703   4.833  17.593  0.00  0.00    +0.000 HD
ENDBRANCH   6   9
ENDBRANCH   1   3
BRANCH   1  14
ATOM     14  C   UNL     1      44.364   5.734  10.659  0.00  0.00    +0.000 C 
BRANCH  14  15
ATOM     15  C   UNL     1      43.746   4.416  10.182  0.00  0.00    +0.000 C 
BRANCH  15  19
ATOM     16  C   UNL     1      46.448   2.328   7.712  0.00  0.00    +0.000 A 
ATOM     17  C   UNL     1      46.157   3.669   7.497  0.00  0.00    +0.000 A 
ATOM     18  N   UNL     1      45.275   4.362   8.258  0.00  0.00    +0.000 NA
ATOM     19  C   UNL     1      44.671   3.670   9.255  0.00  0.00    +0.000 A 
ATOM     20  C   UNL     1      44.961   2.325   9.466  0.00  0.00    +0.000 A 
ATOM     21  N   UNL     1      45.843   1.629   8.708  0.00  0.00    +0.000 NA
BRANCH  16  22
ATOM     22  C   UNL     1      47.488   1.632   6.870  0.00  0.00    +0.000 C 
BRANCH  22  23
ATOM     23  N   UNL     1      48.562   2.541   6.455  0.00  0.00    +0.000 NA
ATOM     24  H   UNL     1      49.294   2.000   5.996  0.00  0.00    +0.000 HD
ATOM     25  H   UNL     1      48.990   2.930   7.297  0.00  0.00    +0.000 HD
ENDBRANCH  22  23
ENDBRANCH  16  22
ENDBRANCH  15  19
ENDBRANCH  14  15
ENDBRANCH   1  14
TORSDOF 7
ENDMDL
MODEL 5
REMARK VINA RESULT:    -6.870      2.545      6.093
REMARK INTER + INTRA:         -10.263
REMARK INTER:                  -9.747
REMARK INTRA:                  -0.516
REMARK UNBOUND:                -0.783
REMARK  Name = 
REMARK  7 active torsions:
REMARK  status: ('A' for Active; 'I' for Inactive)
REMARK    1  A    between atoms: N_1  and  C_2
REMARK    2  A    between atoms: C_2  and  C_3
REMARK    3  A    between atoms: C_6  and  C_7
REMARK    4  A    between atoms: C_7  and  C_8
REMARK    5  A    between atoms: C_8  and  N_9
REMARK    6  A    between atoms: N_9  and  C_10
REMARK    7  A    between atoms: C_13  and  C_14
REMARK                            x       y       z     vdW  Elec       q    Type
REMARK                         _______ _______ _______ _____ _____    ______ ____
ROOT
ATOM      1  N   UNL     1      43.506   4.413  12.593  0.00  0.00    +0.000 N 
ATOM      2  H   UNL     1      43.093   3.949  13.400  0.00  0.00    +0.000 HD
ENDROOT
BRANCH   1   3
ATOM      3  C   UNL     1      44.761   4.970  12.910  0.00  0.00    +0.000 A 
ATOM      4  C   UNL     1      45.870   4.194  13.256  0.00  0.00    +0.000 A 
ATOM      5  C   UNL     1      47.116   4.783  13.470  0.00  0.00    +0.000 A 
ATOM      6  C   UNL     1      47.234   6.152  13.306  0.00  0.00    +0.000 A 
ATOM      7  N   UNL     1      46.200   6.961  12.945  0.00  0.00    +0.000 NA
ATOM      8  C   UNL     1      45.007   6.340  12.744  0.00  0.00    +0.000 A 
BRANCH   6   9
ATOM      9  C   UNL     1      48.571   6.793  13.503  0.00  0.00    +0.000 C 
ATOM     10  N   UNL     1      49.012   7.577  12.474  0.00  0.00    +0.000 N 
ATOM     11  O   UNL     1      49.243   6.631  14.516  0.00  0.00    +0.000 OA
ATOM     12  H   UNL     1      48.445   7.673  11.639  0.00  0.00    +0.000 HD
ATOM     13  H   UNL     1      49.919   8.011  12.535  0.00  0.00    +0.000 HD
ENDBRANCH   6   9
ENDBRANCH   1   3
BRANCH   1  14
ATOM     14  C   UNL     1      43.451   3.575  11.384  0.00  0.00    +0.000 C 
BRANCH  14  15
ATOM     15  C   UNL     1      43.775   4.392  10.130  0.00  0.00    +0.000 C 
BRANCH  15  19
ATOM     16  C   UNL     1      46.516   2.315   7.694  0.00  0.00    +0.000 A 
ATOM     17  C   UNL     1      46.348   3.690   7.588  0.00  0.00    +0.000 A 
ATOM     18  N   UNL     1      45.458   4.384   8.339  0.00  0.00    +0.000 NA
ATOM     19  C   UNL     1      44.718   3.657   9.213  0.00  0.00    +0.000 A 
ATOM     20  C   UNL     1      44.885   2.279   9.314  0.00  0.00    +0.000 A 
ATOM     21  N   UNL     1      45.774   1.583   8.565  0.00  0.00    +0.000 NA
BRANCH  16  22
ATOM     22  C   UNL     1      47.570   1.614   6.874  0.00  0.00    +0.000 C 
BRANCH  22  23
ATOM     23  N   UNL     1      48.621   2.532   6.421  0.00  0.00    +0.000 NA
ATOM     24  H   UNL     1      49.489   2.302   6.901  0.00  0.00    +0.000 HD
ATOM     25  H   UNL     1      48.372   3.473   6.731  0.00  0.00    +0.000 HD
ENDBRANCH  22  23
ENDBRANCH  16  22
ENDBRANCH  15  19
ENDBRANCH  14  15
ENDBRANCH   1  14
TORSDOF 7
ENDMDL
MODEL 6
REMARK VINA RESULT:    -6.807      2.815      6.866
REMARK INTER + INTRA:         -10.176
REMARK INTER:                  -9.741
REMARK INTRA:                  -0.435
REMARK UNBOUND:                -0.783
REMARK  Name = 
REMARK  7 active torsions:
REMARK  status: ('A' for Active; 'I' for Inactive)
REMARK    1  A    between atoms: N_1  and  C_2
REMARK    2  A    between atoms: C_2  and  C_3
REMARK    3  A    between atoms: C_6  and  C_7
REMARK    4  A    between atoms: C_7  and  C_8
REMARK    5  A    between atoms: C_8  and  N_9
REMARK    6  A    between atoms: N_9  and  C_10
REMARK    7  A    between atoms: C_13  and  C_14
REMARK                            x       y       z     vdW  Elec       q    Type
REMARK                         _______ _______ _______ _____ _____    ______ ____
ROOT
ATOM      1  N   UNL     1      44.882   3.496  12.507  0.00  0.00    +0.000 N 
ATOM      2  H   UNL     1      45.214   2.534  12.545  0.00  0.00    +0.000 HD
ENDROOT
BRANCH   1   3
ATOM      3  C   UNL     1      45.875   4.396  12.942  0.00  0.00    +0.000 A 
ATOM      4  C   UNL     1      46.046   5.666  12.384  0.00  0.00    +0.000 A 
ATOM      5  C   UNL     1      46.981   6.558  12.909  0.00  0.00    +0.000 A 
ATOM      6  C   UNL     1      47.718   6.165  14.013  0.00  0.00    +0.000 A 
ATOM      7  N   UNL     1      47.582   4.954  14.619  0.00  0.00    +0.000 NA
ATOM      8  C   UNL     1      46.656   4.121  14.073  0.00  0.00    +0.000 A 
BRANCH   6   9
ATOM      9  C   UNL     1      48.703   7.122  14.605  0.00  0.00    +0.000 C 
ATOM     10  N   UNL     1      48.170   8.161  15.315  0.00  0.00    +0.000 N 
ATOM     11  O   UNL     1      49.915   7.000  14.465  0.00  0.00    +0.000 OA
ATOM     12  H   UNL     1      47.163   8.249  15.393  0.00  0.00    +0.000 HD
ATOM     13  H   UNL     1      48.782   8.856  15.712  0.00  0.00    +0.000 HD
ENDBRANCH   6   9
ENDBRANCH   1   3
BRANCH   1  14
ATOM     14  C   UNL     1      44.235   3.810  11.223  0.00  0.00    +0.000 C 
BRANCH  14  15
ATOM     15  C   UNL     1      44.150   2.570  10.329  0.00  0.00    +0.000 C 
BRANCH  15  19
ATOM     16  C   UNL     1      46.696   2.803   6.979  0.00  0.00    +0.000 A 
ATOM     17  C   UNL     1      46.551   1.624   7.700  0.00  0.00    +0.000 A 
ATOM     18  N   UNL     1      45.759   1.523   8.795  0.00  0.00    +0.000 NA
ATOM     19  C   UNL     1      45.107   2.651   9.168  0.00  0.00    +0.000 A 
ATOM     20  C   UNL     1      45.257   3.833   8.448  0.00  0.00    +0.000 A 
ATOM     21  N   UNL     1      46.047   3.937   7.351  0.00  0.00    +0.000 NA
BRANCH  16  22
ATOM     22  C   UNL     1      47.542   2.830   5.730  0.00  0.00    +0.000 C 
BRANCH  22  23
ATOM     23  N   UNL     1      48.523   1.740   5.702  0.00  0.00    +0.000 NA
ATOM     24  H   UNL     1      49.169   1.857   6.480  0.00  0.00    +0.000 HD
ATOM     25  H   UNL     1      49.085   1.843   4.855  0.00  0.00    +0.000 HD
ENDBRANCH  22  23
ENDBRANCH  16  22
ENDBRANCH  15  19
ENDBRANCH  14  15
ENDBRANCH   1  14
TORSDOF 7
ENDMDL
MODEL 7
REMARK VINA RESULT:    -6.056      2.805      6.610
REMARK INTER + INTRA:          -9.139
REMARK INTER:                  -8.493
REMARK INTRA:                  -0.646
REMARK UNBOUND:                -0.783
REMARK  Name = 
REMARK  7 active torsions:
REMARK  status: ('A' for Active; 'I' for Inactive)
REMARK    1  A    between atoms: N_1  and  C_2
REMARK    2  A    between atoms: C_2  and  C_3
REMARK    3  A    between atoms: C_6  and  C_7
REMARK    4  A    between atoms: C_7  and  C_8
REMARK    5  A    between atoms: C_8  and  N_9
REMARK    6  A    between atoms: N_9  and  C_10
REMARK    7  A    between atoms: C_13  and  C_14
REMARK                            x       y       z     vdW  Elec       q    Type
REMARK                         _______ _______ _______ _____ _____    ______ ____
ROOT
ATOM      1  N   UNL     1      44.586   4.173  12.196  0.00  0.00    +0.000 N 
ATOM      2  H   UNL     1      45.250   3.435  11.970  0.00  0.00    +0.000 HD
ENDROOT
BRANCH   1   3
ATOM      3  C   UNL     1      45.242   5.402  12.411  0.00  0.00    +0.000 A 
ATOM      4  C   UNL     1      46.620   5.565  12.248  0.00  0.00    +0.000 A 
ATOM      5  C   UNL     1      47.212   6.820  12.381  0.00  0.00    +0.000 A 
ATOM      6  C   UNL     1      46.398   7.907  12.651  0.00  0.00    +0.000 A 
ATOM      7  N   UNL     1      45.047   7.821  12.795  0.00  0.00    +0.000 NA
ATOM      8  C   UNL     1      44.516   6.577  12.653  0.00  0.00    +0.000 A 
BRANCH   6   9
ATOM      9  C   UNL     1      47.016   9.265  12.766  0.00  0.00    +0.000 C 
ATOM     10  N   UNL     1      47.796   9.472  13.869  0.00  0.00    +0.000 N 
ATOM     11  O   UNL     1      46.837  10.148  11.935  0.00  0.00    +0.000 OA
ATOM     12  H   UNL     1      47.905   8.730  14.551  0.00  0.00    +0.000 HD
ATOM     13  H   UNL     1      48.214  10.377  14.018  0.00  0.00    +0.000 HD
ENDBRANCH   6   9
ENDBRANCH   1   3
BRANCH   1  14
ATOM     14  C   UNL     1      43.446   4.198  11.264  0.00  0.00    +0.000 C 
BRANCH  14  15
ATOM     15  C   UNL     1      43.867   4.726   9.890  0.00  0.00    +0.000 C 
BRANCH  15  19
ATOM     16  C   UNL     1      46.403   2.094   7.792  0.00  0.00    +0.000 A 
ATOM     17  C   UNL     1      45.483   1.628   8.723  0.00  0.00    +0.000 A 
ATOM     18  N   UNL     1      44.670   2.450   9.431  0.00  0.00    +0.000 NA
ATOM     19  C   UNL     1      44.805   3.777   9.190  0.00  0.00    +0.000 A 
ATOM     20  C   UNL     1      45.730   4.243   8.261  0.00  0.00    +0.000 A 
ATOM     21  N   UNL     1      46.544   3.424   7.550  0.00  0.00    +0.000 NA
BRANCH  16  22
ATOM     22  C   UNL     1      47.231   1.122   6.990  0.00  0.00    +0.000 C 
BRANCH  22  23
ATOM     23  N   UNL     1      48.331   1.785   6.281  0.00  0.00    +0.000 NA
ATOM     24  H   UNL     1      48.550   1.251   5.441  0.00  0.00    +0.000 HD
ATOM     25  H   UNL     1      49.163   1.733   6.870  0.00  0.00    +0.000 HD
ENDBRANCH  22  23
ENDBRANCH  16  22
ENDBRANCH  15  19
ENDBRANCH  14  15
ENDBRANCH   1  14
TORSDOF 7
ENDMDL
MODEL 8
REMARK VINA RESULT:    -5.812      3.575      5.650
REMARK INTER + INTRA:          -8.804
REMARK INTER:                  -8.052
REMARK INTRA:                  -0.751
REMARK UNBOUND:                -0.783
REMARK  Name = 
REMARK  7 active torsions:
REMARK  status: ('A' for Active; 'I' for Inactive)
REMARK    1  A    between atoms: N_1  and  C_2
REMARK    2  A    between atoms: C_2  and  C_3
REMARK    3  A    between atoms: C_6  and  C_7
REMARK    4  A    between atoms: C_7  and  C_8
REMARK    5  A    between atoms: C_8  and  N_9
REMARK    6  A    between atoms: N_9  and  C_10
REMARK    7  A    between atoms: C_13  and  C_14
REMARK                            x       y       z     vdW  Elec       q    Type
REMARK                         _______ _______ _______ _____ _____    ______ ____
ROOT
ATOM      1  N   UNL     1      47.142   6.861  13.752  0.00  0.00    +0.000 N 
ATOM      2  H   UNL     1      46.762   7.805  13.722  0.00  0.00    +0.000 HD
ENDROOT
BRANCH   1   3
ATOM      3  C   UNL     1      46.298   5.949  13.088  0.00  0.00    +0.000 A 
ATOM      4  C   UNL     1      45.947   6.081  11.741  0.00  0.00    +0.000 A 
ATOM      5  C   UNL     1      45.185   5.104  11.102  0.00  0.00    +0.000 A 
ATOM      6  C   UNL     1      44.807   3.986  11.825  0.00  0.00    +0.000 A 
ATOM      7  N   UNL     1      45.138   3.783  13.129  0.00  0.00    +0.000 NA
ATOM      8  C   UNL     1      45.884   4.762  13.708  0.00  0.00    +0.000 A 
BRANCH   6   9
ATOM      9  C   UNL     1      44.016   2.915  11.143  0.00  0.00    +0.000 C 
ATOM     10  N   UNL     1      44.586   2.375  10.024  0.00  0.00    +0.000 N 
ATOM     11  O   UNL     1      42.920   2.540  11.546  0.00  0.00    +0.000 OA
ATOM     12  H   UNL     1      45.482   2.722   9.702  0.00  0.00    +0.000 HD
ATOM     13  H   UNL     1      44.087   1.671   9.504  0.00  0.00    +0.000 HD
ENDBRANCH   6   9
ENDBRANCH   1   3
BRANCH   1  14
ATOM     14  C   UNL     1      48.565   6.823  13.378  0.00  0.00    +0.000 C 
BRANCH  14  15
ATOM     15  C   UNL     1      49.450   7.334  14.518  0.00  0.00    +0.000 C 
BRANCH  15  19
ATOM     16  C   UNL     1      48.475   5.694  18.276  0.00  0.00    +0.000 A 
ATOM     17  C   UNL     1      48.418   4.933  17.115  0.00  0.00    +0.000 A 
ATOM     18  N   UNL     1      48.702   5.437  15.889  0.00  0.00    +0.000 NA
ATOM     19  C   UNL     1      49.044   6.748  15.846  0.00  0.00    +0.000 A 
ATOM     20  C   UNL     1      49.097   7.510  17.009  0.00  0.00    +0.000 A 
ATOM     21  N   UNL     1      48.815   7.009  18.237  0.00  0.00    +0.000 NA
BRANCH  16  22
ATOM     22  C   UNL     1      48.211   5.055  19.616  0.00  0.00    +0.000 C 
BRANCH  22  23
ATOM     23  N   UNL     1      48.562   3.631  19.630  0.00  0.00    +0.000 NA
ATOM     24  H   UNL     1      48.091   3.169  18.853  0.00  0.00    +0.000 HD
ATOM     25  H   UNL     1      48.171   3.218  20.478  0.00  0.00    +0.000 HD
ENDBRANCH  22  23
ENDBRANCH  16  22
ENDBRANCH  15  19
ENDBRANCH  14  15
ENDBRANCH   1  14
TORSDOF 7
ENDMDL
MODEL 9
REMARK VINA RESULT:    -5.647      3.009      4.771
REMARK INTER + INTRA:          -8.576
REMARK INTER:                  -8.182
REMARK INTRA:                  -0.394
REMARK UNBOUND:                -0.783
REMARK  Name = 
REMARK  7 active torsions:
REMARK  status: ('A' for Active; 'I' for Inactive)
REMARK    1  A    between atoms: N_1  and  C_2
REMARK    2  A    between atoms: C_2  and  C_3
REMARK    3  A    between atoms: C_6  and  C_7
REMARK    4  A    between atoms: C_7  and  C_8
REMARK    5  A    between atoms: C_8  and  N_9
REMARK    6  A    between atoms: N_9  and  C_10
REMARK    7  A    between atoms: C_13  and  C_14
REMARK                            x       y       z     vdW  Elec       q    Type
REMARK                         _______ _______ _______ _____ _____    ______ ____
ROOT
ATOM      1  N   UNL     1      45.794   7.938  12.303  0.00  0.00    +0.000 N 
ATOM      2  H   UNL     1      46.150   8.472  11.513  0.00  0.00    +0.000 HD
ENDROOT
BRANCH   1   3
ATOM      3  C   UNL     1      45.267   6.699  11.887  0.00  0.00    +0.000 A 
ATOM      4  C   UNL     1      45.673   6.057  10.714  0.00  0.00    +0.000 A 
ATOM      5  C   UNL     1      45.194   4.788  10.390  0.00  0.00    +0.000 A 
ATOM      6  C   UNL     1      44.325   4.168  11.272  0.00  0.00    +0.000 A 
ATOM      7  N   UNL     1      43.912   4.726  12.442  0.00  0.00    +0.000 NA
ATOM      8  C   UNL     1      44.409   5.962  12.716  0.00  0.00    +0.000 A 
BRANCH   6   9
ATOM      9  C   UNL     1      43.826   2.794  10.953  0.00  0.00    +0.000 C 
ATOM     10  N   UNL     1      44.462   2.155   9.925  0.00  0.00    +0.000 N 
ATOM     11  O   UNL     1      42.903   2.265  11.561  0.00  0.00    +0.000 OA
ATOM     12  H   UNL     1      45.206   2.627   9.426  0.00  0.00    +0.000 HD
ATOM     13  H   UNL     1      44.150   1.239   9.643  0.00  0.00    +0.000 HD
ENDBRANCH   6   9
ENDBRANCH   1   3
BRANCH   1  14
ATOM     14  C   UNL     1      46.750   7.897  13.422  0.00  0.00    +0.000 C 
BRANCH  14  15
ATOM     15  C   UNL     1      47.799   6.801  13.212  0.00  0.00    +0.000 C 
BRANCH  15  19
ATOM     16  C   UNL     1      47.818   4.204  16.530  0.00  0.00    +0.000 A 
ATOM     17  C   UNL     1      48.565   5.375  16.521  0.00  0.00    +0.000 A 
ATOM     18  N   UNL     1      48.599   6.219  15.461  0.00  0.00    +0.000 NA
ATOM     19  C   UNL     1      47.861   5.856  14.383  0.00  0.00    +0.000 A 
ATOM     20  C   UNL     1      47.118   4.679  14.392  0.00  0.00    +0.000 A 
ATOM     21  N   UNL     1      47.080   3.834  15.451  0.00  0.00    +0.000 NA
BRANCH  16  22
ATOM     22  C   UNL     1      47.772   3.342  17.767  0.00  0.00    +0.000 C 
BRANCH  22  23
ATOM     23  N   UNL     1      49.113   2.972  18.234  0.00  0.00    +0.000 NA
ATOM     24  H   UNL     1      49.753   3.741  18.041  0.00  0.00    +0.000 HD
ATOM     25  H   UNL     1      49.439   2.188  17.667  0.00  0.00    +0.000 HD
ENDBRANCH  22  23
ENDBRANCH  16  22
ENDBRANCH  15  19
ENDBRANCH  14  15
ENDBRANCH   1  14
TORSDOF 7
ENDMDL
