MODEL 1
REMARK VINA RESULT:    -7.807      0.000      0.000
REMARK INTER + INTRA:         -11.389
REMARK INTER:                 -10.545
REMARK INTRA:                  -0.844
REMARK UNBOUND:                -0.844
REMARK  Name = 
REMARK  6 active torsions:
REMARK  status: ('A' for Active; 'I' for Inactive)
REMARK    1  A    between atoms: C_2  and  C_19
REMARK    2  A    between atoms: N_3  and  C_4
REMARK    3  A    between atoms: C_4  and  C_5
REMARK    4  A    between atoms: C_8  and  C_9
REMARK    5  A    between atoms: C_9  and  N_10
REMARK    6  A    between atoms: N_10  and  C_11
REMARK                            x       y       z     vdW  Elec       q    Type
REMARK                         _______ _______ _______ _____ _____    ______ ____
ROOT
ATOM      1  C   UNL     1      47.857   7.033  13.687  0.00  0.00    +0.000 C 
ENDROOT
BRANCH   1   2
ATOM      2  C   UNL     1      46.847   6.223  12.902  0.00  0.00    +0.000 A 
ATOM      3  N   UNL     1      46.444   5.051  13.423  0.00  0.00    +0.000 NA
ATOM      4  C   UNL     1      45.592   4.317  12.679  0.00  0.00    +0.000 A 
ATOM      5  C   UNL     1      45.136   4.703  11.433  0.00  0.00    +0.000 A 
ATOM      6  C   UNL     1      45.643   5.897  10.971  0.00  0.00    +0.000 A 
ATOM      7  N   UNL     1      46.507   6.666  11.670  0.00  0.00    +0.000 NA
BRANCH   5   8
ATOM      8  C   UNL     1      44.179   3.867  10.637  0.00  0.00    +0.000 C 
BRANCH   8   9
ATOM      9  N   UNL     1      44.124   4.322   9.250  0.00  0.00    +0.000 NA
ATOM     10  H   UNL     1      44.519   5.264   9.194  0.00  0.00    +0.000 HD
BRANCH   9  11
ATOM     11  C   UNL     1      44.836   3.457   8.294  0.00  0.00    +0.000 C 
ATOM     12  C   UNL     1      45.244   2.171   9.030  0.00  0.00    +0.000 C 
ATOM     13  C   UNL     1      46.071   1.267   8.127  0.00  0.00    +0.000 C 
ATOM     14  O   UNL     1      47.210   1.956   7.618  0.00  0.00    +0.000 OA
ATOM     15  C   UNL     1      46.849   3.093   6.839  0.00  0.00    +0.000 C 
ATOM     16  C   UNL     1      46.084   4.107   7.680  0.00  0.00    +0.000 C 
ENDBRANCH   9  11
ENDBRANCH   8   9
ENDBRANCH   5   8
ENDBRANCH   1   2
BRANCH   1  19
ATOM     17  O   UNL     1      48.559   8.246  16.157  0.00  0.00    +0.000 OA
ATOM     18  C   UNL     1      48.631   7.031  16.025  0.00  0.00    +0.000 C 
ATOM     19  N   UNL     1      48.240   6.346  14.900  0.00  0.00    +0.000 N 
ATOM     20  H   UNL     1      48.646   5.433  14.751  0.00  0.00    +0.000 HD
BRANCH  18  21
ATOM     21  C   UNL     1      49.377   6.159  16.918  0.00  0.00    +0.000 A 
ATOM     22  C   UNL     1      50.530   6.574  17.558  0.00  0.00    +0.000 A 
ATOM     23  S   UNL     1      51.569   5.238  17.858  0.00  0.00    +0.000 S 
ATOM     24  C   UNL     1      50.378   4.126  17.347  0.00  0.00    +0.000 A 
ATOM     25  N   UNL     1      50.632   2.800  17.193  0.00  0.00    +0.000 NA
ATOM     26  C   UNL     1      49.594   2.096  16.869  0.00  0.00    +0.000 A 
ATOM     27  N   UNL     1      48.322   2.588  16.727  0.00  0.00    +0.000 N 
ATOM     28  C   UNL     1      48.012   3.925  16.864  0.00  0.00    +0.000 A 
ATOM     29  O   UNL     1      46.871   4.340  16.798  0.00  0.00    +0.000 OA
ATOM     30  C   UNL     1      49.179   4.752  17.106  0.00  0.00    +0.000 A 
ATOM     31  H   UNL     1      47.537   1.969  16.572  0.00  0.00    +0.000 HD
ENDBRANCH  18  21
ENDBRANCH   1  19
TORSDOF 6
ENDMDL
MODEL 2
REMARK VINA RESULT:    -7.779      2.398      2.801
REMARK INTER + INTRA:         -11.351
REMARK INTER:                 -10.359
REMARK INTRA:                  -0.993
REMARK UNBOUND:                -0.844
REMARK  Name = 
REMARK  6 active torsions:
REMARK  status: ('A' for Active; 'I' for Inactive)
REMARK    1  A    between atoms: C_2  and  C_19
REMARK    2  A    between atoms: N_3  and  C_4
REMARK    3  A    between atoms: C_4  and  C_5
REMARK    4  A    between atoms: C_8  and  C_9
REMARK    5  A    between atoms: C_9  and  N_10
REMARK    6  A    between atoms: N_10  and  C_11
REMARK                            x       y       z     vdW  Elec       q    Type
REMARK                         _______ _______ _______ _____ _____    ______ ____
ROOT
ATOM      1  C   UNL     1      47.548   4.432  14.853  0.00  0.00    +0.000 C 
ENDROOT
BRANCH   1   2
ATOM      2  C   UNL     1      46.621   4.499  13.659  0.00  0.00    +0.000 A 
ATOM      3  N   UNL     1      46.025   3.360  13.265  0.00  0.00    +0.000 NA
ATOM      4  C   UNL     1      45.253   3.429  12.161  0.00  0.00    +0.000 A 
ATOM      5  C   UNL     1      45.061   4.588  11.433  0.00  0.00    +0.000 A 
ATOM      6  C   UNL     1      45.750   5.687  11.893  0.00  0.00    +0.000 A 
ATOM      7  N   UNL     1      46.546   5.670  12.986  0.00  0.00    +0.000 NA
BRANCH   5   8
ATOM      8  C   UNL     1      44.185   4.632  10.216  0.00  0.00    +0.000 C 
BRANCH   8   9
ATOM      9  N   UNL     1      43.961   3.288   9.692  0.00  0.00    +0.000 NA
ATOM     10  H   UNL     1      42.971   3.186   9.454  0.00  0.00    +0.000 HD
BRANCH   9  11
ATOM     11  C   UNL     1      44.766   2.952   8.505  0.00  0.00    +0.000 C 
ATOM     12  C   UNL     1      45.593   1.699   8.833  0.00  0.00    +0.000 C 
ATOM     13  C   UNL     1      46.525   1.346   7.683  0.00  0.00    +0.000 C 
ATOM     14  O   UNL     1      47.365   2.448   7.350  0.00  0.00    +0.000 OA
ATOM     15  C   UNL     1      46.619   3.590   6.936  0.00  0.00    +0.000 C 
ATOM     16  C   UNL     1      45.708   4.077   8.056  0.00  0.00    +0.000 C 
ENDBRANCH   9  11
ENDBRANCH   8   9
ENDBRANCH   5   8
ENDBRANCH   1   2
BRANCH   1  19
ATOM     17  O   UNL     1      49.840   5.605  16.052  0.00  0.00    +0.000 OA
ATOM     18  C   UNL     1      48.748   6.150  16.147  0.00  0.00    +0.000 C 
ATOM     19  N   UNL     1      47.601   5.704  15.539  0.00  0.00    +0.000 N 
ATOM     20  H   UNL     1      46.721   5.997  15.941  0.00  0.00    +0.000 HD
BRANCH  18  21
ATOM     21  C   UNL     1      48.439   7.186  17.120  0.00  0.00    +0.000 A 
ATOM     22  C   UNL     1      48.801   8.507  16.929  0.00  0.00    +0.000 A 
ATOM     23  S   UNL     1      49.042   9.291  18.439  0.00  0.00    +0.000 S 
ATOM     24  C   UNL     1      48.443   7.943  19.298  0.00  0.00    +0.000 A 
ATOM     25  N   UNL     1      48.500   7.855  20.653  0.00  0.00    +0.000 NA
ATOM     26  C   UNL     1      47.933   6.795  21.139  0.00  0.00    +0.000 A 
ATOM     27  N   UNL     1      47.280   5.842  20.399  0.00  0.00    +0.000 N 
ATOM     28  C   UNL     1      47.202   5.881  19.023  0.00  0.00    +0.000 A 
ATOM     29  O   UNL     1      46.566   5.064  18.383  0.00  0.00    +0.000 OA
ATOM     30  C   UNL     1      47.933   6.993  18.447  0.00  0.00    +0.000 A 
ATOM     31  H   UNL     1      46.771   5.091  20.848  0.00  0.00    +0.000 HD
ENDBRANCH  18  21
ENDBRANCH   1  19
TORSDOF 6
ENDMDL
MODEL 3
REMARK VINA RESULT:    -7.665      2.460      4.049
REMARK INTER + INTRA:         -11.198
REMARK INTER:                 -10.535
REMARK INTRA:                  -0.664
REMARK UNBOUND:                -0.844
REMARK  Name = 
REMARK  6 active torsions:
REMARK  status: ('A' for Active; 'I' for Inactive)
REMARK    1  A    between atoms: C_2  and  C_19
REMARK    2  A    between atoms: N_3  and  C_4
REMARK    3  A    between atoms: C_4  and  C_5
REMARK    4  A    between atoms: C_8  and  C_9
REMARK    5  A    between atoms: C_9  and  N_10
REMARK    6  A    between atoms: N_10  and  C_11
REMARK                            x       y       z     vdW  Elec       q    Type
REMARK                         _______ _______ _______ _____ _____    ______ ____
ROOT
ATOM      1  C   UNL     1      46.696   4.873  14.425  0.00  0.00    +0.000 C 
ENDROOT
BRANCH   1   2
ATOM      2  C   UNL     1      46.015   4.635  13.095  0.00  0.00    +0.000 A 
ATOM      3  N   UNL     1      45.447   3.434  12.888  0.00  0.00    +0.000 NA
ATOM      4  C   UNL     1      44.901   3.222  11.673  0.00  0.00    +0.000 A 
ATOM      5  C   UNL     1      44.909   4.158  10.656  0.00  0.00    +0.000 A 
ATOM      6  C   UNL     1      45.554   5.338  10.954  0.00  0.00    +0.000 A 
ATOM      7  N   UNL     1      46.127   5.597  12.150  0.00  0.00    +0.000 NA
BRANCH   5   8
ATOM      8  C   UNL     1      44.282   3.893   9.320  0.00  0.00    +0.000 C 
BRANCH   8   9
ATOM      9  N   UNL     1      45.165   4.321   8.240  0.00  0.00    +0.000 NA
ATOM     10  H   UNL     1      45.943   4.853   8.638  0.00  0.00    +0.000 HD
BRANCH   9  11
ATOM     11  C   UNL     1      45.715   3.223   7.426  0.00  0.00    +0.000 C 
ATOM     12  C   UNL     1      46.050   2.057   8.368  0.00  0.00    +0.000 C 
ATOM     13  C   UNL     1      46.714   0.917   7.608  0.00  0.00    +0.000 C 
ATOM     14  O   UNL     1      47.873   1.373   6.914  0.00  0.00    +0.000 OA
ATOM     15  C   UNL     1      47.566   2.381   5.955  0.00  0.00    +0.000 C 
ATOM     16  C   UNL     1      46.969   3.609   6.631  0.00  0.00    +0.000 C 
ENDBRANCH   9  11
ENDBRANCH   8   9
ENDBRANCH   5   8
ENDBRANCH   1   2
BRANCH   1  19
ATOM     17  O   UNL     1      48.843   5.430  16.199  0.00  0.00    +0.000 OA
ATOM     18  C   UNL     1      48.566   6.215  15.302  0.00  0.00    +0.000 C 
ATOM     19  N   UNL     1      47.600   5.999  14.349  0.00  0.00    +0.000 N 
ATOM     20  H   UNL     1      47.215   6.812  13.889  0.00  0.00    +0.000 HD
BRANCH  18  21
ATOM     21  C   UNL     1      49.020   7.596  15.262  0.00  0.00    +0.000 A 
ATOM     22  C   UNL     1      49.226   8.338  16.410  0.00  0.00    +0.000 A 
ATOM     23  S   UNL     1      48.975  10.009  16.103  0.00  0.00    +0.000 S 
ATOM     24  C   UNL     1      48.830   9.736  14.424  0.00  0.00    +0.000 A 
ATOM     25  N   UNL     1      48.454  10.710  13.554  0.00  0.00    +0.000 NA
ATOM     26  C   UNL     1      48.466  10.343  12.311  0.00  0.00    +0.000 A 
ATOM     27  N   UNL     1      48.860   9.110  11.858  0.00  0.00    +0.000 N 
ATOM     28  C   UNL     1      49.242   8.086  12.698  0.00  0.00    +0.000 A 
ATOM     29  O   UNL     1      49.650   7.018  12.282  0.00  0.00    +0.000 OA
ATOM     30  C   UNL     1      49.119   8.432  14.102  0.00  0.00    +0.000 A 
ATOM     31  H   UNL     1      48.944   8.920  10.867  0.00  0.00    +0.000 HD
ENDBRANCH  18  21
ENDBRANCH   1  19
TORSDOF 6
ENDMDL
MODEL 4
REMARK VINA RESULT:    -7.469      2.441      3.522
REMARK INTER + INTRA:         -10.933
REMARK INTER:                 -10.365
REMARK INTRA:                  -0.568
REMARK UNBOUND:                -0.844
REMARK  Name = 
REMARK  6 active torsions:
REMARK  status: ('A' for Active; 'I' for Inactive)
REMARK    1  A    between atoms: C_2  and  C_19
REMARK    2  A    between atoms: N_3  and  C_4
REMARK    3  A    between atoms: C_4  and  C_5
REMARK    4  A    between atoms: C_8  and  C_9
REMARK    5  A    between atoms: C_9  and  N_10
REMARK    6  A    between atoms: N_10  and  C_11
REMARK                            x       y       z     vdW  Elec       q    Type
REMARK                         _______ _______ _______ _____ _____    ______ ____
ROOT
ATOM      1  C   UNL     1      46.627   4.767  14.502  0.00  0.00    +0.000 C 
ENDROOT
BRANCH   1   2
ATOM      2  C   UNL     1      45.969   4.565  13.154  0.00  0.00    +0.000 A 
ATOM      3  N   UNL     1      45.451   3.354  12.885  0.00  0.00    +0.000 NA
ATOM      4  C   UNL     1      44.926   3.178  11.656  0.00  0.00    +0.000 A 
ATOM      5  C   UNL     1      44.905   4.160  10.684  0.00  0.00    +0.000 A 
ATOM      6  C   UNL     1      45.499   5.349  11.044  0.00  0.00    +0.000 A 
ATOM      7  N   UNL     1      46.050   5.574  12.257  0.00  0.00    +0.000 NA
BRANCH   5   8
ATOM      8  C   UNL     1      44.301   3.933   9.330  0.00  0.00    +0.000 C 
BRANCH   8   9
ATOM      9  N   UNL     1      45.221   4.352   8.277  0.00  0.00    +0.000 NA
ATOM     10  H   UNL     1      46.006   4.853   8.701  0.00  0.00    +0.000 HD
BRANCH   9  11
ATOM     11  C   UNL     1      45.755   3.250   7.457  0.00  0.00    +0.000 C 
ATOM     12  C   UNL     1      46.039   2.061   8.387  0.00  0.00    +0.000 C 
ATOM     13  C   UNL     1      46.685   0.914   7.622  0.00  0.00    +0.000 C 
ATOM     14  O   UNL     1      47.870   1.347   6.958  0.00  0.00    +0.000 OA
ATOM     15  C   UNL     1      47.611   2.377   6.009  0.00  0.00    +0.000 C 
ATOM     16  C   UNL     1      47.036   3.612   6.692  0.00  0.00    +0.000 C 
ENDBRANCH   9  11
ENDBRANCH   8   9
ENDBRANCH   5   8
ENDBRANCH   1   2
BRANCH   1  19
ATOM     17  O   UNL     1      48.376   5.548  16.599  0.00  0.00    +0.000 OA
ATOM     18  C   UNL     1      48.398   6.139  15.527  0.00  0.00    +0.000 C 
ATOM     19  N   UNL     1      47.650   5.787  14.430  0.00  0.00    +0.000 N 
ATOM     20  H   UNL     1      47.473   6.506  13.742  0.00  0.00    +0.000 HD
BRANCH  18  21
ATOM     21  C   UNL     1      49.006   7.445  15.331  0.00  0.00    +0.000 A 
ATOM     22  C   UNL     1      48.263   8.561  14.994  0.00  0.00    +0.000 A 
ATOM     23  S   UNL     1      49.216   9.671  14.093  0.00  0.00    +0.000 S 
ATOM     24  C   UNL     1      50.635   8.763  14.368  0.00  0.00    +0.000 A 
ATOM     25  N   UNL     1      51.816   9.047  13.758  0.00  0.00    +0.000 NA
ATOM     26  C   UNL     1      52.803   8.298  14.140  0.00  0.00    +0.000 A 
ATOM     27  N   UNL     1      52.726   7.326  15.104  0.00  0.00    +0.000 N 
ATOM     28  C   UNL     1      51.553   6.994  15.747  0.00  0.00    +0.000 A 
ATOM     29  O   UNL     1      51.510   6.175  16.645  0.00  0.00    +0.000 OA
ATOM     30  C   UNL     1      50.408   7.733  15.249  0.00  0.00    +0.000 A 
ATOM     31  H   UNL     1      53.556   6.847  15.429  0.00  0.00    +0.000 HD
ENDBRANCH  18  21
ENDBRANCH   1  19
TORSDOF 6
ENDMDL
MODEL 5
REMARK VINA RESULT:    -7.411      2.126      3.006
REMARK INTER + INTRA:         -10.855
REMARK INTER:                 -10.016
REMARK INTRA:                  -0.839
REMARK UNBOUND:                -0.844
REMARK  Name = 
REMARK  6 active torsions:
REMARK  status: ('A' for Active; 'I' for Inactive)
REMARK    1  A    between atoms: C_2  and  C_19
REMARK    2  A    between atoms: N_3  and  C_4
REMARK    3  A    between atoms: C_4  and  C_5
REMARK    4  A    between atoms: C_8  and  C_9
REMARK    5  A    between atoms: C_9  and  N_10
REMARK    6  A    between atoms: N_10  and  C_11
REMARK                            x       y       z     vdW  Elec       q    Type
REMARK                         _______ _______ _______ _____ _____    ______ ____
ROOT
ATOM      1  C   UNL     1      47.170   7.274  13.074  0.00  0.00    +0.000 C 
ENDROOT
BRANCH   1   2
ATOM      2  C   UNL     1      46.409   6.207  12.317  0.00  0.00    +0.000 A 
ATOM      3  N   UNL     1      45.979   6.504  11.078  0.00  0.00    +0.000 NA
ATOM      4  C   UNL     1      45.249   5.562  10.447  0.00  0.00    +0.000 A 
ATOM      5  C   UNL     1      44.924   4.341  11.009  0.00  0.00    +0.000 A 
ATOM      6  C   UNL     1      45.374   4.154  12.297  0.00  0.00    +0.000 A 
ATOM      7  N   UNL     1      46.098   5.068  12.978  0.00  0.00    +0.000 NA
BRANCH   5   8
ATOM      8  C   UNL     1      44.120   3.311  10.273  0.00  0.00    +0.000 C 
BRANCH   8   9
ATOM      9  N   UNL     1      44.389   3.372   8.839  0.00  0.00    +0.000 NA
ATOM     10  H   UNL     1      44.378   4.350   8.540  0.00  0.00    +0.000 HD
BRANCH   9  11
ATOM     11  C   UNL     1      45.671   2.770   8.431  0.00  0.00    +0.000 C 
ATOM     12  C   UNL     1      46.046   3.343   7.056  0.00  0.00    +0.000 C 
ATOM     13  C   UNL     1      47.316   2.692   6.524  0.00  0.00    +0.000 C 
ATOM     14  O   UNL     1      47.181   1.274   6.476  0.00  0.00    +0.000 OA
ATOM     15  C   UNL     1      46.941   0.711   7.762  0.00  0.00    +0.000 C 
ATOM     16  C   UNL     1      45.637   1.238   8.350  0.00  0.00    +0.000 C 
ENDBRANCH   9  11
ENDBRANCH   8   9
ENDBRANCH   5   8
ENDBRANCH   1   2
BRANCH   1  19
ATOM     17  O   UNL     1      49.668   6.862  14.361  0.00  0.00    +0.000 OA
ATOM     18  C   UNL     1      48.623   6.644  14.960  0.00  0.00    +0.000 C 
ATOM     19  N   UNL     1      47.370   6.888  14.452  0.00  0.00    +0.000 N 
ATOM     20  H   UNL     1      46.601   6.372  14.856  0.00  0.00    +0.000 HD
BRANCH  18  21
ATOM     21  C   UNL     1      48.535   5.858  16.180  0.00  0.00    +0.000 A 
ATOM     22  C   UNL     1      48.059   4.560  16.187  0.00  0.00    +0.000 A 
ATOM     23  S   UNL     1      47.342   4.187  17.703  0.00  0.00    +0.000 S 
ATOM     24  C   UNL     1      47.880   5.658  18.382  0.00  0.00    +0.000 A 
ATOM     25  N   UNL     1      47.495   6.078  19.616  0.00  0.00    +0.000 NA
ATOM     26  C   UNL     1      48.057   7.181  19.998  0.00  0.00    +0.000 A 
ATOM     27  N   UNL     1      48.997   7.876  19.281  0.00  0.00    +0.000 N 
ATOM     28  C   UNL     1      49.415   7.498  18.023  0.00  0.00    +0.000 A 
ATOM     29  O   UNL     1      50.295   8.086  17.423  0.00  0.00    +0.000 OA
ATOM     30  C   UNL     1      48.710   6.333  17.521  0.00  0.00    +0.000 A 
ATOM     31  H   UNL     1      49.472   8.676  19.680  0.00  0.00    +0.000 HD
ENDBRANCH  18  21
ENDBRANCH   1  19
TORSDOF 6
ENDMDL
MODEL 6
REMARK VINA RESULT:    -7.398      2.416      3.685
REMARK INTER + INTRA:         -10.837
REMARK INTER:                  -9.945
REMARK INTRA:                  -0.892
REMARK UNBOUND:                -0.844
REMARK  Name = 
REMARK  6 active torsions:
REMARK  status: ('A' for Active; 'I' for Inactive)
REMARK    1  A    between atoms: C_2  and  C_19
REMARK    2  A    between atoms: N_3  and  C_4
REMARK    3  A    between atoms: C_4  and  C_5
REMARK    4  A    between atoms: C_8  and  C_9
REMARK    5  A    between atoms: C_9  and  N_10
REMARK    6  A    between atoms: N_10  and  C_11
REMARK                            x       y       z     vdW  Elec       q    Type
REMARK                         _______ _______ _______ _____ _____    ______ ____
ROOT
ATOM      1  C   UNL     1      47.316   4.129  15.727  0.00  0.00    +0.000 C 
ENDROOT
BRANCH   1   2
ATOM      2  C   UNL     1      46.788   4.633  14.402  0.00  0.00    +0.000 A 
ATOM      3  N   UNL     1      45.640   4.103  13.942  0.00  0.00    +0.000 NA
ATOM      4  C   UNL     1      45.221   4.521  12.731  0.00  0.00    +0.000 A 
ATOM      5  C   UNL     1      45.907   5.439  11.958  0.00  0.00    +0.000 A 
ATOM      6  C   UNL     1      47.092   5.887  12.498  0.00  0.00    +0.000 A 
ATOM      7  N   UNL     1      47.563   5.492  13.701  0.00  0.00    +0.000 NA
BRANCH   5   8
ATOM      8  C   UNL     1      45.406   5.890  10.618  0.00  0.00    +0.000 C 
BRANCH   8   9
ATOM      9  N   UNL     1      44.273   5.076  10.189  0.00  0.00    +0.000 NA
ATOM     10  H   UNL     1      43.523   5.693   9.867  0.00  0.00    +0.000 HD
BRANCH   9  11
ATOM     11  C   UNL     1      44.581   4.113   9.118  0.00  0.00    +0.000 C 
ATOM     12  C   UNL     1      44.713   2.721   9.755  0.00  0.00    +0.000 C 
ATOM     13  C   UNL     1      45.128   1.686   8.719  0.00  0.00    +0.000 C 
ATOM     14  O   UNL     1      46.333   2.073   8.065  0.00  0.00    +0.000 OA
ATOM     15  C   UNL     1      46.199   3.312   7.374  0.00  0.00    +0.000 C 
ATOM     16  C   UNL     1      45.865   4.439   8.343  0.00  0.00    +0.000 C 
ENDBRANCH   9  11
ENDBRANCH   8   9
ENDBRANCH   5   8
ENDBRANCH   1   2
BRANCH   1  19
ATOM     17  O   UNL     1      49.834   4.956  16.748  0.00  0.00    +0.000 OA
ATOM     18  C   UNL     1      48.806   5.499  17.131  0.00  0.00    +0.000 C 
ATOM     19  N   UNL     1      47.552   5.225  16.640  0.00  0.00    +0.000 N 
ATOM     20  H   UNL     1      46.766   5.451  17.232  0.00  0.00    +0.000 HD
BRANCH  18  21
ATOM     21  C   UNL     1      48.716   6.315  18.331  0.00  0.00    +0.000 A 
ATOM     22  C   UNL     1      48.519   5.763  19.584  0.00  0.00    +0.000 A 
ATOM     23  S   UNL     1      47.695   6.869  20.608  0.00  0.00    +0.000 S 
ATOM     24  C   UNL     1      47.826   8.121  19.455  0.00  0.00    +0.000 A 
ATOM     25  N   UNL     1      47.201   9.319  19.601  0.00  0.00    +0.000 NA
ATOM     26  C   UNL     1      47.470  10.174  18.665  0.00  0.00    +0.000 A 
ATOM     27  N   UNL     1      48.336   9.956  17.625  0.00  0.00    +0.000 N 
ATOM     28  C   UNL     1      48.988   8.757  17.426  0.00  0.00    +0.000 A 
ATOM     29  O   UNL     1      49.802   8.596  16.537  0.00  0.00    +0.000 OA
ATOM     30  C   UNL     1      48.609   7.743  18.392  0.00  0.00    +0.000 A 
ATOM     31  H   UNL     1      48.580  10.700  16.984  0.00  0.00    +0.000 HD
ENDBRANCH  18  21
ENDBRANCH   1  19
TORSDOF 6
ENDMDL
MODEL 7
REMARK VINA RESULT:    -7.389      1.793      2.262
REMARK INTER + INTRA:         -10.825
REMARK INTER:                  -9.959
REMARK INTRA:                  -0.866
REMARK UNBOUND:                -0.844
REMARK  Name = 
REMARK  6 active torsions:
REMARK  status: ('A' for Active; 'I' for Inactive)
REMARK    1  A    between atoms: C_2  and  C_19
REMARK    2  A    between atoms: N_3  and  C_4
REMARK    3  A    between atoms: C_4  and  C_5
REMARK    4  A    between atoms: C_8  and  C_9
REMARK    5  A    between atoms: C_9  and  N_10
REMARK    6  A    between atoms: N_10  and  C_11
REMARK                            x       y       z     vdW  Elec       q    Type
REMARK                         _______ _______ _______ _____ _____    ______ ____
ROOT
ATOM      1  C   UNL     1      48.071   6.653  13.590  0.00  0.00    +0.000 C 
ENDROOT
BRANCH   1   2
ATOM      2  C   UNL     1      46.937   5.727  13.207  0.00  0.00    +0.000 A 
ATOM      3  N   UNL     1      45.748   6.281  12.911  0.00  0.00    +0.000 NA
ATOM      4  C   UNL     1      44.736   5.434  12.635  0.00  0.00    +0.000 A 
ATOM      5  C   UNL     1      44.862   4.058  12.652  0.00  0.00    +0.000 A 
ATOM      6  C   UNL     1      46.107   3.591  13.010  0.00  0.00    +0.000 A 
ATOM      7  N   UNL     1      47.151   4.395  13.308  0.00  0.00    +0.000 NA
BRANCH   5   8
ATOM      8  C   UNL     1      43.717   3.146  12.327  0.00  0.00    +0.000 C 
BRANCH   8   9
ATOM      9  N   UNL     1      43.442   3.151  10.893  0.00  0.00    +0.000 NA
ATOM     10  H   UNL     1      42.933   4.005  10.656  0.00  0.00    +0.000 HD
BRANCH   9  11
ATOM     11  C   UNL     1      44.640   3.064  10.040  0.00  0.00    +0.000 C 
ATOM     12  C   UNL     1      44.621   4.257   9.073  0.00  0.00    +0.000 C 
ATOM     13  C   UNL     1      45.782   4.181   8.091  0.00  0.00    +0.000 C 
ATOM     14  O   UNL     1      45.775   2.942   7.387  0.00  0.00    +0.000 OA
ATOM     15  C   UNL     1      45.903   1.824   8.260  0.00  0.00    +0.000 C 
ATOM     16  C   UNL     1      44.734   1.761   9.235  0.00  0.00    +0.000 C 
ENDBRANCH   9  11
ENDBRANCH   8   9
ENDBRANCH   5   8
ENDBRANCH   1   2
BRANCH   1  19
ATOM     17  O   UNL     1      50.212   6.707  15.455  0.00  0.00    +0.000 OA
ATOM     18  C   UNL     1      49.070   6.953  15.821  0.00  0.00    +0.000 C 
ATOM     19  N   UNL     1      47.984   7.029  14.983  0.00  0.00    +0.000 N 
ATOM     20  H   UNL     1      47.072   6.890  15.396  0.00  0.00    +0.000 HD
BRANCH  18  21
ATOM     21  C   UNL     1      48.641   6.940  17.211  0.00  0.00    +0.000 A 
ATOM     22  C   UNL     1      48.739   8.055  18.022  0.00  0.00    +0.000 A 
ATOM     23  S   UNL     1      48.932   7.591  19.665  0.00  0.00    +0.000 S 
ATOM     24  C   UNL     1      48.652   5.948  19.293  0.00  0.00    +0.000 A 
ATOM     25  N   UNL     1      48.816   4.953  20.203  0.00  0.00    +0.000 NA
ATOM     26  C   UNL     1      48.490   3.777  19.767  0.00  0.00    +0.000 A 
ATOM     27  N   UNL     1      47.976   3.514  18.523  0.00  0.00    +0.000 N 
ATOM     28  C   UNL     1      47.798   4.485  17.561  0.00  0.00    +0.000 A 
ATOM     29  O   UNL     1      47.283   4.250  16.484  0.00  0.00    +0.000 OA
ATOM     30  C   UNL     1      48.271   5.790  17.982  0.00  0.00    +0.000 A 
ATOM     31  H   UNL     1      47.646   2.588  18.280  0.00  0.00    +0.000 HD
ENDBRANCH  18  21
ENDBRANCH   1  19
TORSDOF 6
ENDMDL
MODEL 8
REMARK VINA RESULT:    -7.263      2.431      3.495
REMARK INTER + INTRA:         -10.655
REMARK INTER:                  -9.914
REMARK INTRA:                  -0.741
REMARK UNBOUND:                -0.844
REMARK  Name = 
REMARK  6 active torsions:
REMARK  status: ('A' for Active; 'I' for Inactive)
REMARK    1  A    between atoms: C_2  and  C_19
REMARK    2  A    between atoms: N_3  and  C_4
REMARK    3  A    between atoms: C_4  and  C_5
REMARK    4  A    between atoms: C_8  and  C_9
REMARK    5  A    between atoms: C_9  and  N_10
REMARK    6  A    between atoms: N_10  and  C_11
REMARK                            x       y       z     vdW  Elec       q    Type
REMARK                         _______ _______ _______ _____ _____    ______ ____
ROOT
ATOM      1  C   UNL     1      46.890   4.767  14.274  0.00  0.00    +0.000 C 
ENDROOT
BRANCH   1   2
ATOM      2  C   UNL     1      46.201   4.559  12.943  0.00  0.00    +0.000 A 
ATOM      3  N   UNL     1      46.109   5.614  12.114  0.00  0.00    +0.000 NA
ATOM      4  C   UNL     1      45.436   5.422  10.961  0.00  0.00    +0.000 A 
ATOM      5  C   UNL     1      44.845   4.223  10.610  0.00  0.00    +0.000 A 
ATOM      6  C   UNL     1      44.959   3.220  11.546  0.00  0.00    +0.000 A 
ATOM      7  N   UNL     1      45.611   3.362  12.721  0.00  0.00    +0.000 NA
BRANCH   5   8
ATOM      8  C   UNL     1      44.114   4.041   9.313  0.00  0.00    +0.000 C 
BRANCH   8   9
ATOM      9  N   UNL     1      45.004   4.276   8.180  0.00  0.00    +0.000 NA
ATOM     10  H   UNL     1      45.429   5.202   8.278  0.00  0.00    +0.000 HD
BRANCH   9  11
ATOM     11  C   UNL     1      46.079   3.279   8.028  0.00  0.00    +0.000 C 
ATOM     12  C   UNL     1      46.723   3.483   6.648  0.00  0.00    +0.000 C 
ATOM     13  C   UNL     1      47.781   2.423   6.380  0.00  0.00    +0.000 C 
ATOM     14  O   UNL     1      47.235   1.113   6.508  0.00  0.00    +0.000 OA
ATOM     15  C   UNL     1      46.730   0.865   7.817  0.00  0.00    +0.000 C 
ATOM     16  C   UNL     1      45.598   1.828   8.153  0.00  0.00    +0.000 C 
ENDBRANCH   9  11
ENDBRANCH   8   9
ENDBRANCH   5   8
ENDBRANCH   1   2
BRANCH   1  19
ATOM     17  O   UNL     1      49.140   6.263  13.398  0.00  0.00    +0.000 OA
ATOM     18  C   UNL     1      48.291   6.786  14.108  0.00  0.00    +0.000 C 
ATOM     19  N   UNL     1      47.133   6.172  14.517  0.00  0.00    +0.000 N 
ATOM     20  H   UNL     1      46.687   6.534  15.348  0.00  0.00    +0.000 HD
BRANCH  18  21
ATOM     21  C   UNL     1      48.496   8.026  14.840  0.00  0.00    +0.000 A 
ATOM     22  C   UNL     1      48.387   9.265  14.237  0.00  0.00    +0.000 A 
ATOM     23  S   UNL     1      49.393  10.412  15.025  0.00  0.00    +0.000 S 
ATOM     24  C   UNL     1      49.767   9.310  16.274  0.00  0.00    +0.000 A 
ATOM     25  N   UNL     1      50.705   9.569  17.223  0.00  0.00    +0.000 NA
ATOM     26  C   UNL     1      50.806   8.651  18.132  0.00  0.00    +0.000 A 
ATOM     27  N   UNL     1      50.027   7.524  18.203  0.00  0.00    +0.000 N 
ATOM     28  C   UNL     1      49.069   7.210  17.263  0.00  0.00    +0.000 A 
ATOM     29  O   UNL     1      48.342   6.241  17.370  0.00  0.00    +0.000 OA
ATOM     30  C   UNL     1      49.022   8.160  16.167  0.00  0.00    +0.000 A 
ATOM     31  H   UNL     1      50.087   6.897  18.995  0.00  0.00    +0.000 HD
ENDBRANCH  18  21
ENDBRANCH   1  19
TORSDOF 6
ENDMDL
MODEL 9
REMARK VINA RESULT:    -7.025      3.291      7.658
REMARK INTER + INTRA:         -10.334
REMARK INTER:                  -9.217
REMARK INTRA:                  -1.117
REMARK UNBOUND:                -0.844
REMARK  Name = 
REMARK  6 active torsions:
REMARK  status: ('A' for Active; 'I' for Inactive)
REMARK    1  A    between atoms: C_2  and  C_19
REMARK    2  A    between atoms: N_3  and  C_4
REMARK    3  A    between atoms: C_4  and  C_5
REMARK    4  A    between atoms: C_8  and  C_9
REMARK    5  A    between atoms: C_9  and  N_10
REMARK    6  A    between atoms: N_10  and  C_11
REMARK                            x       y       z     vdW  Elec       q    Type
REMARK                         _______ _______ _______ _____ _____    ______ ____
ROOT
ATOM      1  C   UNL     1      47.033   8.553  12.536  0.00  0.00    +0.000 C 
ENDROOT
BRANCH   1   2
ATOM      2  C   UNL     1      47.708   8.023  13.783  0.00  0.00    +0.000 A 
ATOM      3  N   UNL     1      47.934   8.887  14.788  0.00  0.00    +0.000 NA
ATOM      4  C   UNL     1      48.593   8.409  15.863  0.00  0.00    +0.000 A 
ATOM      5  C   UNL     1      49.041   7.106  15.968  0.00  0.00    +0.000 A 
ATOM      6  C   UNL     1      48.799   6.315  14.868  0.00  0.00    +0.000 A 
ATOM      7  N   UNL     1      48.155   6.747  13.762  0.00  0.00    +0.000 NA
BRANCH   5   8
ATOM      8  C   UNL     1      49.761   6.603  17.184  0.00  0.00    +0.000 C 
BRANCH   8   9
ATOM      9  N   UNL     1      48.879   5.775  18.002  0.00  0.00    +0.000 NA
ATOM     10  H   UNL     1      47.911   5.938  17.715  0.00  0.00    +0.000 HD
BRANCH   9  11
ATOM     11  C   UNL     1      49.154   4.330  17.929  0.00  0.00    +0.000 C 
ATOM     12  C   UNL     1      50.633   4.147  17.559  0.00  0.00    +0.000 C 
ATOM     13  C   UNL     1      50.969   2.674  17.370  0.00  0.00    +0.000 C 
ATOM     14  O   UNL     1      50.114   2.076  16.399  0.00  0.00    +0.000 OA
ATOM     15  C   UNL     1      48.742   2.138  16.777  0.00  0.00    +0.000 C 
ATOM     16  C   UNL     1      48.281   3.584  16.910  0.00  0.00    +0.000 C 
ENDBRANCH   9  11
ENDBRANCH   8   9
ENDBRANCH   5   8
ENDBRANCH   1   2
BRANCH   1  19
ATOM     17  O   UNL     1      44.469   7.563  11.818  0.00  0.00    +0.000 OA
ATOM     18  C   UNL     1      45.481   7.032  11.377  0.00  0.00    +0.000 C 
ATOM     19  N   UNL     1      46.758   7.484  11.603  0.00  0.00    +0.000 N 
ATOM     20  H   UNL     1      47.509   6.816  11.503  0.00  0.00    +0.000 HD
BRANCH  18  21
ATOM     21  C   UNL     1      45.508   5.707  10.778  0.00  0.00    +0.000 A 
ATOM     22  C   UNL     1      45.845   5.505   9.453  0.00  0.00    +0.000 A 
ATOM     23  S   UNL     1      45.068   4.101   8.839  0.00  0.00    +0.000 S 
ATOM     24  C   UNL     1      44.495   3.672  10.389  0.00  0.00    +0.000 A 
ATOM     25  N   UNL     1      43.621   2.652  10.590  0.00  0.00    +0.000 NA
ATOM     26  C   UNL     1      43.351   2.423  11.837  0.00  0.00    +0.000 A 
ATOM     27  N   UNL     1      43.908   3.090  12.898  0.00  0.00    +0.000 N 
ATOM     28  C   UNL     1      44.792   4.137  12.748  0.00  0.00    +0.000 A 
ATOM     29  O   UNL     1      45.327   4.680  13.697  0.00  0.00    +0.000 OA
ATOM     30  C   UNL     1      45.015   4.493  11.360  0.00  0.00    +0.000 A 
ATOM     31  H   UNL     1      43.732   2.795  13.850  0.00  0.00    +0.000 HD
ENDBRANCH  18  21
ENDBRANCH   1  19
TORSDOF 6
ENDMDL
