MODEL 1
REMARK VINA RESULT:    -8.172      0.000      0.000
REMARK INTER + INTRA:         -10.664
REMARK INTER:                 -10.084
REMARK INTRA:                  -0.580
REMARK UNBOUND:                -0.580
REMARK  Name = 
REMARK  4 active torsions:
REMARK  status: ('A' for Active; 'I' for Inactive)
REMARK    1  A    between atoms: C_2  and  C_4
REMARK    2  A    between atoms: C_7  and  N_8
REMARK    3  A    between atoms: N_8  and  C_9
REMARK    4  A    between atoms: C_9  and  C_10
REMARK                            x       y       z     vdW  Elec       q    Type
REMARK                         _______ _______ _______ _____ _____    ______ ____
ROOT
ATOM      1  C   UNL     1      46.525   2.695   7.526  0.00  0.00    +0.000 A 
ATOM      2  C   UNL     1      46.136   4.022   7.736  0.00  0.00    +0.000 A 
ATOM      3  C   UNL     1      45.196   4.334   8.727  0.00  0.00    +0.000 A 
ATOM      4  C   UNL     1      44.630   3.333   9.518  0.00  0.00    +0.000 A 
ATOM      5  C   UNL     1      45.064   2.013   9.334  0.00  0.00    +0.000 A 
ATOM      6  C   UNL     1      45.985   1.688   8.330  0.00  0.00    +0.000 A 
ENDROOT
BRANCH   1   8
ATOM      7  N   UNL     1      47.442   3.077   5.299  0.00  0.00    +0.000 N 
ATOM      8  C   UNL     1      47.464   2.319   6.438  0.00  0.00    +0.000 C 
ATOM      9  O   UNL     1      48.243   1.385   6.555  0.00  0.00    +0.000 OA
ATOM     10  H   UNL     1      48.135   2.851   4.597  0.00  0.00    +0.000 HD
ATOM     11  H   UNL     1      47.015   3.991   5.264  0.00  0.00    +0.000 HD
ENDBRANCH   1   8
BRANCH   4  12
ATOM     12  N   UNL     1      43.720   3.591  10.566  0.00  0.00    +0.000 N 
ATOM     13  H   UNL     1      43.592   2.743  11.123  0.00  0.00    +0.000 HD
BRANCH  12  14
ATOM     14  C   UNL     1      43.834   4.792  11.443  0.00  0.00    +0.000 C 
ATOM     15  C   UNL     1      42.579   5.077  12.265  0.00  0.00    +0.000 C 
ATOM     16  C   UNL     1      42.988   6.030  11.191  0.00  0.00    +0.000 C 
BRANCH  14  17
ATOM     17  C   UNL     1      45.174   4.944  12.182  0.00  0.00    +0.000 A 
ATOM     18  C   UNL     1      46.022   6.030  11.930  0.00  0.00    +0.000 A 
ATOM     19  C   UNL     1      47.194   6.190  12.661  0.00  0.00    +0.000 A 
ATOM     20  C   UNL     1      47.519   5.251  13.628  0.00  0.00    +0.000 A 
ATOM     21  C   UNL     1      46.656   4.182  13.807  0.00  0.00    +0.000 A 
ATOM     22  N   UNL     1      45.510   4.007  13.111  0.00  0.00    +0.000 NA
ENDBRANCH  14  17
ENDBRANCH  12  14
ENDBRANCH   4  12
TORSDOF 4
ENDMDL
MODEL 2
REMARK VINA RESULT:    -6.494      3.248      6.404
REMARK INTER + INTRA:          -8.593
REMARK INTER:                  -8.254
REMARK INTRA:                  -0.339
REMARK UNBOUND:                -0.580
REMARK  Name = 
REMARK  4 active torsions:
REMARK  status: ('A' for Active; 'I' for Inactive)
REMARK    1  A    between atoms: C_2  and  C_4
REMARK    2  A    between atoms: C_7  and  N_8
REMARK    3  A    between atoms: N_8  and  C_9
REMARK    4  A    between atoms: C_9  and  C_10
REMARK                            x       y       z     vdW  Elec       q    Type
REMARK                         _______ _______ _______ _____ _____    ______ ____
ROOT
ATOM      1  C   UNL     1      47.098   8.166  13.191  0.00  0.00    +0.000 A 
ATOM      2  C   UNL     1      47.612   7.004  12.607  0.00  0.00    +0.000 A 
ATOM      3  C   UNL     1      46.808   6.219  11.771  0.00  0.00    +0.000 A 
ATOM      4  C   UNL     1      45.485   6.578  11.506  0.00  0.00    +0.000 A 
ATOM      5  C   UNL     1      44.995   7.771  12.056  0.00  0.00    +0.000 A 
ATOM      6  C   UNL     1      45.784   8.550  12.912  0.00  0.00    +0.000 A 
ENDROOT
BRANCH   1   8
ATOM      7  N   UNL     1      47.497   9.001  15.448  0.00  0.00    +0.000 N 
ATOM      8  C   UNL     1      47.899   8.984  14.139  0.00  0.00    +0.000 C 
ATOM      9  O   UNL     1      48.889   9.602  13.779  0.00  0.00    +0.000 OA
ATOM     10  H   UNL     1      48.092   9.505  16.092  0.00  0.00    +0.000 HD
ATOM     11  H   UNL     1      46.862   8.316  15.829  0.00  0.00    +0.000 HD
ENDBRANCH   1   8
BRANCH   4  12
ATOM     12  N   UNL     1      44.644   5.857  10.631  0.00  0.00    +0.000 N 
ATOM     13  H   UNL     1      44.762   6.210   9.678  0.00  0.00    +0.000 HD
BRANCH  12  14
ATOM     14  C   UNL     1      44.571   4.368  10.642  0.00  0.00    +0.000 C 
ATOM     15  C   UNL     1      43.220   3.819  11.095  0.00  0.00    +0.000 C 
ATOM     16  C   UNL     1      44.427   3.599  11.946  0.00  0.00    +0.000 C 
BRANCH  14  17
ATOM     17  C   UNL     1      45.212   3.668   9.432  0.00  0.00    +0.000 A 
ATOM     18  C   UNL     1      45.717   4.404   8.352  0.00  0.00    +0.000 A 
ATOM     19  C   UNL     1      46.359   3.758   7.301  0.00  0.00    +0.000 A 
ATOM     20  C   UNL     1      46.477   2.377   7.331  0.00  0.00    +0.000 A 
ATOM     21  C   UNL     1      45.929   1.704   8.410  0.00  0.00    +0.000 A 
ATOM     22  N   UNL     1      45.302   2.310   9.444  0.00  0.00    +0.000 NA
ENDBRANCH  14  17
ENDBRANCH  12  14
ENDBRANCH   4  12
TORSDOF 4
ENDMDL
MODEL 3
REMARK VINA RESULT:    -6.123      3.364      6.136
REMARK INTER + INTRA:          -8.135
REMARK INTER:                  -7.696
REMARK INTRA:                  -0.439
REMARK UNBOUND:                -0.580
REMARK  Name = 
REMARK  4 active torsions:
REMARK  status: ('A' for Active; 'I' for Inactive)
REMARK    1  A    between atoms: C_2  and  C_4
REMARK    2  A    between atoms: C_7  and  N_8
REMARK    3  A    between atoms: N_8  and  C_9
REMARK    4  A    between atoms: C_9  and  C_10
REMARK                            x       y       z     vdW  Elec       q    Type
REMARK                         _______ _______ _______ _____ _____    ______ ____
ROOT
ATOM      1  C   UNL     1      48.062   7.970  13.242  0.00  0.00    +0.000 A 
ATOM      2  C   UNL     1      46.821   8.526  13.570  0.00  0.00    +0.000 A 
ATOM      3  C   UNL     1      45.673   8.164  12.853  0.00  0.00    +0.000 A 
ATOM      4  C   UNL     1      45.744   7.247  11.802  0.00  0.00    +0.000 A 
ATOM      5  C   UNL     1      46.983   6.657  11.515  0.00  0.00    +0.000 A 
ATOM      6  C   UNL     1      48.140   7.031  12.209  0.00  0.00    +0.000 A 
ENDROOT
BRANCH   1   8
ATOM      7  N   UNL     1      50.322   7.464  14.004  0.00  0.00    +0.000 N 
ATOM      8  C   UNL     1      49.311   8.384  13.932  0.00  0.00    +0.000 C 
ATOM      9  O   UNL     1      49.446   9.504  14.401  0.00  0.00    +0.000 OA
ATOM     10  H   UNL     1      51.190   7.785  14.415  0.00  0.00    +0.000 HD
ATOM     11  H   UNL     1      50.353   6.644  13.417  0.00  0.00    +0.000 HD
ENDBRANCH   1   8
BRANCH   4  12
ATOM     12  N   UNL     1      44.615   6.804  11.080  0.00  0.00    +0.000 N 
ATOM     13  H   UNL     1      44.739   7.021  10.088  0.00  0.00    +0.000 HD
BRANCH  12  14
ATOM     14  C   UNL     1      44.040   5.439  11.257  0.00  0.00    +0.000 C 
ATOM     15  C   UNL     1      42.567   5.438  11.657  0.00  0.00    +0.000 C 
ATOM     16  C   UNL     1      43.593   4.950  12.625  0.00  0.00    +0.000 C 
BRANCH  14  17
ATOM     17  C   UNL     1      44.453   4.407  10.195  0.00  0.00    +0.000 A 
ATOM     18  C   UNL     1      45.181   4.785   9.060  0.00  0.00    +0.000 A 
ATOM     19  C   UNL     1      45.609   3.827   8.148  0.00  0.00    +0.000 A 
ATOM     20  C   UNL     1      45.290   2.496   8.370  0.00  0.00    +0.000 A 
ATOM     21  C   UNL     1      44.540   2.189   9.494  0.00  0.00    +0.000 A 
ATOM     22  N   UNL     1      44.116   3.104  10.395  0.00  0.00    +0.000 NA
ENDBRANCH  14  17
ENDBRANCH  12  14
ENDBRANCH   4  12
TORSDOF 4
ENDMDL
MODEL 4
REMARK VINA RESULT:    -5.787      2.556      4.362
REMARK INTER + INTRA:          -7.720
REMARK INTER:                  -7.574
REMARK INTRA:                  -0.146
REMARK UNBOUND:                -0.580
REMARK  Name = 
REMARK  4 active torsions:
REMARK  status: ('A' for Active; 'I' for Inactive)
REMARK    1  A    between atoms: C_2  and  C_4
REMARK    2  A    between atoms: C_7  and  N_8
REMARK    3  A    between atoms: N_8  and  C_9
REMARK    4  A    between atoms: C_9  and  C_10
REMARK                            x       y       z     vdW  Elec       q    Type
REMARK                         _______ _______ _______ _____ _____    ______ ____
ROOT
ATOM      1  C   UNL     1      45.020   3.797  10.221  0.00  0.00    +0.000 A 
ATOM      2  C   UNL     1      45.366   5.142  10.046  0.00  0.00    +0.000 A 
ATOM      3  C   UNL     1      45.716   5.930  11.150  0.00  0.00    +0.000 A 
ATOM      4  C   UNL     1      45.727   5.393  12.439  0.00  0.00    +0.000 A 
ATOM      5  C   UNL     1      45.429   4.033  12.597  0.00  0.00    +0.000 A 
ATOM      6  C   UNL     1      45.053   3.243  11.503  0.00  0.00    +0.000 A 
ENDROOT
BRANCH   1   8
ATOM      7  N   UNL     1      44.278   3.585   7.907  0.00  0.00    +0.000 N 
ATOM      8  C   UNL     1      44.574   2.951   9.084  0.00  0.00    +0.000 C 
ATOM      9  O   UNL     1      44.491   1.736   9.179  0.00  0.00    +0.000 OA
ATOM     10  H   UNL     1      44.044   2.989   7.124  0.00  0.00    +0.000 HD
ATOM     11  H   UNL     1      44.578   4.529   7.709  0.00  0.00    +0.000 HD
ENDBRANCH   1   8
BRANCH   4  12
ATOM     12  N   UNL     1      46.123   6.122  13.581  0.00  0.00    +0.000 N 
ATOM     13  H   UNL     1      45.529   5.863  14.373  0.00  0.00    +0.000 HD
BRANCH  12  14
ATOM     14  C   UNL     1      47.549   6.235  14.001  0.00  0.00    +0.000 C 
ATOM     15  C   UNL     1      48.110   7.651  13.908  0.00  0.00    +0.000 C 
ATOM     16  C   UNL     1      48.635   6.591  12.998  0.00  0.00    +0.000 C 
BRANCH  14  17
ATOM     17  C   UNL     1      47.931   5.439  15.260  0.00  0.00    +0.000 A 
ATOM     18  C   UNL     1      47.173   4.338  15.679  0.00  0.00    +0.000 A 
ATOM     19  C   UNL     1      47.576   3.585  16.777  0.00  0.00    +0.000 A 
ATOM     20  C   UNL     1      48.725   3.951  17.459  0.00  0.00    +0.000 A 
ATOM     21  C   UNL     1      49.413   5.069  17.015  0.00  0.00    +0.000 A 
ATOM     22  N   UNL     1      49.042   5.813  15.949  0.00  0.00    +0.000 NA
ENDBRANCH  14  17
ENDBRANCH  12  14
ENDBRANCH   4  12
TORSDOF 4
ENDMDL
MODEL 5
REMARK VINA RESULT:    -5.784      3.340      6.654
REMARK INTER + INTRA:          -7.717
REMARK INTER:                  -7.293
REMARK INTRA:                  -0.423
REMARK UNBOUND:                -0.580
REMARK  Name = 
REMARK  4 active torsions:
REMARK  status: ('A' for Active; 'I' for Inactive)
REMARK    1  A    between atoms: C_2  and  C_4
REMARK    2  A    between atoms: C_7  and  N_8
REMARK    3  A    between atoms: N_8  and  C_9
REMARK    4  A    between atoms: C_9  and  C_10
REMARK                            x       y       z     vdW  Elec       q    Type
REMARK                         _______ _______ _______ _____ _____    ______ ____
ROOT
ATOM      1  C   UNL     1      47.794   4.448  15.923  0.00  0.00    +0.000 A 
ATOM      2  C   UNL     1      48.157   5.752  15.571  0.00  0.00    +0.000 A 
ATOM      3  C   UNL     1      47.859   6.247  14.295  0.00  0.00    +0.000 A 
ATOM      4  C   UNL     1      47.201   5.454  13.354  0.00  0.00    +0.000 A 
ATOM      5  C   UNL     1      46.797   4.166  13.734  0.00  0.00    +0.000 A 
ATOM      6  C   UNL     1      47.111   3.653  14.999  0.00  0.00    +0.000 A 
ENDROOT
BRANCH   1   8
ATOM      7  N   UNL     1      47.241   3.038  17.835  0.00  0.00    +0.000 N 
ATOM      8  C   UNL     1      48.157   3.865  17.241  0.00  0.00    +0.000 C 
ATOM      9  O   UNL     1      49.234   4.091  17.771  0.00  0.00    +0.000 OA
ATOM     10  H   UNL     1      47.532   2.595  18.697  0.00  0.00    +0.000 HD
ATOM     11  H   UNL     1      46.474   2.625  17.327  0.00  0.00    +0.000 HD
ENDBRANCH   1   8
BRANCH   4  12
ATOM     12  N   UNL     1      46.827   5.915  12.073  0.00  0.00    +0.000 N 
ATOM     13  H   UNL     1      47.486   5.556  11.377  0.00  0.00    +0.000 HD
BRANCH  12  14
ATOM     14  C   UNL     1      45.425   5.830  11.572  0.00  0.00    +0.000 C 
ATOM     15  C   UNL     1      44.755   7.187  11.379  0.00  0.00    +0.000 C 
ATOM     16  C   UNL     1      44.255   6.264  12.441  0.00  0.00    +0.000 C 
BRANCH  14  17
ATOM     17  C   UNL     1      45.183   4.794  10.462  0.00  0.00    +0.000 A 
ATOM     18  C   UNL     1      45.691   4.983   9.171  0.00  0.00    +0.000 A 
ATOM     19  C   UNL     1      45.526   4.000   8.200  0.00  0.00    +0.000 A 
ATOM     20  C   UNL     1      44.838   2.842   8.525  0.00  0.00    +0.000 A 
ATOM     21  C   UNL     1      44.332   2.728   9.810  0.00  0.00    +0.000 A 
ATOM     22  N   UNL     1      44.483   3.668  10.769  0.00  0.00    +0.000 NA
ENDBRANCH  14  17
ENDBRANCH  12  14
ENDBRANCH   4  12
TORSDOF 4
ENDMDL
MODEL 6
REMARK VINA RESULT:    -5.597      3.290      5.254
REMARK INTER + INTRA:          -7.486
REMARK INTER:                  -7.020
REMARK INTRA:                  -0.466
REMARK UNBOUND:                -0.580
REMARK  Name = 
REMARK  4 active torsions:
REMARK  status: ('A' for Active; 'I' for Inactive)
REMARK    1  A    between atoms: C_2  and  C_4
REMARK    2  A    between atoms: C_7  and  N_8
REMARK    3  A    between atoms: N_8  and  C_9
REMARK    4  A    between atoms: C_9  and  C_10
REMARK                            x       y       z     vdW  Elec       q    Type
REMARK                         _______ _______ _______ _____ _____    ______ ____
ROOT
ATOM      1  C   UNL     1      44.711   4.117  11.486  0.00  0.00    +0.000 A 
ATOM      2  C   UNL     1      44.690   5.338  10.805  0.00  0.00    +0.000 A 
ATOM      3  C   UNL     1      45.245   6.483  11.391  0.00  0.00    +0.000 A 
ATOM      4  C   UNL     1      45.826   6.429  12.659  0.00  0.00    +0.000 A 
ATOM      5  C   UNL     1      45.888   5.190  13.312  0.00  0.00    +0.000 A 
ATOM      6  C   UNL     1      45.313   4.045  12.745  0.00  0.00    +0.000 A 
ENDROOT
BRANCH   1   8
ATOM      7  N   UNL     1      44.693   2.286   9.875  0.00  0.00    +0.000 N 
ATOM      8  C   UNL     1      44.069   2.899  10.927  0.00  0.00    +0.000 C 
ATOM      9  O   UNL     1      43.036   2.444  11.395  0.00  0.00    +0.000 OA
ATOM     10  H   UNL     1      44.281   1.420   9.552  0.00  0.00    +0.000 HD
ATOM     11  H   UNL     1      45.657   2.468   9.636  0.00  0.00    +0.000 HD
ENDBRANCH   1   8
BRANCH   4  12
ATOM     12  N   UNL     1      46.448   7.535  13.277  0.00  0.00    +0.000 N 
ATOM     13  H   UNL     1      46.050   7.673  14.209  0.00  0.00    +0.000 HD
BRANCH  12  14
ATOM     14  C   UNL     1      47.929   7.707  13.301  0.00  0.00    +0.000 C 
ATOM     15  C   UNL     1      48.442   8.776  12.339  0.00  0.00    +0.000 C 
ATOM     16  C   UNL     1      48.780   7.342  12.094  0.00  0.00    +0.000 C 
BRANCH  14  17
ATOM     17  C   UNL     1      48.572   7.690  14.697  0.00  0.00    +0.000 A 
ATOM     18  C   UNL     1      48.285   8.685  15.640  0.00  0.00    +0.000 A 
ATOM     19  C   UNL     1      48.819   8.613  16.923  0.00  0.00    +0.000 A 
ATOM     20  C   UNL     1      49.650   7.552  17.247  0.00  0.00    +0.000 A 
ATOM     21  C   UNL     1      49.921   6.618  16.261  0.00  0.00    +0.000 A 
ATOM     22  N   UNL     1      49.413   6.666  15.010  0.00  0.00    +0.000 NA
ENDBRANCH  14  17
ENDBRANCH  12  14
ENDBRANCH   4  12
TORSDOF 4
ENDMDL
MODEL 7
REMARK VINA RESULT:    -5.447      4.530      7.669
REMARK INTER + INTRA:          -7.301
REMARK INTER:                  -6.841
REMARK INTRA:                  -0.459
REMARK UNBOUND:                -0.580
REMARK  Name = 
REMARK  4 active torsions:
REMARK  status: ('A' for Active; 'I' for Inactive)
REMARK    1  A    between atoms: C_2  and  C_4
REMARK    2  A    between atoms: C_7  and  N_8
REMARK    3  A    between atoms: N_8  and  C_9
REMARK    4  A    between atoms: C_9  and  C_10
REMARK                            x       y       z     vdW  Elec       q    Type
REMARK                         _______ _______ _______ _____ _____    ______ ____
ROOT
ATOM      1  C   UNL     1      48.028   4.920  17.444  0.00  0.00    +0.000 A 
ATOM      2  C   UNL     1      48.701   6.010  16.882  0.00  0.00    +0.000 A 
ATOM      3  C   UNL     1      48.580   6.285  15.514  0.00  0.00    +0.000 A 
ATOM      4  C   UNL     1      47.790   5.482  14.688  0.00  0.00    +0.000 A 
ATOM      5  C   UNL     1      47.080   4.423  15.271  0.00  0.00    +0.000 A 
ATOM      6  C   UNL     1      47.214   4.125  16.633  0.00  0.00    +0.000 A 
ENDROOT
BRANCH   1   8
ATOM      7  N   UNL     1      48.479   3.248  19.161  0.00  0.00    +0.000 N 
ATOM      8  C   UNL     1      48.190   4.555  18.875  0.00  0.00    +0.000 C 
ATOM      9  O   UNL     1      48.093   5.385  19.766  0.00  0.00    +0.000 OA
ATOM     10  H   UNL     1      48.655   3.031  20.133  0.00  0.00    +0.000 HD
ATOM     11  H   UNL     1      48.820   2.603  18.464  0.00  0.00    +0.000 HD
ENDBRANCH   1   8
BRANCH   4  12
ATOM     12  N   UNL     1      47.587   5.741  13.316  0.00  0.00    +0.000 N 
ATOM     13  H   UNL     1      47.634   4.863  12.793  0.00  0.00    +0.000 HD
BRANCH  12  14
ATOM     14  C   UNL     1      46.469   6.595  12.822  0.00  0.00    +0.000 C 
ATOM     15  C   UNL     1      46.921   7.756  11.941  0.00  0.00    +0.000 C 
ATOM     16  C   UNL     1      46.323   8.037  13.279  0.00  0.00    +0.000 C 
BRANCH  14  17
ATOM     17  C   UNL     1      45.219   5.834  12.348  0.00  0.00    +0.000 A 
ATOM     18  C   UNL     1      45.200   5.166  11.117  0.00  0.00    +0.000 A 
ATOM     19  C   UNL     1      44.087   4.422  10.739  0.00  0.00    +0.000 A 
ATOM     20  C   UNL     1      42.994   4.366  11.589  0.00  0.00    +0.000 A 
ATOM     21  C   UNL     1      43.061   5.075  12.778  0.00  0.00    +0.000 A 
ATOM     22  N   UNL     1      44.133   5.802  13.167  0.00  0.00    +0.000 NA
ENDBRANCH  14  17
ENDBRANCH  12  14
ENDBRANCH   4  12
TORSDOF 4
ENDMDL
MODEL 8
REMARK VINA RESULT:    -5.402      3.314      6.101
REMARK INTER + INTRA:          -7.246
REMARK INTER:                  -7.651
REMARK INTRA:                   0.405
REMARK UNBOUND:                -0.580
REMARK  Name = 
REMARK  4 active torsions:
REMARK  status: ('A' for Active; 'I' for Inactive)
REMARK    1  A    between atoms: C_2  and  C_4
REMARK    2  A    between atoms: C_7  and  N_8
REMARK    3  A    between atoms: N_8  and  C_9
REMARK    4  A    between atoms: C_9  and  C_10
REMARK                            x       y       z     vdW  Elec       q    Type
REMARK                         _______ _______ _______ _____ _____    ______ ____
ROOT
ATOM      1  C   UNL     1      46.144   8.634  11.989  0.00  0.00    +0.000 A 
ATOM      2  C   UNL     1      47.205   7.740  12.164  0.00  0.00    +0.000 A 
ATOM      3  C   UNL     1      46.957   6.369  12.305  0.00  0.00    +0.000 A 
ATOM      4  C   UNL     1      45.654   5.869  12.274  0.00  0.00    +0.000 A 
ATOM      5  C   UNL     1      44.601   6.767  12.048  0.00  0.00    +0.000 A 
ATOM      6  C   UNL     1      44.837   8.143  11.931  0.00  0.00    +0.000 A 
ENDROOT
BRANCH   1   8
ATOM      7  N   UNL     1      45.321  10.913  12.269  0.00  0.00    +0.000 N 
ATOM      8  C   UNL     1      46.363  10.101  11.909  0.00  0.00    +0.000 C 
ATOM      9  O   UNL     1      47.433  10.574  11.556  0.00  0.00    +0.000 OA
ATOM     10  H   UNL     1      45.510  11.907  12.276  0.00  0.00    +0.000 HD
ATOM     11  H   UNL     1      44.533  10.578  12.803  0.00  0.00    +0.000 HD
ENDBRANCH   1   8
BRANCH   4  12
ATOM     12  N   UNL     1      45.346   4.494  12.357  0.00  0.00    +0.000 N 
ATOM     13  H   UNL     1      45.046   4.269  13.309  0.00  0.00    +0.000 HD
BRANCH  12  14
ATOM     14  C   UNL     1      44.484   3.808  11.351  0.00  0.00    +0.000 C 
ATOM     15  C   UNL     1      43.030   4.271  11.367  0.00  0.00    +0.000 C 
ATOM     16  C   UNL     1      43.363   2.877  11.786  0.00  0.00    +0.000 C 
BRANCH  14  17
ATOM     17  C   UNL     1      45.117   3.615   9.964  0.00  0.00    +0.000 A 
ATOM     18  C   UNL     1      45.277   2.337   9.411  0.00  0.00    +0.000 A 
ATOM     19  C   UNL     1      45.783   2.187   8.124  0.00  0.00    +0.000 A 
ATOM     20  C   UNL     1      46.141   3.316   7.405  0.00  0.00    +0.000 A 
ATOM     21  C   UNL     1      45.989   4.549   8.019  0.00  0.00    +0.000 A 
ATOM     22  N   UNL     1      45.497   4.720   9.267  0.00  0.00    +0.000 NA
ENDBRANCH  14  17
ENDBRANCH  12  14
ENDBRANCH   4  12
TORSDOF 4
ENDMDL
