MODEL 1
REMARK VINA RESULT:    -8.711      0.000      0.000
REMARK INTER + INTRA:         -13.037
REMARK INTER:                 -12.021
REMARK INTRA:                  -1.016
REMARK UNBOUND:                -1.016
REMARK  Name = 
REMARK  7 active torsions:
REMARK  status: ('A' for Active; 'I' for Inactive)
REMARK    1  A    between atoms: N_1  and  C_2
REMARK    2  A    between atoms: C_2  and  N_3
REMARK    3  A    between atoms: C_2  and  C_16
REMARK    4  A    between atoms: C_4  and  C_6
REMARK    5  A    between atoms: C_19  and  O_20
REMARK    6  A    between atoms: O_20  and  C_21
REMARK    7  A    between atoms: C_21  and  C_22
REMARK                            x       y       z     vdW  Elec       q    Type
REMARK                         _______ _______ _______ _____ _____    ______ ____
ROOT
ATOM      1  C   UNL     1      46.519   7.884  12.924  0.00  0.00    +0.000 C 
ENDROOT
BRANCH   1   2
ATOM      2  C   UNL     1      45.895   6.791  12.089  0.00  0.00    +0.000 A 
ATOM      3  C   UNL     1      46.231   6.578  10.741  0.00  0.00    +0.000 A 
ATOM      4  C   UNL     1      45.679   5.503  10.047  0.00  0.00    +0.000 A 
ATOM      5  C   UNL     1      44.813   4.665  10.725  0.00  0.00    +0.000 A 
ATOM      6  N   UNL     1      44.434   4.858  12.007  0.00  0.00    +0.000 NA
ATOM      7  C   UNL     1      44.983   5.910  12.657  0.00  0.00    +0.000 A 
BRANCH   5   8
ATOM      8  O   UNL     1      44.313   3.581  10.030  0.00  0.00    +0.000 OA
BRANCH   8   9
ATOM      9  C   UNL     1      44.441   3.769   8.617  0.00  0.00    +0.000 C 
BRANCH   9  10
ATOM     10  C   UNL     1      45.513   2.880   8.044  0.00  0.00    +0.000 A 
ATOM     11  C   UNL     1      46.501   3.406   7.205  0.00  0.00    +0.000 A 
ATOM     12  C   UNL     1      47.536   2.592   6.757  0.00  0.00    +0.000 A 
ATOM     13  C   UNL     1      47.556   1.271   7.171  0.00  0.00    +0.000 A 
ATOM     14  N   UNL     1      46.628   0.727   7.987  0.00  0.00    +0.000 NA
ATOM     15  C   UNL     1      45.633   1.544   8.408  0.00  0.00    +0.000 A 
ENDBRANCH   9  10
ENDBRANCH   8   9
ENDBRANCH   5   8
ENDBRANCH   1   2
BRANCH   1  16
ATOM     16  N   UNL     1      47.073   7.359  14.135  0.00  0.00    +0.000 N 
ATOM     17  C   UNL     1      48.302   6.747  14.191  0.00  0.00    +0.000 C 
ATOM     18  O   UNL     1      49.070   6.723  13.233  0.00  0.00    +0.000 OA
ATOM     19  H   UNL     1      46.381   7.019  14.794  0.00  0.00    +0.000 HD
BRANCH  17  20
ATOM     20  C   UNL     1      48.702   6.240  15.506  0.00  0.00    +0.000 A 
ATOM     21  C   UNL     1      49.704   6.881  16.220  0.00  0.00    +0.000 A 
ATOM     22  S   UNL     1      49.973   6.211  17.766  0.00  0.00    +0.000 S 
ATOM     23  C   UNL     1      48.798   5.006  17.511  0.00  0.00    +0.000 A 
ATOM     24  N   UNL     1      48.530   4.069  18.459  0.00  0.00    +0.000 NA
ATOM     25  C   UNL     1      47.642   3.198  18.112  0.00  0.00    +0.000 A 
ATOM     26  N   UNL     1      46.991   3.181  16.904  0.00  0.00    +0.000 N 
ATOM     27  C   UNL     1      47.206   4.128  15.930  0.00  0.00    +0.000 A 
ATOM     28  O   UNL     1      46.580   4.125  14.874  0.00  0.00    +0.000 OA
ATOM     29  C   UNL     1      48.202   5.123  16.267  0.00  0.00    +0.000 A 
ATOM     30  H   UNL     1      46.301   2.473  16.700  0.00  0.00    +0.000 HD
ENDBRANCH  17  20
ENDBRANCH   1  16
BRANCH   1  31
ATOM     31  N   UNL     1      45.503   8.841  13.314  0.00  0.00    +0.000 NA
ATOM     32  H   UNL     1      44.865   8.341  13.939  0.00  0.00    +0.000 HD
ATOM     33  H   UNL     1      44.946   9.055  12.493  0.00  0.00    +0.000 HD
ENDBRANCH   1  31
TORSDOF 7
ENDMDL
MODEL 2
REMARK VINA RESULT:    -8.344      1.884      2.335
REMARK INTER + INTRA:         -12.531
REMARK INTER:                 -11.456
REMARK INTRA:                  -1.075
REMARK UNBOUND:                -1.016
REMARK  Name = 
REMARK  7 active torsions:
REMARK  status: ('A' for Active; 'I' for Inactive)
REMARK    1  A    between atoms: N_1  and  C_2
REMARK    2  A    between atoms: C_2  and  N_3
REMARK    3  A    between atoms: C_2  and  C_16
REMARK    4  A    between atoms: C_4  and  C_6
REMARK    5  A    between atoms: C_19  and  O_20
REMARK    6  A    between atoms: O_20  and  C_21
REMARK    7  A    between atoms: C_21  and  C_22
REMARK                            x       y       z     vdW  Elec       q    Type
REMARK                         _______ _______ _______ _____ _____    ______ ____
ROOT
ATOM      1  C   UNL     1      47.522   6.590  13.605  0.00  0.00    +0.000 C 
ENDROOT
BRANCH   1   2
ATOM      2  C   UNL     1      46.573   5.852  12.692  0.00  0.00    +0.000 A 
ATOM      3  C   UNL     1      46.140   6.375  11.461  0.00  0.00    +0.000 A 
ATOM      4  C   UNL     1      45.327   5.611  10.626  0.00  0.00    +0.000 A 
ATOM      5  C   UNL     1      44.979   4.339  11.041  0.00  0.00    +0.000 A 
ATOM      6  N   UNL     1      45.341   3.815  12.232  0.00  0.00    +0.000 NA
ATOM      7  C   UNL     1      46.127   4.578  13.025  0.00  0.00    +0.000 A 
BRANCH   5   8
ATOM      8  O   UNL     1      44.209   3.583  10.178  0.00  0.00    +0.000 OA
BRANCH   8   9
ATOM      9  C   UNL     1      44.455   3.946   8.816  0.00  0.00    +0.000 C 
BRANCH   9  10
ATOM     10  C   UNL     1      45.448   3.013   8.174  0.00  0.00    +0.000 A 
ATOM     11  C   UNL     1      46.386   3.494   7.254  0.00  0.00    +0.000 A 
ATOM     12  C   UNL     1      47.354   2.639   6.739  0.00  0.00    +0.000 A 
ATOM     13  C   UNL     1      47.361   1.323   7.169  0.00  0.00    +0.000 A 
ATOM     14  N   UNL     1      46.481   0.822   8.062  0.00  0.00    +0.000 NA
ATOM     15  C   UNL     1      45.550   1.678   8.546  0.00  0.00    +0.000 A 
ENDBRANCH   9  10
ENDBRANCH   8   9
ENDBRANCH   5   8
ENDBRANCH   1   2
BRANCH   1  16
ATOM     16  N   UNL     1      47.564   5.991  14.904  0.00  0.00    +0.000 N 
ATOM     17  C   UNL     1      48.672   6.041  15.715  0.00  0.00    +0.000 C 
ATOM     18  O   UNL     1      49.660   6.716  15.439  0.00  0.00    +0.000 OA
ATOM     19  H   UNL     1      46.988   5.160  14.996  0.00  0.00    +0.000 HD
BRANCH  17  20
ATOM     20  C   UNL     1      48.553   5.347  17.000  0.00  0.00    +0.000 A 
ATOM     21  C   UNL     1      48.669   3.965  17.054  0.00  0.00    +0.000 A 
ATOM     22  S   UNL     1      48.596   3.338  18.640  0.00  0.00    +0.000 S 
ATOM     23  C   UNL     1      48.350   4.887  19.302  0.00  0.00    +0.000 A 
ATOM     24  N   UNL     1      48.191   5.066  20.640  0.00  0.00    +0.000 NA
ATOM     25  C   UNL     1      47.977   6.289  20.993  0.00  0.00    +0.000 A 
ATOM     26  N   UNL     1      47.913   7.354  20.130  0.00  0.00    +0.000 N 
ATOM     27  C   UNL     1      48.102   7.225  18.774  0.00  0.00    +0.000 A 
ATOM     28  O   UNL     1      48.090   8.196  18.023  0.00  0.00    +0.000 OA
ATOM     29  C   UNL     1      48.336   5.868  18.326  0.00  0.00    +0.000 A 
ATOM     30  H   UNL     1      47.749   8.289  20.475  0.00  0.00    +0.000 HD
ENDBRANCH  17  20
ENDBRANCH   1  16
BRANCH   1  31
ATOM     31  N   UNL     1      47.059   7.951  13.792  0.00  0.00    +0.000 NA
ATOM     32  H   UNL     1      46.161   8.017  13.305  0.00  0.00    +0.000 HD
ATOM     33  H   UNL     1      47.680   8.565  13.273  0.00  0.00    +0.000 HD
ENDBRANCH   1  31
TORSDOF 7
ENDMDL
MODEL 3
REMARK VINA RESULT:    -8.120      2.118      3.761
REMARK INTER + INTRA:         -12.222
REMARK INTER:                 -10.826
REMARK INTRA:                  -1.396
REMARK UNBOUND:                -1.016
REMARK  Name = 
REMARK  7 active torsions:
REMARK  status: ('A' for Active; 'I' for Inactive)
REMARK    1  A    between atoms: N_1  and  C_2
REMARK    2  A    between atoms: C_2  and  N_3
REMARK    3  A    between atoms: C_2  and  C_16
REMARK    4  A    between atoms: C_4  and  C_6
REMARK    5  A    between atoms: C_19  and  O_20
REMARK    6  A    between atoms: O_20  and  C_21
REMARK    7  A    between atoms: C_21  and  C_22
REMARK                            x       y       z     vdW  Elec       q    Type
REMARK                         _______ _______ _______ _____ _____    ______ ____
ROOT
ATOM      1  C   UNL     1      46.767   4.606  14.436  0.00  0.00    +0.000 C 
ENDROOT
BRANCH   1   2
ATOM      2  C   UNL     1      46.077   4.503  13.096  0.00  0.00    +0.000 A 
ATOM      3  C   UNL     1      46.045   5.563  12.174  0.00  0.00    +0.000 A 
ATOM      4  C   UNL     1      45.462   5.380  10.922  0.00  0.00    +0.000 A 
ATOM      5  C   UNL     1      44.937   4.137  10.622  0.00  0.00    +0.000 A 
ATOM      6  N   UNL     1      44.913   3.105  11.494  0.00  0.00    +0.000 NA
ATOM      7  C   UNL     1      45.483   3.310  12.703  0.00  0.00    +0.000 A 
BRANCH   5   8
ATOM      8  O   UNL     1      44.405   3.965   9.359  0.00  0.00    +0.000 OA
BRANCH   8   9
ATOM      9  C   UNL     1      44.495   2.598   8.943  0.00  0.00    +0.000 C 
BRANCH   9  10
ATOM     10  C   UNL     1      45.620   2.402   7.961  0.00  0.00    +0.000 A 
ATOM     11  C   UNL     1      45.979   3.424   7.075  0.00  0.00    +0.000 A 
ATOM     12  C   UNL     1      47.077   3.261   6.236  0.00  0.00    +0.000 A 
ATOM     13  C   UNL     1      47.792   2.079   6.316  0.00  0.00    +0.000 A 
ATOM     14  N   UNL     1      47.486   1.073   7.163  0.00  0.00    +0.000 NA
ATOM     15  C   UNL     1      46.412   1.260   7.968  0.00  0.00    +0.000 A 
ENDBRANCH   9  10
ENDBRANCH   8   9
ENDBRANCH   5   8
ENDBRANCH   1   2
BRANCH   1  16
ATOM     16  N   UNL     1      47.734   5.661  14.442  0.00  0.00    +0.000 N 
ATOM     17  C   UNL     1      48.378   6.079  15.582  0.00  0.00    +0.000 C 
ATOM     18  O   UNL     1      48.266   5.491  16.654  0.00  0.00    +0.000 OA
ATOM     19  H   UNL     1      47.573   6.375  13.739  0.00  0.00    +0.000 HD
BRANCH  17  20
ATOM     20  C   UNL     1      49.316   7.192  15.411  0.00  0.00    +0.000 A 
ATOM     21  C   UNL     1      50.610   7.088  15.904  0.00  0.00    +0.000 A 
ATOM     22  S   UNL     1      51.587   8.438  15.536  0.00  0.00    +0.000 S 
ATOM     23  C   UNL     1      50.298   9.229  14.754  0.00  0.00    +0.000 A 
ATOM     24  N   UNL     1      50.456  10.464  14.208  0.00  0.00    +0.000 NA
ATOM     25  C   UNL     1      49.385  10.955  13.681  0.00  0.00    +0.000 A 
ATOM     26  N   UNL     1      48.168  10.321  13.644  0.00  0.00    +0.000 N 
ATOM     27  C   UNL     1      47.971   9.059  14.153  0.00  0.00    +0.000 A 
ATOM     28  O   UNL     1      46.888   8.488  14.068  0.00  0.00    +0.000 OA
ATOM     29  C   UNL     1      49.143   8.468  14.765  0.00  0.00    +0.000 A 
ATOM     30  H   UNL     1      47.370  10.761  13.209  0.00  0.00    +0.000 HD
ENDBRANCH  17  20
ENDBRANCH   1  16
BRANCH   1  31
ATOM     31  N   UNL     1      47.489   3.380  14.709  0.00  0.00    +0.000 NA
ATOM     32  H   UNL     1      46.797   2.627  14.671  0.00  0.00    +0.000 HD
ATOM     33  H   UNL     1      47.790   3.405  15.679  0.00  0.00    +0.000 HD
ENDBRANCH   1  31
TORSDOF 7
ENDMDL
MODEL 4
REMARK VINA RESULT:    -7.988      1.781      2.051
REMARK INTER + INTRA:         -12.039
REMARK INTER:                 -10.895
REMARK INTRA:                  -1.144
REMARK UNBOUND:                -1.016
REMARK  Name = 
REMARK  7 active torsions:
REMARK  status: ('A' for Active; 'I' for Inactive)
REMARK    1  A    between atoms: N_1  and  C_2
REMARK    2  A    between atoms: C_2  and  N_3
REMARK    3  A    between atoms: C_2  and  C_16
REMARK    4  A    between atoms: C_4  and  C_6
REMARK    5  A    between atoms: C_19  and  O_20
REMARK    6  A    between atoms: O_20  and  C_21
REMARK    7  A    between atoms: C_21  and  C_22
REMARK                            x       y       z     vdW  Elec       q    Type
REMARK                         _______ _______ _______ _____ _____    ______ ____
ROOT
ATOM      1  C   UNL     1      48.330   6.857  13.496  0.00  0.00    +0.000 C 
ENDROOT
BRANCH   1   2
ATOM      2  C   UNL     1      47.200   6.141  12.794  0.00  0.00    +0.000 A 
ATOM      3  C   UNL     1      46.616   6.621  11.609  0.00  0.00    +0.000 A 
ATOM      4  C   UNL     1      45.631   5.874  10.966  0.00  0.00    +0.000 A 
ATOM      5  C   UNL     1      45.266   4.662  11.521  0.00  0.00    +0.000 A 
ATOM      6  N   UNL     1      45.774   4.185  12.678  0.00  0.00    +0.000 NA
ATOM      7  C   UNL     1      46.726   4.930  13.284  0.00  0.00    +0.000 A 
BRANCH   5   8
ATOM      8  O   UNL     1      44.320   3.917  10.843  0.00  0.00    +0.000 OA
BRANCH   8   9
ATOM      9  C   UNL     1      44.313   4.239   9.448  0.00  0.00    +0.000 C 
BRANCH   9  10
ATOM     10  C   UNL     1      45.188   3.295   8.667  0.00  0.00    +0.000 A 
ATOM     11  C   UNL     1      46.054   3.778   7.679  0.00  0.00    +0.000 A 
ATOM     12  C   UNL     1      46.921   2.905   7.029  0.00  0.00    +0.000 A 
ATOM     13  C   UNL     1      46.901   1.570   7.395  0.00  0.00    +0.000 A 
ATOM     14  N   UNL     1      46.089   1.065   8.348  0.00  0.00    +0.000 NA
ATOM     15  C   UNL     1      45.257   1.939   8.964  0.00  0.00    +0.000 A 
ENDBRANCH   9  10
ENDBRANCH   8   9
ENDBRANCH   5   8
ENDBRANCH   1   2
BRANCH   1  16
ATOM     16  N   UNL     1      48.134   6.871  14.914  0.00  0.00    +0.000 N 
ATOM     17  C   UNL     1      49.145   7.136  15.806  0.00  0.00    +0.000 C 
ATOM     18  O   UNL     1      50.259   7.509  15.447  0.00  0.00    +0.000 OA
ATOM     19  H   UNL     1      47.415   6.232  15.239  0.00  0.00    +0.000 HD
BRANCH  17  20
ATOM     20  C   UNL     1      48.776   7.078  17.223  0.00  0.00    +0.000 A 
ATOM     21  C   UNL     1      48.259   8.203  17.850  0.00  0.00    +0.000 A 
ATOM     22  S   UNL     1      47.801   7.927  19.471  0.00  0.00    +0.000 S 
ATOM     23  C   UNL     1      48.329   6.310  19.404  0.00  0.00    +0.000 A 
ATOM     24  N   UNL     1      48.235   5.493  20.487  0.00  0.00    +0.000 NA
ATOM     25  C   UNL     1      48.707   4.306  20.300  0.00  0.00    +0.000 A 
ATOM     26  N   UNL     1      49.261   3.858  19.127  0.00  0.00    +0.000 N 
ATOM     27  C   UNL     1      49.345   4.638  17.999  0.00  0.00    +0.000 A 
ATOM     28  O   UNL     1      49.800   4.206  16.944  0.00  0.00    +0.000 OA
ATOM     29  C   UNL     1      48.837   5.985  18.159  0.00  0.00    +0.000 A 
ATOM     30  H   UNL     1      49.607   2.912  19.048  0.00  0.00    +0.000 HD
ENDBRANCH  17  20
ENDBRANCH   1  16
BRANCH   1  31
ATOM     31  N   UNL     1      48.369   8.242  13.070  0.00  0.00    +0.000 NA
ATOM     32  H   UNL     1      49.051   8.287  12.309  0.00  0.00    +0.000 HD
ATOM     33  H   UNL     1      48.783   8.787  13.821  0.00  0.00    +0.000 HD
ENDBRANCH   1  31
TORSDOF 7
ENDMDL
MODEL 5
REMARK VINA RESULT:    -7.880      2.933      4.218
REMARK INTER + INTRA:         -11.890
REMARK INTER:                 -11.043
REMARK INTRA:                  -0.848
REMARK UNBOUND:                -1.016
REMARK  Name = 
REMARK  7 active torsions:
REMARK  status: ('A' for Active; 'I' for Inactive)
REMARK    1  A    between atoms: N_1  and  C_2
REMARK    2  A    between atoms: C_2  and  N_3
REMARK    3  A    between atoms: C_2  and  C_16
REMARK    4  A    between atoms: C_4  and  C_6
REMARK    5  A    between atoms: C_19  and  O_20
REMARK    6  A    between atoms: O_20  and  C_21
REMARK    7  A    between atoms: C_21  and  C_22
REMARK                            x       y       z     vdW  Elec       q    Type
REMARK                         _______ _______ _______ _____ _____    ______ ____
ROOT
ATOM      1  C   UNL     1      45.715   5.976  13.271  0.00  0.00    +0.000 C 
ENDROOT
BRANCH   1   2
ATOM      2  C   UNL     1      45.298   5.162  12.069  0.00  0.00    +0.000 A 
ATOM      3  C   UNL     1      45.488   5.604  10.748  0.00  0.00    +0.000 A 
ATOM      4  C   UNL     1      45.155   4.773   9.681  0.00  0.00    +0.000 A 
ATOM      5  C   UNL     1      44.651   3.517   9.965  0.00  0.00    +0.000 A 
ATOM      6  N   UNL     1      44.416   3.071  11.218  0.00  0.00    +0.000 NA
ATOM      7  C   UNL     1      44.746   3.898  12.236  0.00  0.00    +0.000 A 
BRANCH   5   8
ATOM      8  O   UNL     1      44.369   2.693   8.893  0.00  0.00    +0.000 OA
BRANCH   8   9
ATOM      9  C   UNL     1      45.366   1.677   8.747  0.00  0.00    +0.000 C 
BRANCH   9  10
ATOM     10  C   UNL     1      46.236   1.937   7.545  0.00  0.00    +0.000 A 
ATOM     11  C   UNL     1      45.986   3.029   6.707  0.00  0.00    +0.000 A 
ATOM     12  C   UNL     1      46.851   3.308   5.654  0.00  0.00    +0.000 A 
ATOM     13  C   UNL     1      47.951   2.487   5.475  0.00  0.00    +0.000 A 
ATOM     14  N   UNL     1      48.234   1.430   6.266  0.00  0.00    +0.000 NA
ATOM     15  C   UNL     1      47.374   1.183   7.283  0.00  0.00    +0.000 A 
ENDBRANCH   9  10
ENDBRANCH   8   9
ENDBRANCH   5   8
ENDBRANCH   1   2
BRANCH   1  16
ATOM     16  N   UNL     1      46.796   6.858  12.950  0.00  0.00    +0.000 N 
ATOM     17  C   UNL     1      46.659   8.225  12.909  0.00  0.00    +0.000 C 
ATOM     18  O   UNL     1      45.634   8.795  13.272  0.00  0.00    +0.000 OA
ATOM     19  H   UNL     1      47.476   6.464  12.307  0.00  0.00    +0.000 HD
BRANCH  17  20
ATOM     20  C   UNL     1      47.860   8.975  12.532  0.00  0.00    +0.000 A 
ATOM     21  C   UNL     1      47.746  10.123  11.760  0.00  0.00    +0.000 A 
ATOM     22  S   UNL     1      49.235  10.915  11.496  0.00  0.00    +0.000 S 
ATOM     23  C   UNL     1      50.088   9.720  12.358  0.00  0.00    +0.000 A 
ATOM     24  N   UNL     1      51.438   9.784  12.504  0.00  0.00    +0.000 NA
ATOM     25  C   UNL     1      51.952   8.791  13.149  0.00  0.00    +0.000 A 
ATOM     26  N   UNL     1      51.239   7.740  13.668  0.00  0.00    +0.000 N 
ATOM     27  C   UNL     1      49.870   7.651  13.573  0.00  0.00    +0.000 A 
ATOM     28  O   UNL     1      49.244   6.728  14.085  0.00  0.00    +0.000 OA
ATOM     29  C   UNL     1      49.246   8.738  12.848  0.00  0.00    +0.000 A 
ATOM     30  H   UNL     1      51.705   6.997  14.169  0.00  0.00    +0.000 HD
ENDBRANCH  17  20
ENDBRANCH   1  16
BRANCH   1  31
ATOM     31  N   UNL     1      46.197   5.094  14.314  0.00  0.00    +0.000 NA
ATOM     32  H   UNL     1      45.661   5.326  15.155  0.00  0.00    +0.000 HD
ATOM     33  H   UNL     1      47.151   5.364  14.534  0.00  0.00    +0.000 HD
ENDBRANCH   1  31
TORSDOF 7
ENDMDL
MODEL 6
REMARK VINA RESULT:    -7.724      2.362      3.387
REMARK INTER + INTRA:         -11.675
REMARK INTER:                 -10.672
REMARK INTRA:                  -1.003
REMARK UNBOUND:                -1.016
REMARK  Name = 
REMARK  7 active torsions:
REMARK  status: ('A' for Active; 'I' for Inactive)
REMARK    1  A    between atoms: N_1  and  C_2
REMARK    2  A    between atoms: C_2  and  N_3
REMARK    3  A    between atoms: C_2  and  C_16
REMARK    4  A    between atoms: C_4  and  C_6
REMARK    5  A    between atoms: C_19  and  O_20
REMARK    6  A    between atoms: O_20  and  C_21
REMARK    7  A    between atoms: C_21  and  C_22
REMARK                            x       y       z     vdW  Elec       q    Type
REMARK                         _______ _______ _______ _____ _____    ______ ____
ROOT
ATOM      1  C   UNL     1      46.789   4.492  14.659  0.00  0.00    +0.000 C 
ENDROOT
BRANCH   1   2
ATOM      2  C   UNL     1      46.236   4.704  13.269  0.00  0.00    +0.000 A 
ATOM      3  C   UNL     1      46.544   5.834  12.492  0.00  0.00    +0.000 A 
ATOM      4  C   UNL     1      46.067   5.933  11.187  0.00  0.00    +0.000 A 
ATOM      5  C   UNL     1      45.303   4.893  10.691  0.00  0.00    +0.000 A 
ATOM      6  N   UNL     1      44.952   3.809  11.418  0.00  0.00    +0.000 NA
ATOM      7  C   UNL     1      45.427   3.739  12.682  0.00  0.00    +0.000 A 
BRANCH   5   8
ATOM      8  O   UNL     1      44.878   4.991   9.381  0.00  0.00    +0.000 OA
BRANCH   8   9
ATOM      9  C   UNL     1      44.458   3.719   8.877  0.00  0.00    +0.000 C 
BRANCH   9  10
ATOM     10  C   UNL     1      45.610   2.972   8.257  0.00  0.00    +0.000 A 
ATOM     11  C   UNL     1      45.727   1.586   8.412  0.00  0.00    +0.000 A 
ATOM     12  C   UNL     1      46.744   0.898   7.759  0.00  0.00    +0.000 A 
ATOM     13  C   UNL     1      47.614   1.619   6.959  0.00  0.00    +0.000 A 
ATOM     14  N   UNL     1      47.530   2.954   6.775  0.00  0.00    +0.000 NA
ATOM     15  C   UNL     1      46.530   3.598   7.424  0.00  0.00    +0.000 A 
ENDBRANCH   9  10
ENDBRANCH   8   9
ENDBRANCH   5   8
ENDBRANCH   1   2
BRANCH   1  16
ATOM     16  N   UNL     1      47.774   5.480  14.981  0.00  0.00    +0.000 N 
ATOM     17  C   UNL     1      48.227   5.695  16.261  0.00  0.00    +0.000 C 
ATOM     18  O   UNL     1      47.917   4.967  17.200  0.00  0.00    +0.000 OA
ATOM     19  H   UNL     1      47.756   6.295  14.377  0.00  0.00    +0.000 HD
BRANCH  17  20
ATOM     20  C   UNL     1      49.214   6.767  16.415  0.00  0.00    +0.000 A 
ATOM     21  C   UNL     1      48.847   8.085  16.182  0.00  0.00    +0.000 A 
ATOM     22  S   UNL     1      50.095   9.204  16.499  0.00  0.00    +0.000 S 
ATOM     23  C   UNL     1      51.184   7.960  16.905  0.00  0.00    +0.000 A 
ATOM     24  N   UNL     1      52.466   8.235  17.268  0.00  0.00    +0.000 NA
ATOM     25  C   UNL     1      53.186   7.192  17.512  0.00  0.00    +0.000 A 
ATOM     26  N   UNL     1      52.741   5.896  17.433  0.00  0.00    +0.000 N 
ATOM     27  C   UNL     1      51.445   5.573  17.104  0.00  0.00    +0.000 A 
ATOM     28  O   UNL     1      51.052   4.411  17.086  0.00  0.00    +0.000 OA
ATOM     29  C   UNL     1      50.598   6.711  16.810  0.00  0.00    +0.000 A 
ATOM     30  H   UNL     1      53.357   5.125  17.645  0.00  0.00    +0.000 HD
ENDBRANCH  17  20
ENDBRANCH   1  16
BRANCH   1  31
ATOM     31  N   UNL     1      47.454   3.207  14.729  0.00  0.00    +0.000 NA
ATOM     32  H   UNL     1      46.819   2.532  14.294  0.00  0.00    +0.000 HD
ATOM     33  H   UNL     1      47.494   2.930  15.706  0.00  0.00    +0.000 HD
ENDBRANCH   1  31
TORSDOF 7
ENDMDL
MODEL 7
REMARK VINA RESULT:    -7.663      1.632      1.918
REMARK INTER + INTRA:         -11.591
REMARK INTER:                 -10.292
REMARK INTRA:                  -1.299
REMARK UNBOUND:                -1.016
REMARK  Name = 
REMARK  7 active torsions:
REMARK  status: ('A' for Active; 'I' for Inactive)
REMARK    1  A    between atoms: N_1  and  C_2
REMARK    2  A    between atoms: C_2  and  N_3
REMARK    3  A    between atoms: C_2  and  C_16
REMARK    4  A    between atoms: C_4  and  C_6
REMARK    5  A    between atoms: C_19  and  O_20
REMARK    6  A    between atoms: O_20  and  C_21
REMARK    7  A    between atoms: C_21  and  C_22
REMARK                            x       y       z     vdW  Elec       q    Type
REMARK                         _______ _______ _______ _____ _____    ______ ____
ROOT
ATOM      1  C   UNL     1      47.450   7.846  13.180  0.00  0.00    +0.000 C 
ENDROOT
BRANCH   1   2
ATOM      2  C   UNL     1      46.582   6.759  12.593  0.00  0.00    +0.000 A 
ATOM      3  C   UNL     1      45.740   6.972  11.488  0.00  0.00    +0.000 A 
ATOM      4  C   UNL     1      45.023   5.909  10.943  0.00  0.00    +0.000 A 
ATOM      5  C   UNL     1      45.177   4.658  11.513  0.00  0.00    +0.000 A 
ATOM      6  N   UNL     1      45.944   4.420  12.599  0.00  0.00    +0.000 NA
ATOM      7  C   UNL     1      46.628   5.469  13.109  0.00  0.00    +0.000 A 
BRANCH   5   8
ATOM      8  O   UNL     1      44.492   3.611  10.929  0.00  0.00    +0.000 OA
BRANCH   8   9
ATOM      9  C   UNL     1      44.246   3.864   9.542  0.00  0.00    +0.000 C 
BRANCH   9  10
ATOM     10  C   UNL     1      45.215   3.110   8.670  0.00  0.00    +0.000 A 
ATOM     11  C   UNL     1      46.012   3.787   7.741  0.00  0.00    +0.000 A 
ATOM     12  C   UNL     1      46.967   3.089   7.007  0.00  0.00    +0.000 A 
ATOM     13  C   UNL     1      47.101   1.730   7.233  0.00  0.00    +0.000 A 
ATOM     14  N   UNL     1      46.359   1.041   8.126  0.00  0.00    +0.000 NA
ATOM     15  C   UNL     1      45.438   1.747   8.826  0.00  0.00    +0.000 A 
ENDBRANCH   9  10
ENDBRANCH   8   9
ENDBRANCH   5   8
ENDBRANCH   1   2
BRANCH   1  16
ATOM     16  N   UNL     1      48.486   7.296  14.000  0.00  0.00    +0.000 N 
ATOM     17  C   UNL     1      49.394   8.073  14.679  0.00  0.00    +0.000 C 
ATOM     18  O   UNL     1      49.302   9.296  14.736  0.00  0.00    +0.000 OA
ATOM     19  H   UNL     1      48.826   6.392  13.688  0.00  0.00    +0.000 HD
BRANCH  17  20
ATOM     20  C   UNL     1      50.407   7.345  15.448  0.00  0.00    +0.000 A 
ATOM     21  C   UNL     1      51.747   7.686  15.326  0.00  0.00    +0.000 A 
ATOM     22  S   UNL     1      52.772   6.797  16.361  0.00  0.00    +0.000 S 
ATOM     23  C   UNL     1      51.466   5.887  16.965  0.00  0.00    +0.000 A 
ATOM     24  N   UNL     1      51.655   4.915  17.897  0.00  0.00    +0.000 NA
ATOM     25  C   UNL     1      50.580   4.285  18.235  0.00  0.00    +0.000 A 
ATOM     26  N   UNL     1      49.330   4.540  17.730  0.00  0.00    +0.000 N 
ATOM     27  C   UNL     1      49.088   5.534  16.811  0.00  0.00    +0.000 A 
ATOM     28  O   UNL     1      47.955   5.781  16.406  0.00  0.00    +0.000 OA
ATOM     29  C   UNL     1      50.265   6.266  16.392  0.00  0.00    +0.000 A 
ATOM     30  H   UNL     1      48.529   4.011  18.043  0.00  0.00    +0.000 HD
ENDBRANCH  17  20
ENDBRANCH   1  16
BRANCH   1  31
ATOM     31  N   UNL     1      46.652   8.699  14.037  0.00  0.00    +0.000 NA
ATOM     32  H   UNL     1      47.190   9.560  14.163  0.00  0.00    +0.000 HD
ATOM     33  H   UNL     1      46.624   8.274  14.960  0.00  0.00    +0.000 HD
ENDBRANCH   1  31
TORSDOF 7
ENDMDL
MODEL 8
REMARK VINA RESULT:    -7.580      2.841      4.730
REMARK INTER + INTRA:         -11.477
REMARK INTER:                 -10.191
REMARK INTRA:                  -1.286
REMARK UNBOUND:                -1.016
REMARK  Name = 
REMARK  7 active torsions:
REMARK  status: ('A' for Active; 'I' for Inactive)
REMARK    1  A    between atoms: N_1  and  C_2
REMARK    2  A    between atoms: C_2  and  N_3
REMARK    3  A    between atoms: C_2  and  C_16
REMARK    4  A    between atoms: C_4  and  C_6
REMARK    5  A    between atoms: C_19  and  O_20
REMARK    6  A    between atoms: O_20  and  C_21
REMARK    7  A    between atoms: C_21  and  C_22
REMARK                            x       y       z     vdW  Elec       q    Type
REMARK                         _______ _______ _______ _____ _____    ______ ____
ROOT
ATOM      1  C   UNL     1      47.220   5.967  14.129  0.00  0.00    +0.000 C 
ENDROOT
BRANCH   1   2
ATOM      2  C   UNL     1      46.445   5.267  13.038  0.00  0.00    +0.000 A 
ATOM      3  C   UNL     1      45.903   3.980  13.196  0.00  0.00    +0.000 A 
ATOM      4  C   UNL     1      45.130   3.420  12.181  0.00  0.00    +0.000 A 
ATOM      5  C   UNL     1      44.912   4.168  11.039  0.00  0.00    +0.000 A 
ATOM      6  N   UNL     1      45.447   5.391  10.832  0.00  0.00    +0.000 NA
ATOM      7  C   UNL     1      46.195   5.911  11.832  0.00  0.00    +0.000 A 
BRANCH   5   8
ATOM      8  O   UNL     1      44.106   3.612  10.065  0.00  0.00    +0.000 OA
BRANCH   8   9
ATOM      9  C   UNL     1      44.491   4.058   8.761  0.00  0.00    +0.000 C 
BRANCH   9  10
ATOM     10  C   UNL     1      45.429   3.078   8.106  0.00  0.00    +0.000 A 
ATOM     11  C   UNL     1      46.256   3.480   7.051  0.00  0.00    +0.000 A 
ATOM     12  C   UNL     1      47.182   2.589   6.517  0.00  0.00    +0.000 A 
ATOM     13  C   UNL     1      47.258   1.319   7.062  0.00  0.00    +0.000 A 
ATOM     14  N   UNL     1      46.486   0.895   8.085  0.00  0.00    +0.000 NA
ATOM     15  C   UNL     1      45.594   1.784   8.585  0.00  0.00    +0.000 A 
ENDBRANCH   9  10
ENDBRANCH   8   9
ENDBRANCH   5   8
ENDBRANCH   1   2
BRANCH   1  16
ATOM     16  N   UNL     1      48.244   6.804  13.583  0.00  0.00    +0.000 N 
ATOM     17  C   UNL     1      48.919   7.742  14.328  0.00  0.00    +0.000 C 
ATOM     18  O   UNL     1      48.784   7.838  15.544  0.00  0.00    +0.000 OA
ATOM     19  H   UNL     1      48.115   7.030  12.602  0.00  0.00    +0.000 HD
BRANCH  17  20
ATOM     20  C   UNL     1      49.915   8.535  13.602  0.00  0.00    +0.000 A 
ATOM     21  C   UNL     1      51.257   8.442  13.944  0.00  0.00    +0.000 A 
ATOM     22  S   UNL     1      52.280   9.363  12.936  0.00  0.00    +0.000 S 
ATOM     23  C   UNL     1      50.959   9.959  12.043  0.00  0.00    +0.000 A 
ATOM     24  N   UNL     1      51.138  10.830  11.015  0.00  0.00    +0.000 NA
ATOM     25  C   UNL     1      50.044  11.225  10.454  0.00  0.00    +0.000 A 
ATOM     26  N   UNL     1      48.785  10.823  10.823  0.00  0.00    +0.000 N 
ATOM     27  C   UNL     1      48.559   9.919  11.834  0.00  0.00    +0.000 A 
ATOM     28  O   UNL     1      47.429   9.534  12.119  0.00  0.00    +0.000 OA
ATOM     29  C   UNL     1      49.756   9.453  12.503  0.00  0.00    +0.000 A 
ATOM     30  H   UNL     1      47.970  11.167  10.336  0.00  0.00    +0.000 HD
ENDBRANCH  17  20
ENDBRANCH   1  16
BRANCH   1  31
ATOM     31  N   UNL     1      47.887   4.985  14.960  0.00  0.00    +0.000 NA
ATOM     32  H   UNL     1      48.890   5.162  14.861  0.00  0.00    +0.000 HD
ATOM     33  H   UNL     1      47.743   4.072  14.540  0.00  0.00    +0.000 HD
ENDBRANCH   1  31
TORSDOF 7
ENDMDL
MODEL 9
REMARK VINA RESULT:    -7.176      3.768      9.039
REMARK INTER + INTRA:         -10.919
REMARK INTER:                  -9.911
REMARK INTRA:                  -1.008
REMARK UNBOUND:                -1.016
REMARK  Name = 
REMARK  7 active torsions:
REMARK  status: ('A' for Active; 'I' for Inactive)
REMARK    1  A    between atoms: N_1  and  C_2
REMARK    2  A    between atoms: C_2  and  N_3
REMARK    3  A    between atoms: C_2  and  C_16
REMARK    4  A    between atoms: C_4  and  C_6
REMARK    5  A    between atoms: C_19  and  O_20
REMARK    6  A    between atoms: O_20  and  C_21
REMARK    7  A    between atoms: C_21  and  C_22
REMARK                            x       y       z     vdW  Elec       q    Type
REMARK                         _______ _______ _______ _____ _____    ______ ____
ROOT
ATOM      1  C   UNL     1      47.516   3.632  16.580  0.00  0.00    +0.000 C 
ENDROOT
BRANCH   1   2
ATOM      2  C   UNL     1      48.510   4.356  17.458  0.00  0.00    +0.000 A 
ATOM      3  C   UNL     1      48.748   3.994  18.795  0.00  0.00    +0.000 A 
ATOM      4  C   UNL     1      49.734   4.649  19.529  0.00  0.00    +0.000 A 
ATOM      5  C   UNL     1      50.464   5.640  18.900  0.00  0.00    +0.000 A 
ATOM      6  N   UNL     1      50.240   6.044  17.631  0.00  0.00    +0.000 NA
ATOM      7  C   UNL     1      49.275   5.394  16.941  0.00  0.00    +0.000 A 
BRANCH   5   8
ATOM      8  O   UNL     1      51.467   6.245  19.633  0.00  0.00    +0.000 OA
BRANCH   8   9
ATOM      9  C   UNL     1      52.734   6.114  18.979  0.00  0.00    +0.000 C 
BRANCH   9  10
ATOM     10  C   UNL     1      53.205   4.684  18.986  0.00  0.00    +0.000 A 
ATOM     11  C   UNL     1      53.523   4.032  17.790  0.00  0.00    +0.000 A 
ATOM     12  C   UNL     1      54.043   2.742  17.819  0.00  0.00    +0.000 A 
ATOM     13  C   UNL     1      54.237   2.142  19.051  0.00  0.00    +0.000 A 
ATOM     14  N   UNL     1      53.952   2.739  20.228  0.00  0.00    +0.000 NA
ATOM     15  C   UNL     1      53.448   3.995  20.169  0.00  0.00    +0.000 A 
ENDBRANCH   9  10
ENDBRANCH   8   9
ENDBRANCH   5   8
ENDBRANCH   1   2
BRANCH   1  16
ATOM     16  N   UNL     1      46.899   4.527  15.648  0.00  0.00    +0.000 N 
ATOM     17  C   UNL     1      46.833   4.272  14.300  0.00  0.00    +0.000 C 
ATOM     18  O   UNL     1      47.181   3.199  13.814  0.00  0.00    +0.000 OA
ATOM     19  H   UNL     1      46.962   5.506  15.910  0.00  0.00    +0.000 HD
BRANCH  17  20
ATOM     20  C   UNL     1      46.194   5.310  13.486  0.00  0.00    +0.000 A 
ATOM     21  C   UNL     1      46.864   6.498  13.228  0.00  0.00    +0.000 A 
ATOM     22  S   UNL     1      46.008   7.549  12.191  0.00  0.00    +0.000 S 
ATOM     23  C   UNL     1      44.689   6.477  12.099  0.00  0.00    +0.000 A 
ATOM     24  N   UNL     1      43.584   6.779  11.367  0.00  0.00    +0.000 NA
ATOM     25  C   UNL     1      42.650   5.889  11.419  0.00  0.00    +0.000 A 
ATOM     26  N   UNL     1      42.722   4.718  12.132  0.00  0.00    +0.000 N 
ATOM     27  C   UNL     1      43.833   4.357  12.858  0.00  0.00    +0.000 A 
ATOM     28  O   UNL     1      43.898   3.284  13.451  0.00  0.00    +0.000 OA
ATOM     29  C   UNL     1      44.906   5.329  12.840  0.00  0.00    +0.000 A 
ATOM     30  H   UNL     1      41.956   4.061  12.124  0.00  0.00    +0.000 HD
ENDBRANCH  17  20
ENDBRANCH   1  16
BRANCH   1  31
ATOM     31  N   UNL     1      46.451   3.086  17.397  0.00  0.00    +0.000 NA
ATOM     32  H   UNL     1      46.089   2.275  16.889  0.00  0.00    +0.000 HD
ATOM     33  H   UNL     1      45.685   3.754  17.397  0.00  0.00    +0.000 HD
ENDBRANCH   1  31
TORSDOF 7
ENDMDL
