MODEL 1
REMARK VINA RESULT:    -7.925      0.000      0.000
REMARK INTER + INTRA:         -11.333
REMARK INTER:                 -10.242
REMARK INTRA:                  -1.091
REMARK UNBOUND:                -1.091
REMARK  Name = 
REMARK  7 active torsions:
REMARK  status: ('A' for Active; 'I' for Inactive)
REMARK    1  A    between atoms: C_1  and  C_2
REMARK    2  A    between atoms: C_5  and  C_6
REMARK    3  A    between atoms: C_6  and  C_7
REMARK    4  A    between atoms: C_10  and  C_11
REMARK    5  A    between atoms: C_11  and  N_12
REMARK    6  A    between atoms: C_13  and  C_15
REMARK    7  A    between atoms: N_21  and  C_22
REMARK                            x       y       z     vdW  Elec       q    Type
REMARK                         _______ _______ _______ _____ _____    ______ ____
ROOT
ATOM      1  C   UNL     1      47.154   8.628  13.439  0.00  0.00    +0.000 C 
ENDROOT
BRANCH   1   5
ATOM      2  C   UNL     1      44.897   5.679  11.333  0.00  0.00    +0.000 A 
ATOM      3  C   UNL     1      46.020   5.270  12.048  0.00  0.00    +0.000 A 
ATOM      4  C   UNL     1      46.776   6.227  12.727  0.00  0.00    +0.000 A 
ATOM      5  C   UNL     1      46.401   7.570  12.682  0.00  0.00    +0.000 A 
ATOM      6  C   UNL     1      45.249   7.880  11.968  0.00  0.00    +0.000 A 
ATOM      7  N   UNL     1      44.500   6.975  11.292  0.00  0.00    +0.000 NA
BRANCH   2   8
ATOM      8  C   UNL     1      44.072   4.679  10.555  0.00  0.00    +0.000 C 
BRANCH   8  13
ATOM      9  C   UNL     1      47.273   1.914   6.639  0.00  0.00    +0.000 C 
ATOM     10  C   UNL     1      46.380   2.586   7.638  0.00  0.00    +0.000 A 
ATOM     11  C   UNL     1      45.685   1.844   8.588  0.00  0.00    +0.000 A 
ATOM     12  C   UNL     1      44.901   2.513   9.527  0.00  0.00    +0.000 A 
ATOM     13  C   UNL     1      44.823   3.908   9.501  0.00  0.00    +0.000 A 
ATOM     14  C   UNL     1      45.534   4.561   8.500  0.00  0.00    +0.000 A 
ATOM     15  N   UNL     1      46.300   3.935   7.574  0.00  0.00    +0.000 NA
ENDBRANCH   8  13
ENDBRANCH   2   8
ENDBRANCH   1   5
BRANCH   1  16
ATOM     16  N   UNL     1      47.505   8.150  14.750  0.00  0.00    +0.000 N 
ATOM     17  C   UNL     1      48.790   8.198  15.231  0.00  0.00    +0.000 C 
ATOM     18  O   UNL     1      49.744   8.502  14.521  0.00  0.00    +0.000 OA
ATOM     19  H   UNL     1      46.748   8.118  15.423  0.00  0.00    +0.000 HD
BRANCH  17  20
ATOM     20  C   UNL     1      48.959   7.818  16.641  0.00  0.00    +0.000 A 
ATOM     21  C   UNL     1      49.291   8.776  17.589  0.00  0.00    +0.000 A 
ATOM     22  S   UNL     1      49.494   8.137  19.159  0.00  0.00    +0.000 S 
ATOM     23  C   UNL     1      49.092   6.568  18.636  0.00  0.00    +0.000 A 
ATOM     24  N   UNL     1      49.056   5.526  19.506  0.00  0.00    +0.000 NA
ATOM     25  C   UNL     1      48.718   4.394  18.977  0.00  0.00    +0.000 A 
ATOM     26  N   UNL     1      48.404   4.196  17.647  0.00  0.00    +0.000 N 
ATOM     27  C   UNL     1      48.049   2.881  17.153  0.00  0.00    +0.000 C 
ATOM     28  C   UNL     1      48.435   5.241  16.733  0.00  0.00    +0.000 A 
ATOM     29  O   UNL     1      48.174   5.088  15.542  0.00  0.00    +0.000 OA
ATOM     30  C   UNL     1      48.821   6.528  17.284  0.00  0.00    +0.000 A 
ENDBRANCH  17  20
ENDBRANCH   1  16
TORSDOF 5
ENDMDL
MODEL 2
REMARK VINA RESULT:    -7.322      2.321      3.554
REMARK INTER + INTRA:         -10.554
REMARK INTER:                  -9.658
REMARK INTRA:                  -0.897
REMARK UNBOUND:                -1.091
REMARK  Name = 
REMARK  7 active torsions:
REMARK  status: ('A' for Active; 'I' for Inactive)
REMARK    1  A    between atoms: C_1  and  C_2
REMARK    2  A    between atoms: C_5  and  C_6
REMARK    3  A    between atoms: C_6  and  C_7
REMARK    4  A    between atoms: C_10  and  C_11
REMARK    5  A    between atoms: C_11  and  N_12
REMARK    6  A    between atoms: C_13  and  C_15
REMARK    7  A    between atoms: N_21  and  C_22
REMARK                            x       y       z     vdW  Elec       q    Type
REMARK                         _______ _______ _______ _____ _____    ______ ____
ROOT
ATOM      1  C   UNL     1      47.577   4.791  15.244  0.00  0.00    +0.000 C 
ENDROOT
BRANCH   1   5
ATOM      2  C   UNL     1      45.196   4.157  11.758  0.00  0.00    +0.000 A 
ATOM      3  C   UNL     1      45.485   5.466  12.135  0.00  0.00    +0.000 A 
ATOM      4  C   UNL     1      46.249   5.687  13.281  0.00  0.00    +0.000 A 
ATOM      5  C   UNL     1      46.709   4.604  14.031  0.00  0.00    +0.000 A 
ATOM      6  C   UNL     1      46.395   3.333  13.561  0.00  0.00    +0.000 A 
ATOM      7  N   UNL     1      45.649   3.087  12.457  0.00  0.00    +0.000 NA
BRANCH   2   8
ATOM      8  C   UNL     1      44.342   3.875  10.542  0.00  0.00    +0.000 C 
BRANCH   8  13
ATOM      9  C   UNL     1      47.533   2.433   5.965  0.00  0.00    +0.000 C 
ATOM     10  C   UNL     1      46.649   2.754   7.131  0.00  0.00    +0.000 A 
ATOM     11  C   UNL     1      46.179   1.749   7.971  0.00  0.00    +0.000 A 
ATOM     12  C   UNL     1      45.397   2.099   9.070  0.00  0.00    +0.000 A 
ATOM     13  C   UNL     1      45.097   3.441   9.313  0.00  0.00    +0.000 A 
ATOM     14  C   UNL     1      45.592   4.372   8.406  0.00  0.00    +0.000 A 
ATOM     15  N   UNL     1      46.351   4.059   7.328  0.00  0.00    +0.000 NA
ENDBRANCH   8  13
ENDBRANCH   2   8
ENDBRANCH   1   5
BRANCH   1  16
ATOM     16  N   UNL     1      47.821   6.192  15.472  0.00  0.00    +0.000 N 
ATOM     17  C   UNL     1      49.052   6.673  15.840  0.00  0.00    +0.000 C 
ATOM     18  O   UNL     1      49.979   5.932  16.153  0.00  0.00    +0.000 OA
ATOM     19  H   UNL     1      47.180   6.829  15.013  0.00  0.00    +0.000 HD
BRANCH  17  20
ATOM     20  C   UNL     1      49.179   8.137  15.881  0.00  0.00    +0.000 A 
ATOM     21  C   UNL     1      49.835   8.811  14.861  0.00  0.00    +0.000 A 
ATOM     22  S   UNL     1      49.926  10.498  15.108  0.00  0.00    +0.000 S 
ATOM     23  C   UNL     1      49.043  10.392  16.560  0.00  0.00    +0.000 A 
ATOM     24  N   UNL     1      48.746  11.501  17.284  0.00  0.00    +0.000 NA
ATOM     25  C   UNL     1      48.055  11.276  18.356  0.00  0.00    +0.000 A 
ATOM     26  N   UNL     1      47.623  10.037  18.781  0.00  0.00    +0.000 N 
ATOM     27  C   UNL     1      46.862   9.892  20.006  0.00  0.00    +0.000 C 
ATOM     28  C   UNL     1      47.913   8.883  18.064  0.00  0.00    +0.000 A 
ATOM     29  O   UNL     1      47.552   7.767  18.429  0.00  0.00    +0.000 OA
ATOM     30  C   UNL     1      48.697   9.090  16.859  0.00  0.00    +0.000 A 
ENDBRANCH  17  20
ENDBRANCH   1  16
TORSDOF 5
ENDMDL
MODEL 3
REMARK VINA RESULT:    -7.289      2.009      3.892
REMARK INTER + INTRA:         -10.510
REMARK INTER:                  -9.418
REMARK INTRA:                  -1.093
REMARK UNBOUND:                -1.091
REMARK  Name = 
REMARK  7 active torsions:
REMARK  status: ('A' for Active; 'I' for Inactive)
REMARK    1  A    between atoms: C_1  and  C_2
REMARK    2  A    between atoms: C_5  and  C_6
REMARK    3  A    between atoms: C_6  and  C_7
REMARK    4  A    between atoms: C_10  and  C_11
REMARK    5  A    between atoms: C_11  and  N_12
REMARK    6  A    between atoms: C_13  and  C_15
REMARK    7  A    between atoms: N_21  and  C_22
REMARK                            x       y       z     vdW  Elec       q    Type
REMARK                         _______ _______ _______ _____ _____    ______ ____
ROOT
ATOM      1  C   UNL     1      47.465   4.599  15.405  0.00  0.00    +0.000 C 
ENDROOT
BRANCH   1   5
ATOM      2  C   UNL     1      45.117   4.204  11.862  0.00  0.00    +0.000 A 
ATOM      3  C   UNL     1      45.308   5.477  12.393  0.00  0.00    +0.000 A 
ATOM      4  C   UNL     1      46.060   5.618  13.560  0.00  0.00    +0.000 A 
ATOM      5  C   UNL     1      46.606   4.492  14.176  0.00  0.00    +0.000 A 
ATOM      6  C   UNL     1      46.387   3.266  13.557  0.00  0.00    +0.000 A 
ATOM      7  N   UNL     1      45.655   3.097  12.429  0.00  0.00    +0.000 NA
BRANCH   2   8
ATOM      8  C   UNL     1      44.279   4.004  10.619  0.00  0.00    +0.000 C 
BRANCH   8  13
ATOM      9  C   UNL     1      47.496   2.513   6.075  0.00  0.00    +0.000 C 
ATOM     10  C   UNL     1      46.604   2.850   7.230  0.00  0.00    +0.000 A 
ATOM     11  C   UNL     1      46.078   1.850   8.044  0.00  0.00    +0.000 A 
ATOM     12  C   UNL     1      45.290   2.212   9.135  0.00  0.00    +0.000 A 
ATOM     13  C   UNL     1      45.039   3.561   9.396  0.00  0.00    +0.000 A 
ATOM     14  C   UNL     1      45.588   4.487   8.514  0.00  0.00    +0.000 A 
ATOM     15  N   UNL     1      46.354   4.162   7.445  0.00  0.00    +0.000 NA
ENDBRANCH   8  13
ENDBRANCH   2   8
ENDBRANCH   1   5
BRANCH   1  16
ATOM     16  N   UNL     1      47.863   5.966  15.618  0.00  0.00    +0.000 N 
ATOM     17  C   UNL     1      49.082   6.302  16.153  0.00  0.00    +0.000 C 
ATOM     18  O   UNL     1      49.841   5.464  16.630  0.00  0.00    +0.000 OA
ATOM     19  H   UNL     1      47.391   6.655  15.044  0.00  0.00    +0.000 HD
BRANCH  17  20
ATOM     20  C   UNL     1      49.402   7.737  16.161  0.00  0.00    +0.000 A 
ATOM     21  C   UNL     1      49.641   8.394  17.359  0.00  0.00    +0.000 A 
ATOM     22  S   UNL     1      49.946  10.063  17.172  0.00  0.00    +0.000 S 
ATOM     23  C   UNL     1      49.821   9.955  15.478  0.00  0.00    +0.000 A 
ATOM     24  N   UNL     1      49.998  11.047  14.690  0.00  0.00    +0.000 NA
ATOM     25  C   UNL     1      49.892  10.817  13.420  0.00  0.00    +0.000 A 
ATOM     26  N   UNL     1      49.628   9.589  12.850  0.00  0.00    +0.000 N 
ATOM     27  C   UNL     1      49.519   9.441  11.412  0.00  0.00    +0.000 C 
ATOM     28  C   UNL     1      49.439   8.454  13.629  0.00  0.00    +0.000 A 
ATOM     29  O   UNL     1      49.189   7.352  13.147  0.00  0.00    +0.000 OA
ATOM     30  C   UNL     1      49.538   8.670  15.062  0.00  0.00    +0.000 A 
ENDBRANCH  17  20
ENDBRANCH   1  16
TORSDOF 5
ENDMDL
MODEL 4
REMARK VINA RESULT:    -7.006      2.177      2.530
REMARK INTER + INTRA:         -10.145
REMARK INTER:                  -9.235
REMARK INTRA:                  -0.910
REMARK UNBOUND:                -1.091
REMARK  Name = 
REMARK  7 active torsions:
REMARK  status: ('A' for Active; 'I' for Inactive)
REMARK    1  A    between atoms: C_1  and  C_2
REMARK    2  A    between atoms: C_5  and  C_6
REMARK    3  A    between atoms: C_6  and  C_7
REMARK    4  A    between atoms: C_10  and  C_11
REMARK    5  A    between atoms: C_11  and  N_12
REMARK    6  A    between atoms: C_13  and  C_15
REMARK    7  A    between atoms: N_21  and  C_22
REMARK                            x       y       z     vdW  Elec       q    Type
REMARK                         _______ _______ _______ _____ _____    ______ ____
ROOT
ATOM      1  C   UNL     1      46.533   8.362  13.405  0.00  0.00    +0.000 C 
ENDROOT
BRANCH   1   5
ATOM      2  C   UNL     1      44.745   5.119  11.281  0.00  0.00    +0.000 A 
ATOM      3  C   UNL     1      45.731   4.833  12.222  0.00  0.00    +0.000 A 
ATOM      4  C   UNL     1      46.334   5.885  12.912  0.00  0.00    +0.000 A 
ATOM      5  C   UNL     1      45.947   7.200  12.652  0.00  0.00    +0.000 A 
ATOM      6  C   UNL     1      44.935   7.387  11.716  0.00  0.00    +0.000 A 
ATOM      7  N   UNL     1      44.337   6.386  11.026  0.00  0.00    +0.000 NA
BRANCH   2   8
ATOM      8  C   UNL     1      44.091   4.010  10.486  0.00  0.00    +0.000 C 
BRANCH   8  13
ATOM      9  C   UNL     1      47.514   2.186   6.223  0.00  0.00    +0.000 C 
ATOM     10  C   UNL     1      46.572   2.603   7.311  0.00  0.00    +0.000 A 
ATOM     11  C   UNL     1      46.089   1.679   8.232  0.00  0.00    +0.000 A 
ATOM     12  C   UNL     1      45.251   2.119   9.255  0.00  0.00    +0.000 A 
ATOM     13  C   UNL     1      44.910   3.471   9.342  0.00  0.00    +0.000 A 
ATOM     14  C   UNL     1      45.422   4.316   8.363  0.00  0.00    +0.000 A 
ATOM     15  N   UNL     1      46.235   3.913   7.356  0.00  0.00    +0.000 NA
ENDBRANCH   8  13
ENDBRANCH   2   8
ENDBRANCH   1   5
BRANCH   1  16
ATOM     16  N   UNL     1      47.942   8.159  13.618  0.00  0.00    +0.000 N 
ATOM     17  C   UNL     1      48.802   9.195  13.883  0.00  0.00    +0.000 C 
ATOM     18  O   UNL     1      48.459  10.370  13.797  0.00  0.00    +0.000 OA
ATOM     19  H   UNL     1      48.211   7.230  13.921  0.00  0.00    +0.000 HD
BRANCH  17  20
ATOM     20  C   UNL     1      50.178   8.810  14.231  0.00  0.00    +0.000 A 
ATOM     21  C   UNL     1      51.255   9.491  13.682  0.00  0.00    +0.000 A 
ATOM     22  S   UNL     1      52.770   8.869  14.164  0.00  0.00    +0.000 S 
ATOM     23  C   UNL     1      52.039   7.704  15.166  0.00  0.00    +0.000 A 
ATOM     24  N   UNL     1      52.787   6.839  15.898  0.00  0.00    +0.000 NA
ATOM     25  C   UNL     1      52.101   6.018  16.629  0.00  0.00    +0.000 A 
ATOM     26  N   UNL     1      50.724   5.978  16.705  0.00  0.00    +0.000 N 
ATOM     27  C   UNL     1      50.052   5.009  17.548  0.00  0.00    +0.000 C 
ATOM     28  C   UNL     1      49.931   6.847  15.966  0.00  0.00    +0.000 A 
ATOM     29  O   UNL     1      48.704   6.822  16.005  0.00  0.00    +0.000 OA
ATOM     30  C   UNL     1      50.661   7.778  15.123  0.00  0.00    +0.000 A 
ENDBRANCH  17  20
ENDBRANCH   1  16
TORSDOF 5
ENDMDL
MODEL 5
REMARK VINA RESULT:    -6.848      4.986      7.870
REMARK INTER + INTRA:          -9.941
REMARK INTER:                  -8.991
REMARK INTRA:                  -0.950
REMARK UNBOUND:                -1.091
REMARK  Name = 
REMARK  7 active torsions:
REMARK  status: ('A' for Active; 'I' for Inactive)
REMARK    1  A    between atoms: C_1  and  C_2
REMARK    2  A    between atoms: C_5  and  C_6
REMARK    3  A    between atoms: C_6  and  C_7
REMARK    4  A    between atoms: C_10  and  C_11
REMARK    5  A    between atoms: C_11  and  N_12
REMARK    6  A    between atoms: C_13  and  C_15
REMARK    7  A    between atoms: N_21  and  C_22
REMARK                            x       y       z     vdW  Elec       q    Type
REMARK                         _______ _______ _______ _____ _____    ______ ____
ROOT
ATOM      1  C   UNL     1      46.216   8.309  12.522  0.00  0.00    +0.000 C 
ENDROOT
BRANCH   1   5
ATOM      2  C   UNL     1      50.387   8.548  11.643  0.00  0.00    +0.000 A 
ATOM      3  C   UNL     1      49.848   7.307  11.970  0.00  0.00    +0.000 A 
ATOM      4  C   UNL     1      48.489   7.218  12.274  0.00  0.00    +0.000 A 
ATOM      5  C   UNL     1      47.693   8.364  12.250  0.00  0.00    +0.000 A 
ATOM      6  C   UNL     1      48.313   9.554  11.886  0.00  0.00    +0.000 A 
ATOM      7  N   UNL     1      49.631   9.673  11.592  0.00  0.00    +0.000 NA
BRANCH   2   8
ATOM      8  C   UNL     1      51.861   8.694  11.341  0.00  0.00    +0.000 C 
BRANCH   8  13
ATOM      9  C   UNL     1      53.741   7.673   5.989  0.00  0.00    +0.000 C 
ATOM     10  C   UNL     1      53.186   7.898   7.363  0.00  0.00    +0.000 A 
ATOM     11  C   UNL     1      52.731   6.833   8.134  0.00  0.00    +0.000 A 
ATOM     12  C   UNL     1      52.266   7.083   9.424  0.00  0.00    +0.000 A 
ATOM     13  C   UNL     1      52.260   8.388   9.921  0.00  0.00    +0.000 A 
ATOM     14  C   UNL     1      52.711   9.391   9.068  0.00  0.00    +0.000 A 
ATOM     15  N   UNL     1      53.166   9.175   7.809  0.00  0.00    +0.000 NA
ENDBRANCH   8  13
ENDBRANCH   2   8
ENDBRANCH   1   5
BRANCH   1  16
ATOM     16  N   UNL     1      45.726   6.966  12.348  0.00  0.00    +0.000 N 
ATOM     17  C   UNL     1      44.658   6.673  11.537  0.00  0.00    +0.000 C 
ATOM     18  O   UNL     1      43.955   7.546  11.038  0.00  0.00    +0.000 OA
ATOM     19  H   UNL     1      46.393   6.228  12.540  0.00  0.00    +0.000 HD
BRANCH  17  20
ATOM     20  C   UNL     1      44.379   5.242  11.341  0.00  0.00    +0.000 A 
ATOM     21  C   UNL     1      43.584   4.555  12.246  0.00  0.00    +0.000 A 
ATOM     22  S   UNL     1      43.415   2.895  11.881  0.00  0.00    +0.000 S 
ATOM     23  C   UNL     1      44.355   3.051  10.470  0.00  0.00    +0.000 A 
ATOM     24  N   UNL     1      44.591   1.985   9.662  0.00  0.00    +0.000 NA
ATOM     25  C   UNL     1      45.306   2.250   8.615  0.00  0.00    +0.000 A 
ATOM     26  N   UNL     1      45.813   3.492   8.288  0.00  0.00    +0.000 N 
ATOM     27  C   UNL     1      46.613   3.679   7.095  0.00  0.00    +0.000 C 
ATOM     28  C   UNL     1      45.591   4.600   9.096  0.00  0.00    +0.000 A 
ATOM     29  O   UNL     1      46.043   5.712   8.834  0.00  0.00    +0.000 OA
ATOM     30  C   UNL     1      44.802   4.344  10.288  0.00  0.00    +0.000 A 
ENDBRANCH  17  20
ENDBRANCH   1  16
TORSDOF 5
ENDMDL
MODEL 6
REMARK VINA RESULT:    -6.522      3.002      4.317
REMARK INTER + INTRA:          -9.519
REMARK INTER:                  -8.680
REMARK INTRA:                  -0.839
REMARK UNBOUND:                -1.091
REMARK  Name = 
REMARK  7 active torsions:
REMARK  status: ('A' for Active; 'I' for Inactive)
REMARK    1  A    between atoms: C_1  and  C_2
REMARK    2  A    between atoms: C_5  and  C_6
REMARK    3  A    between atoms: C_6  and  C_7
REMARK    4  A    between atoms: C_10  and  C_11
REMARK    5  A    between atoms: C_11  and  N_12
REMARK    6  A    between atoms: C_13  and  C_15
REMARK    7  A    between atoms: N_21  and  C_22
REMARK                            x       y       z     vdW  Elec       q    Type
REMARK                         _______ _______ _______ _____ _____    ______ ____
ROOT
ATOM      1  C   UNL     1      46.648   8.329  13.426  0.00  0.00    +0.000 C 
ENDROOT
BRANCH   1   5
ATOM      2  C   UNL     1      44.842   5.126  11.256  0.00  0.00    +0.000 A 
ATOM      3  C   UNL     1      45.809   4.819  12.210  0.00  0.00    +0.000 A 
ATOM      4  C   UNL     1      46.418   5.858  12.915  0.00  0.00    +0.000 A 
ATOM      5  C   UNL     1      46.056   7.181  12.657  0.00  0.00    +0.000 A 
ATOM      6  C   UNL     1      45.061   7.388  11.708  0.00  0.00    +0.000 A 
ATOM      7  N   UNL     1      44.458   6.402  11.002  0.00  0.00    +0.000 NA
BRANCH   2   8
ATOM      8  C   UNL     1      44.184   4.033  10.445  0.00  0.00    +0.000 C 
BRANCH   8  13
ATOM      9  C   UNL     1      47.630   2.199   6.204  0.00  0.00    +0.000 C 
ATOM     10  C   UNL     1      46.680   2.622   7.283  0.00  0.00    +0.000 A 
ATOM     11  C   UNL     1      46.135   1.690   8.162  0.00  0.00    +0.000 A 
ATOM     12  C   UNL     1      45.292   2.134   9.179  0.00  0.00    +0.000 A 
ATOM     13  C   UNL     1      45.006   3.496   9.302  0.00  0.00    +0.000 A 
ATOM     14  C   UNL     1      45.579   4.348   8.364  0.00  0.00    +0.000 A 
ATOM     15  N   UNL     1      46.399   3.943   7.364  0.00  0.00    +0.000 NA
ENDBRANCH   8  13
ENDBRANCH   2   8
ENDBRANCH   1   5
BRANCH   1  16
ATOM     16  N   UNL     1      48.061   8.127  13.615  0.00  0.00    +0.000 N 
ATOM     17  C   UNL     1      48.917   9.157  13.912  0.00  0.00    +0.000 C 
ATOM     18  O   UNL     1      48.565  10.333  13.877  0.00  0.00    +0.000 OA
ATOM     19  H   UNL     1      48.339   7.188  13.877  0.00  0.00    +0.000 HD
BRANCH  17  20
ATOM     20  C   UNL     1      50.299   8.768  14.229  0.00  0.00    +0.000 A 
ATOM     21  C   UNL     1      50.652   8.437  15.529  0.00  0.00    +0.000 A 
ATOM     22  S   UNL     1      52.308   8.062  15.711  0.00  0.00    +0.000 S 
ATOM     23  C   UNL     1      52.599   8.276  14.047  0.00  0.00    +0.000 A 
ATOM     24  N   UNL     1      53.836   8.086  13.521  0.00  0.00    +0.000 NA
ATOM     25  C   UNL     1      53.910   8.266  12.241  0.00  0.00    +0.000 A 
ATOM     26  N   UNL     1      52.857   8.617  11.422  0.00  0.00    +0.000 N 
ATOM     27  C   UNL     1      53.050   8.805   9.998  0.00  0.00    +0.000 C 
ATOM     28  C   UNL     1      51.580   8.822  11.931  0.00  0.00    +0.000 A 
ATOM     29  O   UNL     1      50.629   9.149  11.225  0.00  0.00    +0.000 OA
ATOM     30  C   UNL     1      51.455   8.641  13.366  0.00  0.00    +0.000 A 
ENDBRANCH  17  20
ENDBRANCH   1  16
TORSDOF 5
ENDMDL
MODEL 7
REMARK VINA RESULT:    -6.482      2.240      2.885
REMARK INTER + INTRA:          -9.468
REMARK INTER:                  -8.385
REMARK INTRA:                  -1.083
REMARK UNBOUND:                -1.091
REMARK  Name = 
REMARK  7 active torsions:
REMARK  status: ('A' for Active; 'I' for Inactive)
REMARK    1  A    between atoms: C_1  and  C_2
REMARK    2  A    between atoms: C_5  and  C_6
REMARK    3  A    between atoms: C_6  and  C_7
REMARK    4  A    between atoms: C_10  and  C_11
REMARK    5  A    between atoms: C_11  and  N_12
REMARK    6  A    between atoms: C_13  and  C_15
REMARK    7  A    between atoms: N_21  and  C_22
REMARK                            x       y       z     vdW  Elec       q    Type
REMARK                         _______ _______ _______ _____ _____    ______ ____
ROOT
ATOM      1  C   UNL     1      50.326   8.545  13.311  0.00  0.00    +0.000 C 
ENDROOT
BRANCH   1   5
ATOM      2  C   UNL     1      46.448   7.406  11.938  0.00  0.00    +0.000 A 
ATOM      3  C   UNL     1      46.770   8.760  11.967  0.00  0.00    +0.000 A 
ATOM      4  C   UNL     1      48.029   9.147  12.428  0.00  0.00    +0.000 A 
ATOM      5  C   UNL     1      48.942   8.181  12.853  0.00  0.00    +0.000 A 
ATOM      6  C   UNL     1      48.542   6.852  12.761  0.00  0.00    +0.000 A 
ATOM      7  N   UNL     1      47.325   6.447  12.325  0.00  0.00    +0.000 NA
BRANCH   2   8
ATOM      8  C   UNL     1      45.082   6.947  11.479  0.00  0.00    +0.000 C 
BRANCH   8  13
ATOM      9  C   UNL     1      44.560   1.792   8.955  0.00  0.00    +0.000 C 
ATOM     10  C   UNL     1      44.774   3.130   9.594  0.00  0.00    +0.000 A 
ATOM     11  C   UNL     1      45.413   4.157   8.907  0.00  0.00    +0.000 A 
ATOM     12  C   UNL     1      45.550   5.400   9.523  0.00  0.00    +0.000 A 
ATOM     13  C   UNL     1      45.048   5.596  10.812  0.00  0.00    +0.000 A 
ATOM     14  C   UNL     1      44.446   4.504  11.429  0.00  0.00    +0.000 A 
ATOM     15  N   UNL     1      44.303   3.285  10.853  0.00  0.00    +0.000 NA
ENDBRANCH   8  13
ENDBRANCH   2   8
ENDBRANCH   1   5
BRANCH   1  16
ATOM     16  N   UNL     1      50.834   7.544  14.213  0.00  0.00    +0.000 N 
ATOM     17  C   UNL     1      51.182   7.830  15.509  0.00  0.00    +0.000 C 
ATOM     18  O   UNL     1      51.237   8.981  15.934  0.00  0.00    +0.000 OA
ATOM     19  H   UNL     1      50.588   6.587  13.988  0.00  0.00    +0.000 HD
BRANCH  17  20
ATOM     20  C   UNL     1      51.533   6.674  16.346  0.00  0.00    +0.000 A 
ATOM     21  C   UNL     1      52.848   6.467  16.738  0.00  0.00    +0.000 A 
ATOM     22  S   UNL     1      53.068   5.049  17.662  0.00  0.00    +0.000 S 
ATOM     23  C   UNL     1      51.404   4.691  17.616  0.00  0.00    +0.000 A 
ATOM     24  N   UNL     1      50.904   3.595  18.243  0.00  0.00    +0.000 NA
ATOM     25  C   UNL     1      49.621   3.454  18.141  0.00  0.00    +0.000 A 
ATOM     26  N   UNL     1      48.775   4.313  17.469  0.00  0.00    +0.000 N 
ATOM     27  C   UNL     1      47.350   4.058  17.405  0.00  0.00    +0.000 C 
ATOM     28  C   UNL     1      49.256   5.441  16.816  0.00  0.00    +0.000 A 
ATOM     29  O   UNL     1      48.526   6.213  16.199  0.00  0.00    +0.000 OA
ATOM     30  C   UNL     1      50.694   5.630  16.896  0.00  0.00    +0.000 A 
ENDBRANCH  17  20
ENDBRANCH   1  16
TORSDOF 5
ENDMDL
MODEL 8
REMARK VINA RESULT:    -5.731      3.335      8.050
REMARK INTER + INTRA:          -8.497
REMARK INTER:                  -7.441
REMARK INTRA:                  -1.056
REMARK UNBOUND:                -1.091
REMARK  Name = 
REMARK  7 active torsions:
REMARK  status: ('A' for Active; 'I' for Inactive)
REMARK    1  A    between atoms: C_1  and  C_2
REMARK    2  A    between atoms: C_5  and  C_6
REMARK    3  A    between atoms: C_6  and  C_7
REMARK    4  A    between atoms: C_10  and  C_11
REMARK    5  A    between atoms: C_11  and  N_12
REMARK    6  A    between atoms: C_13  and  C_15
REMARK    7  A    between atoms: N_21  and  C_22
REMARK                            x       y       z     vdW  Elec       q    Type
REMARK                         _______ _______ _______ _____ _____    ______ ____
ROOT
ATOM      1  C   UNL     1      50.123   8.212  14.128  0.00  0.00    +0.000 C 
ENDROOT
BRANCH   1   5
ATOM      2  C   UNL     1      50.494   5.400  17.319  0.00  0.00    +0.000 A 
ATOM      3  C   UNL     1      51.600   6.180  16.989  0.00  0.00    +0.000 A 
ATOM      4  C   UNL     1      51.496   7.092  15.938  0.00  0.00    +0.000 A 
ATOM      5  C   UNL     1      50.297   7.210  15.235  0.00  0.00    +0.000 A 
ATOM      6  C   UNL     1      49.239   6.411  15.654  0.00  0.00    +0.000 A 
ATOM      7  N   UNL     1      49.311   5.512  16.665  0.00  0.00    +0.000 NA
BRANCH   2   8
ATOM      8  C   UNL     1      50.575   4.376  18.428  0.00  0.00    +0.000 C 
BRANCH   8  13
ATOM      9  C   UNL     1      53.981  -0.049  17.000  0.00  0.00    +0.000 C 
ATOM     10  C   UNL     1      53.119   1.092  17.447  0.00  0.00    +0.000 A 
ATOM     11  C   UNL     1      53.651   2.143  18.189  0.00  0.00    +0.000 A 
ATOM     12  C   UNL     1      52.823   3.206  18.544  0.00  0.00    +0.000 A 
ATOM     13  C   UNL     1      51.481   3.204  18.156  0.00  0.00    +0.000 A 
ATOM     14  C   UNL     1      51.034   2.100  17.436  0.00  0.00    +0.000 A 
ATOM     15  N   UNL     1      51.817   1.052  17.081  0.00  0.00    +0.000 NA
ENDBRANCH   8  13
ENDBRANCH   2   8
ENDBRANCH   1   5
BRANCH   1  16
ATOM     16  N   UNL     1      48.747   8.255  13.706  0.00  0.00    +0.000 N 
ATOM     17  C   UNL     1      48.369   8.742  12.480  0.00  0.00    +0.000 C 
ATOM     18  O   UNL     1      49.155   9.316  11.732  0.00  0.00    +0.000 OA
ATOM     19  H   UNL     1      48.125   7.603  14.170  0.00  0.00    +0.000 HD
BRANCH  17  20
ATOM     20  C   UNL     1      46.949   8.574  12.136  0.00  0.00    +0.000 A 
ATOM     21  C   UNL     1      46.191   9.666  11.741  0.00  0.00    +0.000 A 
ATOM     22  S   UNL     1      44.556   9.285  11.433  0.00  0.00    +0.000 S 
ATOM     23  C   UNL     1      44.818   7.635  11.764  0.00  0.00    +0.000 A 
ATOM     24  N   UNL     1      43.810   6.731  11.665  0.00  0.00    +0.000 NA
ATOM     25  C   UNL     1      44.153   5.510  11.928  0.00  0.00    +0.000 A 
ATOM     26  N   UNL     1      45.422   5.097  12.281  0.00  0.00    +0.000 N 
ATOM     27  C   UNL     1      45.699   3.704  12.566  0.00  0.00    +0.000 C 
ATOM     28  C   UNL     1      46.473   5.999  12.393  0.00  0.00    +0.000 A 
ATOM     29  O   UNL     1      47.607   5.658  12.720  0.00  0.00    +0.000 OA
ATOM     30  C   UNL     1      46.127   7.382  12.118  0.00  0.00    +0.000 A 
ENDBRANCH  17  20
ENDBRANCH   1  16
TORSDOF 5
ENDMDL
MODEL 9
REMARK VINA RESULT:    -5.568      3.137      4.660
REMARK INTER + INTRA:          -8.287
REMARK INTER:                  -7.147
REMARK INTRA:                  -1.140
REMARK UNBOUND:                -1.091
REMARK  Name = 
REMARK  7 active torsions:
REMARK  status: ('A' for Active; 'I' for Inactive)
REMARK    1  A    between atoms: C_1  and  C_2
REMARK    2  A    between atoms: C_5  and  C_6
REMARK    3  A    between atoms: C_6  and  C_7
REMARK    4  A    between atoms: C_10  and  C_11
REMARK    5  A    between atoms: C_11  and  N_12
REMARK    6  A    between atoms: C_13  and  C_15
REMARK    7  A    between atoms: N_21  and  C_22
REMARK                            x       y       z     vdW  Elec       q    Type
REMARK                         _______ _______ _______ _____ _____    ______ ____
ROOT
ATOM      1  C   UNL     1      50.582   8.325  16.894  0.00  0.00    +0.000 C 
ENDROOT
BRANCH   1   5
ATOM      2  C   UNL     1      48.181   7.884  13.391  0.00  0.00    +0.000 A 
ATOM      3  C   UNL     1      47.717   8.707  14.414  0.00  0.00    +0.000 A 
ATOM      4  C   UNL     1      48.485   8.847  15.571  0.00  0.00    +0.000 A 
ATOM      5  C   UNL     1      49.697   8.166  15.689  0.00  0.00    +0.000 A 
ATOM      6  C   UNL     1      50.092   7.390  14.605  0.00  0.00    +0.000 A 
ATOM      7  N   UNL     1      49.365   7.228  13.473  0.00  0.00    +0.000 NA
BRANCH   2   8
ATOM      8  C   UNL     1      47.363   7.677  12.136  0.00  0.00    +0.000 C 
BRANCH   8  13
ATOM      9  C   UNL     1      43.424   3.470  12.052  0.00  0.00    +0.000 C 
ATOM     10  C   UNL     1      44.448   4.559  12.153  0.00  0.00    +0.000 A 
ATOM     11  C   UNL     1      45.617   4.376  12.885  0.00  0.00    +0.000 A 
ATOM     12  C   UNL     1      46.563   5.399  12.914  0.00  0.00    +0.000 A 
ATOM     13  C   UNL     1      46.327   6.585  12.217  0.00  0.00    +0.000 A 
ATOM     14  C   UNL     1      45.120   6.687  11.533  0.00  0.00    +0.000 A 
ATOM     15  N   UNL     1      44.182   5.709  11.491  0.00  0.00    +0.000 NA
ENDBRANCH   8  13
ENDBRANCH   2   8
ENDBRANCH   1   5
BRANCH   1  16
ATOM     16  N   UNL     1      51.303   7.105  17.147  0.00  0.00    +0.000 N 
ATOM     17  C   UNL     1      51.600   6.676  18.417  0.00  0.00    +0.000 C 
ATOM     18  O   UNL     1      51.413   7.379  19.406  0.00  0.00    +0.000 OA
ATOM     19  H   UNL     1      51.266   6.411  16.409  0.00  0.00    +0.000 HD
BRANCH  17  20
ATOM     20  C   UNL     1      52.201   5.338  18.515  0.00  0.00    +0.000 A 
ATOM     21  C   UNL     1      53.429   5.167  19.138  0.00  0.00    +0.000 A 
ATOM     22  S   UNL     1      53.987   3.554  19.109  0.00  0.00    +0.000 S 
ATOM     23  C   UNL     1      52.581   3.019  18.312  0.00  0.00    +0.000 A 
ATOM     24  N   UNL     1      52.407   1.710  17.999  0.00  0.00    +0.000 NA
ATOM     25  C   UNL     1      51.285   1.441  17.410  0.00  0.00    +0.000 A 
ATOM     26  N   UNL     1      50.305   2.363  17.102  0.00  0.00    +0.000 N 
ATOM     27  C   UNL     1      49.086   1.959  16.430  0.00  0.00    +0.000 C 
ATOM     28  C   UNL     1      50.455   3.710  17.407  0.00  0.00    +0.000 A 
ATOM     29  O   UNL     1      49.604   4.552  17.131  0.00  0.00    +0.000 OA
ATOM     30  C   UNL     1      51.706   4.056  18.059  0.00  0.00    +0.000 A 
ENDBRANCH  17  20
ENDBRANCH   1  16
TORSDOF 5
ENDMDL
