MODEL 1
REMARK VINA RESULT:    -7.478      0.000      0.000
REMARK INTER + INTRA:         -10.423
REMARK INTER:                  -9.883
REMARK INTRA:                  -0.540
REMARK UNBOUND:                -0.540
REMARK  Name = 
REMARK  9 active torsions:
REMARK  status: ('A' for Active; 'I' for Inactive)
REMARK    1  A    between atoms: C_1  and  C_2
REMARK    2  A    between atoms: C_2  and  C_3
REMARK    3  A    between atoms: C_2  and  C_4
REMARK    4  A    between atoms: C_2  and  C_5
REMARK    5  A    between atoms: C_7  and  O_8
REMARK    6  A    between atoms: O_8  and  C_9
REMARK    7  A    between atoms: C_9  and  C_10
REMARK    8  A    between atoms: C_14  and  C_15
REMARK    9  A    between atoms: C_15  and  N_16
REMARK                            x       y       z     vdW  Elec       q    Type
REMARK                         _______ _______ _______ _____ _____    ______ ____
ROOT
ATOM      1  O   UNL     1      44.187   4.207  11.247  0.00  0.00    +0.000 OA
ENDROOT
BRANCH   1   4
ATOM      2  C   UNL     1      47.041   5.882  12.920  0.00  0.00    +0.000 A 
ATOM      3  C   UNL     1      45.946   5.725  12.064  0.00  0.00    +0.000 A 
ATOM      4  C   UNL     1      45.282   4.501  12.016  0.00  0.00    +0.000 A 
ATOM      5  C   UNL     1      45.733   3.457  12.810  0.00  0.00    +0.000 A 
ATOM      6  C   UNL     1      46.829   3.679  13.620  0.00  0.00    +0.000 A 
ATOM      7  N   UNL     1      47.482   4.858  13.691  0.00  0.00    +0.000 NA
BRANCH   2   9
ATOM      8  C   UNL     1      48.763   7.185  14.213  0.00  0.00    +0.000 C 
ATOM      9  C   UNL     1      47.757   7.234  13.046  0.00  0.00    +0.000 C 
ATOM     10  C   UNL     1      46.742   8.367  13.291  0.00  0.00    +0.000 C 
ATOM     11  C   UNL     1      48.543   7.574  11.760  0.00  0.00    +0.000 C 
ENDBRANCH   2   9
ENDBRANCH   1   4
BRANCH   1  12
ATOM     12  C   UNL     1      44.206   2.958  10.555  0.00  0.00    +0.000 C 
BRANCH  12  13
ATOM     13  C   UNL     1      45.054   3.040   9.307  0.00  0.00    +0.000 A 
ATOM     14  C   UNL     1      45.341   4.293   8.746  0.00  0.00    +0.000 A 
ATOM     15  C   UNL     1      46.190   4.400   7.646  0.00  0.00    +0.000 A 
ATOM     16  C   UNL     1      46.773   3.258   7.099  0.00  0.00    +0.000 A 
ATOM     17  C   UNL     1      46.501   1.989   7.631  0.00  0.00    +0.000 A 
ATOM     18  C   UNL     1      45.648   1.898   8.744  0.00  0.00    +0.000 A 
BRANCH  17  19
ATOM     19  C   UNL     1      47.179   0.741   7.117  0.00  0.00    +0.000 C 
BRANCH  19  20
ATOM     20  N   UNL     1      46.769  -0.477   7.809  0.00  0.00    +0.000 NA
ATOM     21  H   UNL     1      46.367  -0.217   8.710  0.00  0.00    +0.000 HD
ATOM     22  H   UNL     1      47.596  -1.033   8.015  0.00  0.00    +0.000 HD
ENDBRANCH  19  20
ENDBRANCH  17  19
ENDBRANCH  12  13
ENDBRANCH   1  12
TORSDOF 6
ENDMDL
MODEL 2
REMARK VINA RESULT:    -6.416      1.568      2.401
REMARK INTER + INTRA:          -9.019
REMARK INTER:                  -8.249
REMARK INTRA:                  -0.770
REMARK UNBOUND:                -0.540
REMARK  Name = 
REMARK  9 active torsions:
REMARK  status: ('A' for Active; 'I' for Inactive)
REMARK    1  A    between atoms: C_1  and  C_2
REMARK    2  A    between atoms: C_2  and  C_3
REMARK    3  A    between atoms: C_2  and  C_4
REMARK    4  A    between atoms: C_2  and  C_5
REMARK    5  A    between atoms: C_7  and  O_8
REMARK    6  A    between atoms: O_8  and  C_9
REMARK    7  A    between atoms: C_9  and  C_10
REMARK    8  A    between atoms: C_14  and  C_15
REMARK    9  A    between atoms: C_15  and  N_16
REMARK                            x       y       z     vdW  Elec       q    Type
REMARK                         _______ _______ _______ _____ _____    ______ ____
ROOT
ATOM      1  O   UNL     1      44.612   5.678  12.129  0.00  0.00    +0.000 OA
ENDROOT
BRANCH   1   4
ATOM      2  C   UNL     1      48.004   6.881  13.021  0.00  0.00    +0.000 A 
ATOM      3  C   UNL     1      46.793   6.805  12.325  0.00  0.00    +0.000 A 
ATOM      4  C   UNL     1      45.844   5.855  12.699  0.00  0.00    +0.000 A 
ATOM      5  C   UNL     1      46.130   4.993  13.749  0.00  0.00    +0.000 A 
ATOM      6  C   UNL     1      47.351   5.117  14.381  0.00  0.00    +0.000 A 
ATOM      7  N   UNL     1      48.281   6.034  14.042  0.00  0.00    +0.000 NA
BRANCH   2   9
ATOM      8  C   UNL     1      48.332   9.257  12.257  0.00  0.00    +0.000 C 
ATOM      9  C   UNL     1      49.045   7.956  12.678  0.00  0.00    +0.000 C 
ATOM     10  C   UNL     1      49.962   7.481  11.534  0.00  0.00    +0.000 C 
ATOM     11  C   UNL     1      49.939   8.280  13.895  0.00  0.00    +0.000 C 
ENDBRANCH   2   9
ENDBRANCH   1   4
BRANCH   1  12
ATOM     12  C   UNL     1      44.525   5.875  10.717  0.00  0.00    +0.000 C 
BRANCH  12  13
ATOM     13  C   UNL     1      44.857   4.605   9.968  0.00  0.00    +0.000 A 
ATOM     14  C   UNL     1      44.332   3.383  10.412  0.00  0.00    +0.000 A 
ATOM     15  C   UNL     1      44.554   2.212   9.689  0.00  0.00    +0.000 A 
ATOM     16  C   UNL     1      45.293   2.249   8.508  0.00  0.00    +0.000 A 
ATOM     17  C   UNL     1      45.839   3.454   8.041  0.00  0.00    +0.000 A 
ATOM     18  C   UNL     1      45.601   4.627   8.777  0.00  0.00    +0.000 A 
BRANCH  17  19
ATOM     19  C   UNL     1      46.573   3.545   6.724  0.00  0.00    +0.000 C 
BRANCH  19  20
ATOM     20  N   UNL     1      47.881   2.897   6.736  0.00  0.00    +0.000 NA
ATOM     21  H   UNL     1      48.584   3.584   6.466  0.00  0.00    +0.000 HD
ATOM     22  H   UNL     1      47.896   2.174   6.019  0.00  0.00    +0.000 HD
ENDBRANCH  19  20
ENDBRANCH  17  19
ENDBRANCH  12  13
ENDBRANCH   1  12
TORSDOF 6
ENDMDL
MODEL 3
REMARK VINA RESULT:    -6.279      3.846      7.549
REMARK INTER + INTRA:          -8.838
REMARK INTER:                  -8.316
REMARK INTRA:                  -0.523
REMARK UNBOUND:                -0.540
REMARK  Name = 
REMARK  9 active torsions:
REMARK  status: ('A' for Active; 'I' for Inactive)
REMARK    1  A    between atoms: C_1  and  C_2
REMARK    2  A    between atoms: C_2  and  C_3
REMARK    3  A    between atoms: C_2  and  C_4
REMARK    4  A    between atoms: C_2  and  C_5
REMARK    5  A    between atoms: C_7  and  O_8
REMARK    6  A    between atoms: O_8  and  C_9
REMARK    7  A    between atoms: C_9  and  C_10
REMARK    8  A    between atoms: C_14  and  C_15
REMARK    9  A    between atoms: C_15  and  N_16
REMARK                            x       y       z     vdW  Elec       q    Type
REMARK                         _______ _______ _______ _____ _____    ______ ____
ROOT
ATOM      1  O   UNL     1      47.501   3.238  14.743  0.00  0.00    +0.000 OA
ENDROOT
BRANCH   1   4
ATOM      2  C   UNL     1      45.097   4.641  12.293  0.00  0.00    +0.000 A 
ATOM      3  C   UNL     1      45.736   3.679  13.084  0.00  0.00    +0.000 A 
ATOM      4  C   UNL     1      46.798   4.059  13.903  0.00  0.00    +0.000 A 
ATOM      5  C   UNL     1      47.208   5.385  13.905  0.00  0.00    +0.000 A 
ATOM      6  C   UNL     1      46.541   6.276  13.088  0.00  0.00    +0.000 A 
ATOM      7  N   UNL     1      45.504   5.933  12.294  0.00  0.00    +0.000 NA
BRANCH   2   9
ATOM      8  C   UNL     1      42.735   5.264  11.689  0.00  0.00    +0.000 C 
ATOM      9  C   UNL     1      43.885   4.272  11.428  0.00  0.00    +0.000 C 
ATOM     10  C   UNL     1      43.408   2.840  11.740  0.00  0.00    +0.000 C 
ATOM     11  C   UNL     1      44.230   4.335   9.923  0.00  0.00    +0.000 C 
ENDBRANCH   2   9
ENDBRANCH   1   4
BRANCH   1  12
ATOM     12  C   UNL     1      47.374   3.494  16.143  0.00  0.00    +0.000 C 
BRANCH  12  13
ATOM     13  C   UNL     1      48.729   3.574  16.807  0.00  0.00    +0.000 A 
ATOM     14  C   UNL     1      49.043   4.682  17.607  0.00  0.00    +0.000 A 
ATOM     15  C   UNL     1      50.252   4.737  18.298  0.00  0.00    +0.000 A 
ATOM     16  C   UNL     1      51.158   3.682  18.208  0.00  0.00    +0.000 A 
ATOM     17  C   UNL     1      50.878   2.563  17.411  0.00  0.00    +0.000 A 
ATOM     18  C   UNL     1      49.653   2.518  16.725  0.00  0.00    +0.000 A 
BRANCH  17  19
ATOM     19  C   UNL     1      51.798   1.366  17.356  0.00  0.00    +0.000 C 
BRANCH  19  20
ATOM     20  N   UNL     1      51.359   0.251  18.190  0.00  0.00    +0.000 NA
ATOM     21  H   UNL     1      51.803  -0.601  17.848  0.00  0.00    +0.000 HD
ATOM     22  H   UNL     1      50.358   0.122  18.065  0.00  0.00    +0.000 HD
ENDBRANCH  19  20
ENDBRANCH  17  19
ENDBRANCH  12  13
ENDBRANCH   1  12
TORSDOF 6
ENDMDL
MODEL 4
REMARK VINA RESULT:    -6.001      3.558      7.826
REMARK INTER + INTRA:          -8.471
REMARK INTER:                  -7.944
REMARK INTRA:                  -0.527
REMARK UNBOUND:                -0.540
REMARK  Name = 
REMARK  9 active torsions:
REMARK  status: ('A' for Active; 'I' for Inactive)
REMARK    1  A    between atoms: C_1  and  C_2
REMARK    2  A    between atoms: C_2  and  C_3
REMARK    3  A    between atoms: C_2  and  C_4
REMARK    4  A    between atoms: C_2  and  C_5
REMARK    5  A    between atoms: C_7  and  O_8
REMARK    6  A    between atoms: O_8  and  C_9
REMARK    7  A    between atoms: C_9  and  C_10
REMARK    8  A    between atoms: C_14  and  C_15
REMARK    9  A    between atoms: C_15  and  N_16
REMARK                            x       y       z     vdW  Elec       q    Type
REMARK                         _______ _______ _______ _____ _____    ______ ____
ROOT
ATOM      1  O   UNL     1      47.431   3.265  14.603  0.00  0.00    +0.000 OA
ENDROOT
BRANCH   1   4
ATOM      2  C   UNL     1      45.064   4.606  12.082  0.00  0.00    +0.000 A 
ATOM      3  C   UNL     1      45.664   3.674  12.937  0.00  0.00    +0.000 A 
ATOM      4  C   UNL     1      46.758   4.057  13.710  0.00  0.00    +0.000 A 
ATOM      5  C   UNL     1      47.239   5.354  13.605  0.00  0.00    +0.000 A 
ATOM      6  C   UNL     1      46.606   6.216  12.731  0.00  0.00    +0.000 A 
ATOM      7  N   UNL     1      45.540   5.871  11.978  0.00  0.00    +0.000 NA
BRANCH   2   9
ATOM      8  C   UNL     1      42.674   5.220  11.586  0.00  0.00    +0.000 C 
ATOM      9  C   UNL     1      43.819   4.239  11.264  0.00  0.00    +0.000 C 
ATOM     10  C   UNL     1      43.366   2.800  11.578  0.00  0.00    +0.000 C 
ATOM     11  C   UNL     1      44.100   4.324   9.747  0.00  0.00    +0.000 C 
ENDBRANCH   2   9
ENDBRANCH   1   4
BRANCH   1  12
ATOM     12  C   UNL     1      47.369   3.653  15.976  0.00  0.00    +0.000 C 
BRANCH  12  13
ATOM     13  C   UNL     1      48.700   3.443  16.662  0.00  0.00    +0.000 A 
ATOM     14  C   UNL     1      49.299   2.176  16.636  0.00  0.00    +0.000 A 
ATOM     15  C   UNL     1      50.564   1.979  17.186  0.00  0.00    +0.000 A 
ATOM     16  C   UNL     1      51.252   3.048  17.759  0.00  0.00    +0.000 A 
ATOM     17  C   UNL     1      50.678   4.326  17.808  0.00  0.00    +0.000 A 
ATOM     18  C   UNL     1      49.404   4.510  17.243  0.00  0.00    +0.000 A 
BRANCH  17  19
ATOM     19  C   UNL     1      51.427   5.522  18.345  0.00  0.00    +0.000 C 
BRANCH  19  20
ATOM     20  N   UNL     1      50.569   6.664  18.647  0.00  0.00    +0.000 NA
ATOM     21  H   UNL     1      49.602   6.399  18.462  0.00  0.00    +0.000 HD
ATOM     22  H   UNL     1      50.788   7.419  18.000  0.00  0.00    +0.000 HD
ENDBRANCH  19  20
ENDBRANCH  17  19
ENDBRANCH  12  13
ENDBRANCH   1  12
TORSDOF 6
ENDMDL
MODEL 5
REMARK VINA RESULT:    -5.678      3.373      7.555
REMARK INTER + INTRA:          -8.043
REMARK INTER:                  -7.373
REMARK INTRA:                  -0.670
REMARK UNBOUND:                -0.540
REMARK  Name = 
REMARK  9 active torsions:
REMARK  status: ('A' for Active; 'I' for Inactive)
REMARK    1  A    between atoms: C_1  and  C_2
REMARK    2  A    between atoms: C_2  and  C_3
REMARK    3  A    between atoms: C_2  and  C_4
REMARK    4  A    between atoms: C_2  and  C_5
REMARK    5  A    between atoms: C_7  and  O_8
REMARK    6  A    between atoms: O_8  and  C_9
REMARK    7  A    between atoms: C_9  and  C_10
REMARK    8  A    between atoms: C_14  and  C_15
REMARK    9  A    between atoms: C_15  and  N_16
REMARK                            x       y       z     vdW  Elec       q    Type
REMARK                         _______ _______ _______ _____ _____    ______ ____
ROOT
ATOM      1  O   UNL     1      48.308   6.078  13.749  0.00  0.00    +0.000 OA
ENDROOT
BRANCH   1   4
ATOM      2  C   UNL     1      45.052   5.722  12.009  0.00  0.00    +0.000 A 
ATOM      3  C   UNL     1      46.240   5.332  12.637  0.00  0.00    +0.000 A 
ATOM      4  C   UNL     1      47.124   6.306  13.098  0.00  0.00    +0.000 A 
ATOM      5  C   UNL     1      46.812   7.645  12.909  0.00  0.00    +0.000 A 
ATOM      6  C   UNL     1      45.629   7.955  12.268  0.00  0.00    +0.000 A 
ATOM      7  N   UNL     1      44.754   7.030  11.822  0.00  0.00    +0.000 NA
BRANCH   2   9
ATOM      8  C   UNL     1      44.232   3.363  12.324  0.00  0.00    +0.000 C 
ATOM      9  C   UNL     1      44.026   4.679  11.546  0.00  0.00    +0.000 C 
ATOM     10  C   UNL     1      44.167   4.408  10.035  0.00  0.00    +0.000 C 
ATOM     11  C   UNL     1      42.581   5.159  11.806  0.00  0.00    +0.000 C 
ENDBRANCH   2   9
ENDBRANCH   1   4
BRANCH   1  12
ATOM     12  C   UNL     1      48.696   7.042  14.728  0.00  0.00    +0.000 C 
BRANCH  12  13
ATOM     13  C   UNL     1      48.786   6.416  16.102  0.00  0.00    +0.000 A 
ATOM     14  C   UNL     1      49.126   7.214  17.204  0.00  0.00    +0.000 A 
ATOM     15  C   UNL     1      49.132   6.678  18.490  0.00  0.00    +0.000 A 
ATOM     16  C   UNL     1      48.787   5.343  18.694  0.00  0.00    +0.000 A 
ATOM     17  C   UNL     1      48.449   4.517  17.612  0.00  0.00    +0.000 A 
ATOM     18  C   UNL     1      48.443   5.072  16.322  0.00  0.00    +0.000 A 
BRANCH  17  19
ATOM     19  C   UNL     1      47.991   3.091  17.805  0.00  0.00    +0.000 C 
BRANCH  19  20
ATOM     20  N   UNL     1      46.542   2.926  17.730  0.00  0.00    +0.000 NA
ATOM     21  H   UNL     1      46.112   3.539  18.422  0.00  0.00    +0.000 HD
ATOM     22  H   UNL     1      46.305   1.975  18.004  0.00  0.00    +0.000 HD
ENDBRANCH  19  20
ENDBRANCH  17  19
ENDBRANCH  12  13
ENDBRANCH   1  12
TORSDOF 6
ENDMDL
MODEL 6
REMARK VINA RESULT:    -5.670      4.056      5.648
REMARK INTER + INTRA:          -8.033
REMARK INTER:                  -7.533
REMARK INTRA:                  -0.500
REMARK UNBOUND:                -0.540
REMARK  Name = 
REMARK  9 active torsions:
REMARK  status: ('A' for Active; 'I' for Inactive)
REMARK    1  A    between atoms: C_1  and  C_2
REMARK    2  A    between atoms: C_2  and  C_3
REMARK    3  A    between atoms: C_2  and  C_4
REMARK    4  A    between atoms: C_2  and  C_5
REMARK    5  A    between atoms: C_7  and  O_8
REMARK    6  A    between atoms: O_8  and  C_9
REMARK    7  A    between atoms: C_9  and  C_10
REMARK    8  A    between atoms: C_14  and  C_15
REMARK    9  A    between atoms: C_15  and  N_16
REMARK                            x       y       z     vdW  Elec       q    Type
REMARK                         _______ _______ _______ _____ _____    ______ ____
ROOT
ATOM      1  O   UNL     1      47.701   4.939  15.144  0.00  0.00    +0.000 OA
ENDROOT
BRANCH   1   4
ATOM      2  C   UNL     1      48.526   5.185  18.751  0.00  0.00    +0.000 A 
ATOM      3  C   UNL     1      48.260   5.613  17.445  0.00  0.00    +0.000 A 
ATOM      4  C   UNL     1      47.997   4.670  16.453  0.00  0.00    +0.000 A 
ATOM      5  C   UNL     1      48.018   3.322  16.781  0.00  0.00    +0.000 A 
ATOM      6  C   UNL     1      48.302   2.972  18.086  0.00  0.00    +0.000 A 
ATOM      7  N   UNL     1      48.551   3.867  19.065  0.00  0.00    +0.000 NA
BRANCH   2   9
ATOM      8  C   UNL     1      49.140   7.566  19.285  0.00  0.00    +0.000 C 
ATOM      9  C   UNL     1      48.757   6.196  19.881  0.00  0.00    +0.000 C 
ATOM     10  C   UNL     1      49.878   5.715  20.822  0.00  0.00    +0.000 C 
ATOM     11  C   UNL     1      47.481   6.392  20.729  0.00  0.00    +0.000 C 
ENDBRANCH   2   9
ENDBRANCH   1   4
BRANCH   1  12
ATOM     12  C   UNL     1      47.155   3.865  14.377  0.00  0.00    +0.000 C 
BRANCH  12  13
ATOM     13  C   UNL     1      46.355   4.384  13.204  0.00  0.00    +0.000 A 
ATOM     14  C   UNL     1      46.620   5.665  12.699  0.00  0.00    +0.000 A 
ATOM     15  C   UNL     1      45.956   6.131  11.566  0.00  0.00    +0.000 A 
ATOM     16  C   UNL     1      45.026   5.320  10.917  0.00  0.00    +0.000 A 
ATOM     17  C   UNL     1      44.731   4.038  11.402  0.00  0.00    +0.000 A 
ATOM     18  C   UNL     1      45.414   3.579  12.541  0.00  0.00    +0.000 A 
BRANCH  17  19
ATOM     19  C   UNL     1      43.793   3.102  10.677  0.00  0.00    +0.000 C 
BRANCH  19  20
ATOM     20  N   UNL     1      43.055   2.209  11.565  0.00  0.00    +0.000 NA
ATOM     21  H   UNL     1      42.129   2.605  11.726  0.00  0.00    +0.000 HD
ATOM     22  H   UNL     1      43.519   2.189  12.471  0.00  0.00    +0.000 HD
ENDBRANCH  19  20
ENDBRANCH  17  19
ENDBRANCH  12  13
ENDBRANCH   1  12
TORSDOF 6
ENDMDL
MODEL 7
REMARK VINA RESULT:    -5.631      3.448      7.685
REMARK INTER + INTRA:          -7.982
REMARK INTER:                  -7.384
REMARK INTRA:                  -0.598
REMARK UNBOUND:                -0.540
REMARK  Name = 
REMARK  9 active torsions:
REMARK  status: ('A' for Active; 'I' for Inactive)
REMARK    1  A    between atoms: C_1  and  C_2
REMARK    2  A    between atoms: C_2  and  C_3
REMARK    3  A    between atoms: C_2  and  C_4
REMARK    4  A    between atoms: C_2  and  C_5
REMARK    5  A    between atoms: C_7  and  O_8
REMARK    6  A    between atoms: O_8  and  C_9
REMARK    7  A    between atoms: C_9  and  C_10
REMARK    8  A    between atoms: C_14  and  C_15
REMARK    9  A    between atoms: C_15  and  N_16
REMARK                            x       y       z     vdW  Elec       q    Type
REMARK                         _______ _______ _______ _____ _____    ______ ____
ROOT
ATOM      1  O   UNL     1      48.084   5.642  13.871  0.00  0.00    +0.000 OA
ENDROOT
BRANCH   1   4
ATOM      2  C   UNL     1      44.897   5.616  11.975  0.00  0.00    +0.000 A 
ATOM      3  C   UNL     1      45.972   5.116  12.720  0.00  0.00    +0.000 A 
ATOM      4  C   UNL     1      46.988   5.980  13.124  0.00  0.00    +0.000 A 
ATOM      5  C   UNL     1      46.918   7.319  12.764  0.00  0.00    +0.000 A 
ATOM      6  C   UNL     1      45.836   7.738  12.016  0.00  0.00    +0.000 A 
ATOM      7  N   UNL     1      44.836   6.922  11.621  0.00  0.00    +0.000 NA
BRANCH   2   9
ATOM      8  C   UNL     1      42.394   5.446  11.779  0.00  0.00    +0.000 C 
ATOM      9  C   UNL     1      43.730   4.707  11.567  0.00  0.00    +0.000 C 
ATOM     10  C   UNL     1      43.735   3.408  12.397  0.00  0.00    +0.000 C 
ATOM     11  C   UNL     1      43.820   4.313  10.076  0.00  0.00    +0.000 C 
ENDBRANCH   2   9
ENDBRANCH   1   4
BRANCH   1  12
ATOM     12  C   UNL     1      48.238   6.314  15.123  0.00  0.00    +0.000 C 
BRANCH  12  13
ATOM     13  C   UNL     1      48.330   5.326  16.263  0.00  0.00    +0.000 A 
ATOM     14  C   UNL     1      47.363   4.319  16.385  0.00  0.00    +0.000 A 
ATOM     15  C   UNL     1      47.474   3.346  17.377  0.00  0.00    +0.000 A 
ATOM     16  C   UNL     1      48.559   3.360  18.252  0.00  0.00    +0.000 A 
ATOM     17  C   UNL     1      49.540   4.358  18.161  0.00  0.00    +0.000 A 
ATOM     18  C   UNL     1      49.417   5.329  17.153  0.00  0.00    +0.000 A 
BRANCH  17  19
ATOM     19  C   UNL     1      50.770   4.356  19.038  0.00  0.00    +0.000 C 
BRANCH  19  20
ATOM     20  N   UNL     1      51.744   3.330  18.678  0.00  0.00    +0.000 NA
ATOM     21  H   UNL     1      51.319   2.415  18.827  0.00  0.00    +0.000 HD
ATOM     22  H   UNL     1      52.533   3.386  19.319  0.00  0.00    +0.000 HD
ENDBRANCH  19  20
ENDBRANCH  17  19
ENDBRANCH  12  13
ENDBRANCH   1  12
TORSDOF 6
ENDMDL
MODEL 8
REMARK VINA RESULT:    -5.450      2.915      4.375
REMARK INTER + INTRA:          -7.743
REMARK INTER:                  -7.210
REMARK INTRA:                  -0.533
REMARK UNBOUND:                -0.540
REMARK  Name = 
REMARK  9 active torsions:
REMARK  status: ('A' for Active; 'I' for Inactive)
REMARK    1  A    between atoms: C_1  and  C_2
REMARK    2  A    between atoms: C_2  and  C_3
REMARK    3  A    between atoms: C_2  and  C_4
REMARK    4  A    between atoms: C_2  and  C_5
REMARK    5  A    between atoms: C_7  and  O_8
REMARK    6  A    between atoms: O_8  and  C_9
REMARK    7  A    between atoms: C_9  and  C_10
REMARK    8  A    between atoms: C_14  and  C_15
REMARK    9  A    between atoms: C_15  and  N_16
REMARK                            x       y       z     vdW  Elec       q    Type
REMARK                         _______ _______ _______ _____ _____    ______ ____
ROOT
ATOM      1  O   UNL     1      45.983   4.160  14.167  0.00  0.00    +0.000 OA
ENDROOT
BRANCH   1   4
ATOM      2  C   UNL     1      48.596   5.057  16.641  0.00  0.00    +0.000 A 
ATOM      3  C   UNL     1      47.522   4.357  16.080  0.00  0.00    +0.000 A 
ATOM      4  C   UNL     1      47.011   4.758  14.847  0.00  0.00    +0.000 A 
ATOM      5  C   UNL     1      47.572   5.854  14.208  0.00  0.00    +0.000 A 
ATOM      6  C   UNL     1      48.620   6.505  14.827  0.00  0.00    +0.000 A 
ATOM      7  N   UNL     1      49.138   6.130  16.016  0.00  0.00    +0.000 NA
BRANCH   2   9
ATOM      8  C   UNL     1      48.655   3.232  18.373  0.00  0.00    +0.000 C 
ATOM      9  C   UNL     1      49.225   4.606  17.966  0.00  0.00    +0.000 C 
ATOM     10  C   UNL     1      48.940   5.630  19.081  0.00  0.00    +0.000 C 
ATOM     11  C   UNL     1      50.758   4.462  17.839  0.00  0.00    +0.000 C 
ENDBRANCH   2   9
ENDBRANCH   1   4
BRANCH   1  12
ATOM     12  C   UNL     1      45.219   4.996  13.297  0.00  0.00    +0.000 C 
BRANCH  12  13
ATOM     13  C   UNL     1      45.011   4.336  11.953  0.00  0.00    +0.000 A 
ATOM     14  C   UNL     1      44.137   3.244  11.846  0.00  0.00    +0.000 A 
ATOM     15  C   UNL     1      43.864   2.674  10.604  0.00  0.00    +0.000 A 
ATOM     16  C   UNL     1      44.450   3.195   9.451  0.00  0.00    +0.000 A 
ATOM     17  C   UNL     1      45.335   4.281   9.525  0.00  0.00    +0.000 A 
ATOM     18  C   UNL     1      45.596   4.849  10.783  0.00  0.00    +0.000 A 
BRANCH  17  19
ATOM     19  C   UNL     1      45.922   4.922   8.290  0.00  0.00    +0.000 C 
BRANCH  19  20
ATOM     20  N   UNL     1      46.279   3.965   7.246  0.00  0.00    +0.000 NA
ATOM     21  H   UNL     1      47.063   4.344   6.716  0.00  0.00    +0.000 HD
ATOM     22  H   UNL     1      45.503   3.886   6.593  0.00  0.00    +0.000 HD
ENDBRANCH  19  20
ENDBRANCH  17  19
ENDBRANCH  12  13
ENDBRANCH   1  12
TORSDOF 6
ENDMDL
MODEL 9
REMARK VINA RESULT:    -5.370      3.544      5.384
REMARK INTER + INTRA:          -7.636
REMARK INTER:                  -7.101
REMARK INTRA:                  -0.535
REMARK UNBOUND:                -0.540
REMARK  Name = 
REMARK  9 active torsions:
REMARK  status: ('A' for Active; 'I' for Inactive)
REMARK    1  A    between atoms: C_1  and  C_2
REMARK    2  A    between atoms: C_2  and  C_3
REMARK    3  A    between atoms: C_2  and  C_4
REMARK    4  A    between atoms: C_2  and  C_5
REMARK    5  A    between atoms: C_7  and  O_8
REMARK    6  A    between atoms: O_8  and  C_9
REMARK    7  A    between atoms: C_9  and  C_10
REMARK    8  A    between atoms: C_14  and  C_15
REMARK    9  A    between atoms: C_15  and  N_16
REMARK                            x       y       z     vdW  Elec       q    Type
REMARK                         _______ _______ _______ _____ _____    ______ ____
ROOT
ATOM      1  O   UNL     1      48.153   5.504  14.278  0.00  0.00    +0.000 OA
ENDROOT
BRANCH   1   4
ATOM      2  C   UNL     1      48.767   6.649  17.752  0.00  0.00    +0.000 A 
ATOM      3  C   UNL     1      48.422   5.780  16.710  0.00  0.00    +0.000 A 
ATOM      4  C   UNL     1      48.443   6.241  15.395  0.00  0.00    +0.000 A 
ATOM      5  C   UNL     1      48.795   7.560  15.149  0.00  0.00    +0.000 A 
ATOM      6  C   UNL     1      49.110   8.364  16.226  0.00  0.00    +0.000 A 
ATOM      7  N   UNL     1      49.104   7.938  17.506  0.00  0.00    +0.000 NA
BRANCH   2   9
ATOM      8  C   UNL     1      49.515   4.786  19.269  0.00  0.00    +0.000 C 
ATOM      9  C   UNL     1      48.815   6.158  19.204  0.00  0.00    +0.000 C 
ATOM     10  C   UNL     1      47.394   6.036  19.786  0.00  0.00    +0.000 C 
ATOM     11  C   UNL     1      49.609   7.135  20.101  0.00  0.00    +0.000 C 
ENDBRANCH   2   9
ENDBRANCH   1   4
BRANCH   1  12
ATOM     12  C   UNL     1      46.926   4.774  14.292  0.00  0.00    +0.000 C 
BRANCH  12  13
ATOM     13  C   UNL     1      46.202   4.899  12.971  0.00  0.00    +0.000 A 
ATOM     14  C   UNL     1      46.421   6.027  12.167  0.00  0.00    +0.000 A 
ATOM     15  C   UNL     1      45.832   6.124  10.907  0.00  0.00    +0.000 A 
ATOM     16  C   UNL     1      45.026   5.091  10.431  0.00  0.00    +0.000 A 
ATOM     17  C   UNL     1      44.781   3.953  11.214  0.00  0.00    +0.000 A 
ATOM     18  C   UNL     1      45.387   3.867  12.478  0.00  0.00    +0.000 A 
BRANCH  17  19
ATOM     19  C   UNL     1      43.983   2.780  10.696  0.00  0.00    +0.000 C 
BRANCH  19  20
ATOM     20  N   UNL     1      43.056   2.223  11.677  0.00  0.00    +0.000 NA
ATOM     21  H   UNL     1      42.293   2.886  11.813  0.00  0.00    +0.000 HD
ATOM     22  H   UNL     1      43.532   2.148  12.574  0.00  0.00    +0.000 HD
ENDBRANCH  19  20
ENDBRANCH  17  19
ENDBRANCH  12  13
ENDBRANCH   1  12
TORSDOF 6
ENDMDL
