MODEL 1
REMARK VINA RESULT:    -8.802      0.000      0.000
REMARK INTER + INTRA:         -12.274
REMARK INTER:                 -11.374
REMARK INTRA:                  -0.900
REMARK UNBOUND:                -0.900
REMARK  Name = 
REMARK  5 active torsions:
REMARK  status: ('A' for Active; 'I' for Inactive)
REMARK    1  A    between atoms: C_2  and  C_4
REMARK    2  A    between atoms: C_7  and  O_8
REMARK    3  A    between atoms: O_8  and  C_9
REMARK    4  A    between atoms: C_9  and  C_10
REMARK    5  A    between atoms: C_14  and  C_15
REMARK                            x       y       z     vdW  Elec       q    Type
REMARK                         _______ _______ _______ _____ _____    ______ ____
ROOT
ATOM      1  C   UNL     1      43.824   5.414  10.890  0.00  0.00    +0.000 C 
ENDROOT
BRANCH   1   2
ATOM      2  C   UNL     1      44.938   5.270  11.887  0.00  0.00    +0.000 A 
ATOM      3  C   UNL     1      44.851   4.361  12.930  0.00  0.00    +0.000 A 
ATOM      4  N   UNL     1      45.790   4.225  13.888  0.00  0.00    +0.000 NA
ATOM      5  C   UNL     1      46.874   5.036  13.799  0.00  0.00    +0.000 A 
ATOM      6  C   UNL     1      47.084   5.996  12.806  0.00  0.00    +0.000 A 
ATOM      7  C   UNL     1      46.075   6.089  11.834  0.00  0.00    +0.000 A 
BRANCH   6   8
ATOM      8  C   UNL     1      48.273   6.876  12.791  0.00  0.00    +0.000 A 
ATOM      9  C   UNL     1      48.689   7.531  11.615  0.00  0.00    +0.000 A 
ATOM     10  C   UNL     1      49.792   8.393  11.605  0.00  0.00    +0.000 A 
ATOM     11  C   UNL     1      50.514   8.610  12.772  0.00  0.00    +0.000 A 
ATOM     12  C   UNL     1      50.127   7.962  13.936  0.00  0.00    +0.000 A 
ATOM     13  F   UNL     1      50.820   8.166  15.064  0.00  0.00    +0.000 F 
ATOM     14  C   UNL     1      49.024   7.111  13.957  0.00  0.00    +0.000 A 
ENDBRANCH   6   8
ENDBRANCH   1   2
BRANCH   1  15
ATOM     15  O   UNL     1      43.554   4.152  10.278  0.00  0.00    +0.000 OA
BRANCH  15  19
ATOM     16  C   UNL     1      46.410   2.480   7.729  0.00  0.00    +0.000 A 
ATOM     17  C   UNL     1      46.173   3.855   7.655  0.00  0.00    +0.000 A 
ATOM     18  C   UNL     1      45.227   4.453   8.497  0.00  0.00    +0.000 A 
ATOM     19  C   UNL     1      44.506   3.683   9.413  0.00  0.00    +0.000 A 
ATOM     20  C   UNL     1      44.741   2.308   9.481  0.00  0.00    +0.000 A 
ATOM     21  C   UNL     1      45.684   1.704   8.641  0.00  0.00    +0.000 A 
BRANCH  16  23
ATOM     22  N   UNL     1      48.490   2.533   6.461  0.00  0.00    +0.000 N 
ATOM     23  C   UNL     1      47.394   1.809   6.841  0.00  0.00    +0.000 C 
ATOM     24  O   UNL     1      47.251   0.646   6.485  0.00  0.00    +0.000 OA
ATOM     25  H   UNL     1      49.195   2.031   5.935  0.00  0.00    +0.000 HD
ATOM     26  H   UNL     1      48.769   3.384   6.925  0.00  0.00    +0.000 HD
ENDBRANCH  16  23
ENDBRANCH  15  19
ENDBRANCH   1  15
TORSDOF 5
ENDMDL
MODEL 2
REMARK VINA RESULT:    -8.701      1.370      1.553
REMARK INTER + INTRA:         -12.144
REMARK INTER:                 -11.324
REMARK INTRA:                  -0.820
REMARK UNBOUND:                -0.900
REMARK  Name = 
REMARK  5 active torsions:
REMARK  status: ('A' for Active; 'I' for Inactive)
REMARK    1  A    between atoms: C_2  and  C_4
REMARK    2  A    between atoms: C_7  and  O_8
REMARK    3  A    between atoms: O_8  and  C_9
REMARK    4  A    between atoms: C_9  and  C_10
REMARK    5  A    between atoms: C_14  and  C_15
REMARK                            x       y       z     vdW  Elec       q    Type
REMARK                         _______ _______ _______ _____ _____    ______ ____
ROOT
ATOM      1  C   UNL     1      43.463   4.851  10.915  0.00  0.00    +0.000 C 
ENDROOT
BRANCH   1   2
ATOM      2  C   UNL     1      44.650   5.027  11.817  0.00  0.00    +0.000 A 
ATOM      3  C   UNL     1      44.798   4.259  12.962  0.00  0.00    +0.000 A 
ATOM      4  N   UNL     1      45.810   4.408  13.841  0.00  0.00    +0.000 NA
ATOM      5  C   UNL     1      46.722   5.372  13.561  0.00  0.00    +0.000 A 
ATOM      6  C   UNL     1      46.689   6.217  12.450  0.00  0.00    +0.000 A 
ATOM      7  C   UNL     1      45.616   6.013  11.568  0.00  0.00    +0.000 A 
BRANCH   6   8
ATOM      8  C   UNL     1      47.698   7.276  12.227  0.00  0.00    +0.000 A 
ATOM      9  C   UNL     1      49.073   6.977  12.150  0.00  0.00    +0.000 A 
ATOM     10  C   UNL     1      50.028   7.972  11.902  0.00  0.00    +0.000 A 
ATOM     11  C   UNL     1      49.629   9.293  11.741  0.00  0.00    +0.000 A 
ATOM     12  C   UNL     1      48.280   9.606  11.828  0.00  0.00    +0.000 A 
ATOM     13  F   UNL     1      47.889  10.878  11.675  0.00  0.00    +0.000 F 
ATOM     14  C   UNL     1      47.323   8.621  12.063  0.00  0.00    +0.000 A 
ENDBRANCH   6   8
ENDBRANCH   1   2
BRANCH   1  15
ATOM     15  O   UNL     1      43.490   3.552  10.323  0.00  0.00    +0.000 OA
BRANCH  15  19
ATOM     16  C   UNL     1      46.444   2.650   7.510  0.00  0.00    +0.000 A 
ATOM     17  C   UNL     1      45.938   3.951   7.551  0.00  0.00    +0.000 A 
ATOM     18  C   UNL     1      44.950   4.293   8.484  0.00  0.00    +0.000 A 
ATOM     19  C   UNL     1      44.457   3.338   9.376  0.00  0.00    +0.000 A 
ATOM     20  C   UNL     1      44.962   2.036   9.329  0.00  0.00    +0.000 A 
ATOM     21  C   UNL     1      45.946   1.687   8.398  0.00  0.00    +0.000 A 
BRANCH  16  23
ATOM     22  N   UNL     1      47.497   2.909   5.328  0.00  0.00    +0.000 N 
ATOM     23  C   UNL     1      47.479   2.247   6.524  0.00  0.00    +0.000 C 
ATOM     24  O   UNL     1      48.306   1.379   6.776  0.00  0.00    +0.000 OA
ATOM     25  H   UNL     1      48.265   2.689   4.707  0.00  0.00    +0.000 HD
ATOM     26  H   UNL     1      47.011   3.782   5.180  0.00  0.00    +0.000 HD
ENDBRANCH  16  23
ENDBRANCH  15  19
ENDBRANCH   1  15
TORSDOF 5
ENDMDL
MODEL 3
REMARK VINA RESULT:    -8.377      2.178      3.218
REMARK INTER + INTRA:         -11.726
REMARK INTER:                 -11.004
REMARK INTRA:                  -0.722
REMARK UNBOUND:                -0.900
REMARK  Name = 
REMARK  5 active torsions:
REMARK  status: ('A' for Active; 'I' for Inactive)
REMARK    1  A    between atoms: C_2  and  C_4
REMARK    2  A    between atoms: C_7  and  O_8
REMARK    3  A    between atoms: O_8  and  C_9
REMARK    4  A    between atoms: C_9  and  C_10
REMARK    5  A    between atoms: C_14  and  C_15
REMARK                            x       y       z     vdW  Elec       q    Type
REMARK                         _______ _______ _______ _____ _____    ______ ____
ROOT
ATOM      1  C   UNL     1      43.863   4.607  11.442  0.00  0.00    +0.000 C 
ENDROOT
BRANCH   1   2
ATOM      2  C   UNL     1      45.006   5.393  12.016  0.00  0.00    +0.000 A 
ATOM      3  C   UNL     1      45.499   6.515  11.368  0.00  0.00    +0.000 A 
ATOM      4  N   UNL     1      46.558   7.229  11.802  0.00  0.00    +0.000 NA
ATOM      5  C   UNL     1      47.154   6.802  12.943  0.00  0.00    +0.000 A 
ATOM      6  C   UNL     1      46.764   5.687  13.689  0.00  0.00    +0.000 A 
ATOM      7  C   UNL     1      45.654   4.986  13.191  0.00  0.00    +0.000 A 
BRANCH   6   8
ATOM      8  C   UNL     1      47.485   5.254  14.906  0.00  0.00    +0.000 A 
ATOM      9  C   UNL     1      48.486   6.055  15.492  0.00  0.00    +0.000 A 
ATOM     10  C   UNL     1      49.146   5.665  16.665  0.00  0.00    +0.000 A 
ATOM     11  C   UNL     1      48.828   4.456  17.270  0.00  0.00    +0.000 A 
ATOM     12  C   UNL     1      47.855   3.649  16.698  0.00  0.00    +0.000 A 
ATOM     13  F   UNL     1      47.545   2.481  17.277  0.00  0.00    +0.000 F 
ATOM     14  C   UNL     1      47.187   4.034  15.539  0.00  0.00    +0.000 A 
ENDBRANCH   6   8
ENDBRANCH   1   2
BRANCH   1  15
ATOM     15  O   UNL     1      43.852   4.734  10.019  0.00  0.00    +0.000 OA
BRANCH  15  19
ATOM     16  C   UNL     1      46.359   2.246   7.788  0.00  0.00    +0.000 A 
ATOM     17  C   UNL     1      45.498   1.663   8.720  0.00  0.00    +0.000 A 
ATOM     18  C   UNL     1      44.638   2.463   9.484  0.00  0.00    +0.000 A 
ATOM     19  C   UNL     1      44.638   3.852   9.327  0.00  0.00    +0.000 A 
ATOM     20  C   UNL     1      45.504   4.433   8.398  0.00  0.00    +0.000 A 
ATOM     21  C   UNL     1      46.367   3.638   7.634  0.00  0.00    +0.000 A 
BRANCH  16  23
ATOM     22  N   UNL     1      48.374   2.070   6.429  0.00  0.00    +0.000 N 
ATOM     23  C   UNL     1      47.295   1.430   6.974  0.00  0.00    +0.000 C 
ATOM     24  O   UNL     1      47.131   0.226   6.817  0.00  0.00    +0.000 OA
ATOM     25  H   UNL     1      49.050   1.483   5.958  0.00  0.00    +0.000 HD
ATOM     26  H   UNL     1      48.679   2.982   6.735  0.00  0.00    +0.000 HD
ENDBRANCH  16  23
ENDBRANCH  15  19
ENDBRANCH   1  15
TORSDOF 5
ENDMDL
MODEL 4
REMARK VINA RESULT:    -8.374      3.724      6.892
REMARK INTER + INTRA:         -11.721
REMARK INTER:                 -10.747
REMARK INTRA:                  -0.975
REMARK UNBOUND:                -0.900
REMARK  Name = 
REMARK  5 active torsions:
REMARK  status: ('A' for Active; 'I' for Inactive)
REMARK    1  A    between atoms: C_2  and  C_4
REMARK    2  A    between atoms: C_7  and  O_8
REMARK    3  A    between atoms: O_8  and  C_9
REMARK    4  A    between atoms: C_9  and  C_10
REMARK    5  A    between atoms: C_14  and  C_15
REMARK                            x       y       z     vdW  Elec       q    Type
REMARK                         _______ _______ _______ _____ _____    ______ ____
ROOT
ATOM      1  C   UNL     1      43.983   6.636  11.465  0.00  0.00    +0.000 C 
ENDROOT
BRANCH   1   2
ATOM      2  C   UNL     1      43.932   5.194  11.050  0.00  0.00    +0.000 A 
ATOM      3  C   UNL     1      43.154   4.278  11.741  0.00  0.00    +0.000 A 
ATOM      4  N   UNL     1      43.109   2.961  11.454  0.00  0.00    +0.000 NA
ATOM      5  C   UNL     1      43.880   2.537  10.422  0.00  0.00    +0.000 A 
ATOM      6  C   UNL     1      44.713   3.349   9.648  0.00  0.00    +0.000 A 
ATOM      7  C   UNL     1      44.714   4.711   9.991  0.00  0.00    +0.000 A 
BRANCH   6   8
ATOM      8  C   UNL     1      45.559   2.812   8.561  0.00  0.00    +0.000 A 
ATOM      9  C   UNL     1      46.085   3.649   7.556  0.00  0.00    +0.000 A 
ATOM     10  C   UNL     1      46.916   3.151   6.545  0.00  0.00    +0.000 A 
ATOM     11  C   UNL     1      47.229   1.797   6.508  0.00  0.00    +0.000 A 
ATOM     12  C   UNL     1      46.709   0.957   7.481  0.00  0.00    +0.000 A 
ATOM     13  F   UNL     1      47.005  -0.349   7.450  0.00  0.00    +0.000 F 
ATOM     14  C   UNL     1      45.890   1.446   8.496  0.00  0.00    +0.000 A 
ENDBRANCH   6   8
ENDBRANCH   1   2
BRANCH   1  15
ATOM     15  O   UNL     1      44.676   6.760  12.707  0.00  0.00    +0.000 OA
BRANCH  15  19
ATOM     16  C   UNL     1      48.773   7.507  12.368  0.00  0.00    +0.000 A 
ATOM     17  C   UNL     1      48.360   6.297  12.931  0.00  0.00    +0.000 A 
ATOM     18  C   UNL     1      46.995   6.008  13.057  0.00  0.00    +0.000 A 
ATOM     19  C   UNL     1      46.034   6.927  12.628  0.00  0.00    +0.000 A 
ATOM     20  C   UNL     1      46.450   8.138  12.071  0.00  0.00    +0.000 A 
ATOM     21  C   UNL     1      47.812   8.434  11.945  0.00  0.00    +0.000 A 
BRANCH  16  23
ATOM     22  N   UNL     1      50.965   7.848  13.374  0.00  0.00    +0.000 N 
ATOM     23  C   UNL     1      50.211   7.854  12.234  0.00  0.00    +0.000 C 
ATOM     24  O   UNL     1      50.714   8.106  11.146  0.00  0.00    +0.000 OA
ATOM     25  H   UNL     1      51.959   7.994  13.252  0.00  0.00    +0.000 HD
ATOM     26  H   UNL     1      50.658   7.410  14.230  0.00  0.00    +0.000 HD
ENDBRANCH  16  23
ENDBRANCH  15  19
ENDBRANCH   1  15
TORSDOF 5
ENDMDL
MODEL 5
REMARK VINA RESULT:    -8.154      3.855      7.382
REMARK INTER + INTRA:         -11.438
REMARK INTER:                 -10.894
REMARK INTRA:                  -0.544
REMARK UNBOUND:                -0.900
REMARK  Name = 
REMARK  5 active torsions:
REMARK  status: ('A' for Active; 'I' for Inactive)
REMARK    1  A    between atoms: C_2  and  C_4
REMARK    2  A    between atoms: C_7  and  O_8
REMARK    3  A    between atoms: O_8  and  C_9
REMARK    4  A    between atoms: C_9  and  C_10
REMARK    5  A    between atoms: C_14  and  C_15
REMARK                            x       y       z     vdW  Elec       q    Type
REMARK                         _______ _______ _______ _____ _____    ______ ____
ROOT
ATOM      1  C   UNL     1      46.052   7.194  11.845  0.00  0.00    +0.000 C 
ENDROOT
BRANCH   1   2
ATOM      2  C   UNL     1      45.259   6.191  11.057  0.00  0.00    +0.000 A 
ATOM      3  C   UNL     1      43.903   6.012  11.286  0.00  0.00    +0.000 A 
ATOM      4  N   UNL     1      43.150   5.090  10.654  0.00  0.00    +0.000 NA
ATOM      5  C   UNL     1      43.782   4.307   9.744  0.00  0.00    +0.000 A 
ATOM      6  C   UNL     1      45.139   4.377   9.422  0.00  0.00    +0.000 A 
ATOM      7  C   UNL     1      45.872   5.359  10.109  0.00  0.00    +0.000 A 
BRANCH   6   8
ATOM      8  C   UNL     1      45.773   3.464   8.446  0.00  0.00    +0.000 A 
ATOM      9  C   UNL     1      46.382   3.950   7.272  0.00  0.00    +0.000 A 
ATOM     10  C   UNL     1      47.014   3.092   6.363  0.00  0.00    +0.000 A 
ATOM     11  C   UNL     1      47.040   1.724   6.604  0.00  0.00    +0.000 A 
ATOM     12  C   UNL     1      46.434   1.227   7.748  0.00  0.00    +0.000 A 
ATOM     13  F   UNL     1      46.454  -0.092   7.984  0.00  0.00    +0.000 F 
ATOM     14  C   UNL     1      45.812   2.075   8.662  0.00  0.00    +0.000 A 
ENDBRANCH   6   8
ENDBRANCH   1   2
BRANCH   1  15
ATOM     15  O   UNL     1      47.334   6.655  12.169  0.00  0.00    +0.000 OA
BRANCH  15  19
ATOM     16  C   UNL     1      47.541   4.684  15.847  0.00  0.00    +0.000 A 
ATOM     17  C   UNL     1      48.259   5.871  15.685  0.00  0.00    +0.000 A 
ATOM     18  C   UNL     1      48.211   6.563  14.469  0.00  0.00    +0.000 A 
ATOM     19  C   UNL     1      47.451   6.072  13.404  0.00  0.00    +0.000 A 
ATOM     20  C   UNL     1      46.738   4.882  13.567  0.00  0.00    +0.000 A 
ATOM     21  C   UNL     1      46.785   4.184  14.779  0.00  0.00    +0.000 A 
BRANCH  16  23
ATOM     22  N   UNL     1      48.589   4.208  17.995  0.00  0.00    +0.000 N 
ATOM     23  C   UNL     1      47.582   3.915  17.117  0.00  0.00    +0.000 C 
ATOM     24  O   UNL     1      46.735   3.072  17.387  0.00  0.00    +0.000 OA
ATOM     25  H   UNL     1      48.547   3.743  18.893  0.00  0.00    +0.000 HD
ATOM     26  H   UNL     1      49.143   5.049  17.928  0.00  0.00    +0.000 HD
ENDBRANCH  16  23
ENDBRANCH  15  19
ENDBRANCH   1  15
TORSDOF 5
ENDMDL
MODEL 6
REMARK VINA RESULT:    -7.755      3.668      7.467
REMARK INTER + INTRA:         -10.921
REMARK INTER:                 -10.337
REMARK INTRA:                  -0.584
REMARK UNBOUND:                -0.900
REMARK  Name = 
REMARK  5 active torsions:
REMARK  status: ('A' for Active; 'I' for Inactive)
REMARK    1  A    between atoms: C_2  and  C_4
REMARK    2  A    between atoms: C_7  and  O_8
REMARK    3  A    between atoms: O_8  and  C_9
REMARK    4  A    between atoms: C_9  and  C_10
REMARK    5  A    between atoms: C_14  and  C_15
REMARK                            x       y       z     vdW  Elec       q    Type
REMARK                         _______ _______ _______ _____ _____    ______ ____
ROOT
ATOM      1  C   UNL     1      44.635   6.374  11.678  0.00  0.00    +0.000 C 
ENDROOT
BRANCH   1   2
ATOM      2  C   UNL     1      44.393   5.015  11.087  0.00  0.00    +0.000 A 
ATOM      3  C   UNL     1      43.471   4.145  11.648  0.00  0.00    +0.000 A 
ATOM      4  N   UNL     1      43.249   2.893  11.200  0.00  0.00    +0.000 NA
ATOM      5  C   UNL     1      43.985   2.489  10.134  0.00  0.00    +0.000 A 
ATOM      6  C   UNL     1      44.949   3.259   9.479  0.00  0.00    +0.000 A 
ATOM      7  C   UNL     1      45.132   4.556   9.988  0.00  0.00    +0.000 A 
BRANCH   6   8
ATOM      8  C   UNL     1      45.744   2.741   8.345  0.00  0.00    +0.000 A 
ATOM      9  C   UNL     1      46.256   1.428   8.345  0.00  0.00    +0.000 A 
ATOM     10  C   UNL     1      46.979   0.921   7.258  0.00  0.00    +0.000 A 
ATOM     11  C   UNL     1      47.217   1.723   6.148  0.00  0.00    +0.000 A 
ATOM     12  C   UNL     1      46.732   3.022   6.138  0.00  0.00    +0.000 A 
ATOM     13  F   UNL     1      46.960   3.801   5.072  0.00  0.00    +0.000 F 
ATOM     14  C   UNL     1      46.003   3.530   7.210  0.00  0.00    +0.000 A 
ENDBRANCH   6   8
ENDBRANCH   1   2
BRANCH   1  15
ATOM     15  O   UNL     1      46.038   6.636  11.738  0.00  0.00    +0.000 OA
BRANCH  15  19
ATOM     16  C   UNL     1      48.094   5.766  15.269  0.00  0.00    +0.000 A 
ATOM     17  C   UNL     1      47.168   4.837  14.790  0.00  0.00    +0.000 A 
ATOM     18  C   UNL     1      46.463   5.090  13.607  0.00  0.00    +0.000 A 
ATOM     19  C   UNL     1      46.672   6.275  12.898  0.00  0.00    +0.000 A 
ATOM     20  C   UNL     1      47.595   7.206  13.381  0.00  0.00    +0.000 A 
ATOM     21  C   UNL     1      48.301   6.959  14.565  0.00  0.00    +0.000 A 
BRANCH  16  23
ATOM     22  N   UNL     1      48.860   6.554  17.444  0.00  0.00    +0.000 N 
ATOM     23  C   UNL     1      48.848   5.539  16.528  0.00  0.00    +0.000 C 
ATOM     24  O   UNL     1      49.413   4.476  16.758  0.00  0.00    +0.000 OA
ATOM     25  H   UNL     1      49.296   6.347  18.333  0.00  0.00    +0.000 HD
ATOM     26  H   UNL     1      48.213   7.328  17.409  0.00  0.00    +0.000 HD
ENDBRANCH  16  23
ENDBRANCH  15  19
ENDBRANCH   1  15
TORSDOF 5
ENDMDL
MODEL 7
REMARK VINA RESULT:    -7.320      3.806      7.283
REMARK INTER + INTRA:         -10.360
REMARK INTER:                  -9.669
REMARK INTRA:                  -0.690
REMARK UNBOUND:                -0.900
REMARK  Name = 
REMARK  5 active torsions:
REMARK  status: ('A' for Active; 'I' for Inactive)
REMARK    1  A    between atoms: C_2  and  C_4
REMARK    2  A    between atoms: C_7  and  O_8
REMARK    3  A    between atoms: O_8  and  C_9
REMARK    4  A    between atoms: C_9  and  C_10
REMARK    5  A    between atoms: C_14  and  C_15
REMARK                            x       y       z     vdW  Elec       q    Type
REMARK                         _______ _______ _______ _____ _____    ______ ____
ROOT
ATOM      1  C   UNL     1      45.444   4.646  13.371  0.00  0.00    +0.000 C 
ENDROOT
BRANCH   1   2
ATOM      2  C   UNL     1      44.892   4.569  11.977  0.00  0.00    +0.000 A 
ATOM      3  C   UNL     1      43.650   5.103  11.670  0.00  0.00    +0.000 A 
ATOM      4  N   UNL     1      43.075   5.017  10.453  0.00  0.00    +0.000 NA
ATOM      5  C   UNL     1      43.778   4.366   9.492  0.00  0.00    +0.000 A 
ATOM      6  C   UNL     1      45.033   3.779   9.668  0.00  0.00    +0.000 A 
ATOM      7  C   UNL     1      45.583   3.904  10.954  0.00  0.00    +0.000 A 
BRANCH   6   8
ATOM      8  C   UNL     1      45.726   3.049   8.585  0.00  0.00    +0.000 A 
ATOM      9  C   UNL     1      46.250   3.721   7.462  0.00  0.00    +0.000 A 
ATOM     10  C   UNL     1      46.939   3.038   6.452  0.00  0.00    +0.000 A 
ATOM     11  C   UNL     1      47.109   1.662   6.536  0.00  0.00    +0.000 A 
ATOM     12  C   UNL     1      46.588   0.982   7.627  0.00  0.00    +0.000 A 
ATOM     13  F   UNL     1      46.747  -0.345   7.713  0.00  0.00    +0.000 F 
ATOM     14  C   UNL     1      45.911   1.655   8.641  0.00  0.00    +0.000 A 
ENDBRANCH   6   8
ENDBRANCH   1   2
BRANCH   1  15
ATOM     15  O   UNL     1      46.780   5.151  13.338  0.00  0.00    +0.000 OA
BRANCH  15  19
ATOM     16  C   UNL     1      47.443   9.118  12.209  0.00  0.00    +0.000 A 
ATOM     17  C   UNL     1      46.215   8.785  12.786  0.00  0.00    +0.000 A 
ATOM     18  C   UNL     1      45.957   7.466  13.182  0.00  0.00    +0.000 A 
ATOM     19  C   UNL     1      46.920   6.470  12.999  0.00  0.00    +0.000 A 
ATOM     20  C   UNL     1      48.145   6.805  12.418  0.00  0.00    +0.000 A 
ATOM     21  C   UNL     1      48.408   8.120  12.017  0.00  0.00    +0.000 A 
BRANCH  16  23
ATOM     22  N   UNL     1      47.032  11.516  12.338  0.00  0.00    +0.000 N 
ATOM     23  C   UNL     1      47.745  10.501  11.762  0.00  0.00    +0.000 C 
ATOM     24  O   UNL     1      48.616  10.735  10.933  0.00  0.00    +0.000 OA
ATOM     25  H   UNL     1      47.315  12.456  12.092  0.00  0.00    +0.000 HD
ATOM     26  H   UNL     1      46.499  11.394  13.187  0.00  0.00    +0.000 HD
ENDBRANCH  16  23
ENDBRANCH  15  19
ENDBRANCH   1  15
TORSDOF 5
ENDMDL
MODEL 8
REMARK VINA RESULT:    -6.988      4.164      8.170
REMARK INTER + INTRA:          -9.931
REMARK INTER:                  -9.368
REMARK INTRA:                  -0.563
REMARK UNBOUND:                -0.900
REMARK  Name = 
REMARK  5 active torsions:
REMARK  status: ('A' for Active; 'I' for Inactive)
REMARK    1  A    between atoms: C_2  and  C_4
REMARK    2  A    between atoms: C_7  and  O_8
REMARK    3  A    between atoms: O_8  and  C_9
REMARK    4  A    between atoms: C_9  and  C_10
REMARK    5  A    between atoms: C_14  and  C_15
REMARK                            x       y       z     vdW  Elec       q    Type
REMARK                         _______ _______ _______ _____ _____    ______ ____
ROOT
ATOM      1  C   UNL     1      45.429   4.602  13.517  0.00  0.00    +0.000 C 
ENDROOT
BRANCH   1   2
ATOM      2  C   UNL     1      44.870   4.564  12.124  0.00  0.00    +0.000 A 
ATOM      3  C   UNL     1      43.639   5.133  11.832  0.00  0.00    +0.000 A 
ATOM      4  N   UNL     1      43.058   5.083  10.616  0.00  0.00    +0.000 NA
ATOM      5  C   UNL     1      43.741   4.433   9.641  0.00  0.00    +0.000 A 
ATOM      6  C   UNL     1      44.982   3.813   9.800  0.00  0.00    +0.000 A 
ATOM      7  C   UNL     1      45.540   3.901  11.086  0.00  0.00    +0.000 A 
BRANCH   6   8
ATOM      8  C   UNL     1      45.654   3.086   8.701  0.00  0.00    +0.000 A 
ATOM      9  C   UNL     1      46.180   3.766   7.583  0.00  0.00    +0.000 A 
ATOM     10  C   UNL     1      46.849   3.085   6.558  0.00  0.00    +0.000 A 
ATOM     11  C   UNL     1      46.995   1.705   6.621  0.00  0.00    +0.000 A 
ATOM     12  C   UNL     1      46.471   1.019   7.707  0.00  0.00    +0.000 A 
ATOM     13  F   UNL     1      46.607  -0.312   7.773  0.00  0.00    +0.000 F 
ATOM     14  C   UNL     1      45.814   1.689   8.736  0.00  0.00    +0.000 A 
ENDBRANCH   6   8
ENDBRANCH   1   2
BRANCH   1  15
ATOM     15  O   UNL     1      46.800   5.000  13.480  0.00  0.00    +0.000 OA
BRANCH  15  19
ATOM     16  C   UNL     1      48.816   5.621  17.086  0.00  0.00    +0.000 A 
ATOM     17  C   UNL     1      47.953   4.527  16.984  0.00  0.00    +0.000 A 
ATOM     18  C   UNL     1      47.263   4.283  15.790  0.00  0.00    +0.000 A 
ATOM     19  C   UNL     1      47.424   5.132  14.692  0.00  0.00    +0.000 A 
ATOM     20  C   UNL     1      48.284   6.228  14.798  0.00  0.00    +0.000 A 
ATOM     21  C   UNL     1      48.974   6.478  15.990  0.00  0.00    +0.000 A 
BRANCH  16  23
ATOM     22  N   UNL     1      49.818   4.870  19.176  0.00  0.00    +0.000 N 
ATOM     23  C   UNL     1      49.551   5.919  18.341  0.00  0.00    +0.000 C 
ATOM     24  O   UNL     1      49.932   7.052  18.611  0.00  0.00    +0.000 OA
ATOM     25  H   UNL     1      50.400   5.075  19.978  0.00  0.00    +0.000 HD
ATOM     26  H   UNL     1      49.750   3.907  18.881  0.00  0.00    +0.000 HD
ENDBRANCH  16  23
ENDBRANCH  15  19
ENDBRANCH   1  15
TORSDOF 5
ENDMDL
MODEL 9
REMARK VINA RESULT:    -6.867      4.578      8.543
REMARK INTER + INTRA:          -9.774
REMARK INTER:                  -9.084
REMARK INTRA:                  -0.690
REMARK UNBOUND:                -0.900
REMARK  Name = 
REMARK  5 active torsions:
REMARK  status: ('A' for Active; 'I' for Inactive)
REMARK    1  A    between atoms: C_2  and  C_4
REMARK    2  A    between atoms: C_7  and  O_8
REMARK    3  A    between atoms: O_8  and  C_9
REMARK    4  A    between atoms: C_9  and  C_10
REMARK    5  A    between atoms: C_14  and  C_15
REMARK                            x       y       z     vdW  Elec       q    Type
REMARK                         _______ _______ _______ _____ _____    ______ ____
ROOT
ATOM      1  C   UNL     1      48.126   7.167  14.084  0.00  0.00    +0.000 C 
ENDROOT
BRANCH   1   2
ATOM      2  C   UNL     1      47.007   7.225  13.085  0.00  0.00    +0.000 A 
ATOM      3  C   UNL     1      46.178   8.334  13.004  0.00  0.00    +0.000 A 
ATOM      4  N   UNL     1      45.123   8.423  12.170  0.00  0.00    +0.000 NA
ATOM      5  C   UNL     1      44.883   7.352  11.373  0.00  0.00    +0.000 A 
ATOM      6  C   UNL     1      45.633   6.174  11.358  0.00  0.00    +0.000 A 
ATOM      7  C   UNL     1      46.722   6.140  12.244  0.00  0.00    +0.000 A 
BRANCH   6   8
ATOM      8  C   UNL     1      45.292   5.026  10.489  0.00  0.00    +0.000 A 
ATOM      9  C   UNL     1      44.521   3.946  10.966  0.00  0.00    +0.000 A 
ATOM     10  C   UNL     1      44.165   2.875  10.136  0.00  0.00    +0.000 A 
ATOM     11  C   UNL     1      44.584   2.854   8.812  0.00  0.00    +0.000 A 
ATOM     12  C   UNL     1      45.355   3.902   8.330  0.00  0.00    +0.000 A 
ATOM     13  F   UNL     1      45.764   3.886   7.055  0.00  0.00    +0.000 F 
ATOM     14  C   UNL     1      45.704   4.976   9.145  0.00  0.00    +0.000 A 
ENDBRANCH   6   8
ENDBRANCH   1   2
BRANCH   1  15
ATOM     15  O   UNL     1      48.352   5.814  14.483  0.00  0.00    +0.000 OA
BRANCH  15  19
ATOM     16  C   UNL     1      48.234   5.251  18.621  0.00  0.00    +0.000 A 
ATOM     17  C   UNL     1      47.580   4.326  17.803  0.00  0.00    +0.000 A 
ATOM     18  C   UNL     1      47.601   4.478  16.411  0.00  0.00    +0.000 A 
ATOM     19  C   UNL     1      48.270   5.557  15.826  0.00  0.00    +0.000 A 
ATOM     20  C   UNL     1      48.918   6.483  16.647  0.00  0.00    +0.000 A 
ATOM     21  C   UNL     1      48.898   6.338  18.039  0.00  0.00    +0.000 A 
BRANCH  16  23
ATOM     22  N   UNL     1      48.610   3.934  20.637  0.00  0.00    +0.000 N 
ATOM     23  C   UNL     1      48.219   5.130  20.101  0.00  0.00    +0.000 C 
ATOM     24  O   UNL     1      47.898   6.068  20.821  0.00  0.00    +0.000 OA
ATOM     25  H   UNL     1      48.684   3.900  21.646  0.00  0.00    +0.000 HD
ATOM     26  H   UNL     1      49.113   3.238  20.107  0.00  0.00    +0.000 HD
ENDBRANCH  16  23
ENDBRANCH  15  19
ENDBRANCH   1  15
TORSDOF 5
ENDMDL
