MODEL 1
REMARK VINA RESULT:    -9.338      0.000      0.000
REMARK INTER + INTRA:         -12.788
REMARK INTER:                 -12.068
REMARK INTRA:                  -0.720
REMARK UNBOUND:                -0.720
REMARK  Name = 
REMARK  5 active torsions:
REMARK  status: ('A' for Active; 'I' for Inactive)
REMARK    1  A    between atoms: C_2  and  C_4
REMARK    2  A    between atoms: C_7  and  N_8
REMARK    3  A    between atoms: N_8  and  C_9
REMARK    4  A    between atoms: C_9  and  C_10
REMARK    5  A    between atoms: C_14  and  C_15
REMARK                            x       y       z     vdW  Elec       q    Type
REMARK                         _______ _______ _______ _____ _____    ______ ____
ROOT
ATOM      1  C   UNL     1      43.941   4.955  11.507  0.00  0.00    +0.000 C 
ATOM      2  C   UNL     1      43.225   4.032  12.492  0.00  0.00    +0.000 C 
ATOM      3  C   UNL     1      42.742   5.432  12.318  0.00  0.00    +0.000 C 
ENDROOT
BRANCH   1   4
ATOM      4  C   UNL     1      45.309   5.498  11.926  0.00  0.00    +0.000 A 
ATOM      5  C   UNL     1      45.917   6.588  11.285  0.00  0.00    +0.000 A 
ATOM      6  C   UNL     1      47.089   7.158  11.788  0.00  0.00    +0.000 A 
ATOM      7  C   UNL     1      47.672   6.654  12.953  0.00  0.00    +0.000 A 
ATOM      8  C   UNL     1      47.115   5.555  13.622  0.00  0.00    +0.000 A 
ATOM      9  C   UNL     1      45.968   4.973  13.054  0.00  0.00    +0.000 A 
BRANCH   8  10
ATOM     10  C   UNL     1      47.605   5.090  14.934  0.00  0.00    +0.000 A 
ATOM     11  C   UNL     1      47.200   3.863  15.474  0.00  0.00    +0.000 A 
ATOM     12  C   UNL     1      47.770   3.378  16.650  0.00  0.00    +0.000 A 
ATOM     13  C   UNL     1      48.746   4.138  17.267  0.00  0.00    +0.000 A 
ATOM     14  N   UNL     1      49.163   5.333  16.806  0.00  0.00    +0.000 NA
ATOM     15  C   UNL     1      48.582   5.779  15.663  0.00  0.00    +0.000 A 
ENDBRANCH   8  10
ENDBRANCH   1   4
BRANCH   1  16
ATOM     16  N   UNL     1      43.768   4.764  10.059  0.00  0.00    +0.000 N 
ATOM     17  H   UNL     1      42.874   5.000   9.639  0.00  0.00    +0.000 HD
BRANCH  16  21
ATOM     18  C   UNL     1      46.342   2.302   7.774  0.00  0.00    +0.000 A 
ATOM     19  C   UNL     1      45.474   1.728   8.700  0.00  0.00    +0.000 A 
ATOM     20  C   UNL     1      44.624   2.542   9.448  0.00  0.00    +0.000 A 
ATOM     21  C   UNL     1      44.582   3.930   9.274  0.00  0.00    +0.000 A 
ATOM     22  C   UNL     1      45.472   4.494   8.349  0.00  0.00    +0.000 A 
ATOM     23  C   UNL     1      46.351   3.689   7.606  0.00  0.00    +0.000 A 
BRANCH  18  25
ATOM     24  N   UNL     1      48.405   2.075   6.494  0.00  0.00    +0.000 N 
ATOM     25  C   UNL     1      47.295   1.458   6.997  0.00  0.00    +0.000 C 
ATOM     26  O   UNL     1      47.096   0.264   6.824  0.00  0.00    +0.000 OA
ATOM     27  H   UNL     1      49.067   1.490   6.000  0.00  0.00    +0.000 HD
ATOM     28  H   UNL     1      48.714   2.987   6.792  0.00  0.00    +0.000 HD
ENDBRANCH  18  25
ENDBRANCH  16  21
ENDBRANCH   1  16
TORSDOF 5
ENDMDL
MODEL 2
REMARK VINA RESULT:    -9.123      2.055      3.486
REMARK INTER + INTRA:         -12.509
REMARK INTER:                 -11.274
REMARK INTRA:                  -1.235
REMARK UNBOUND:                -0.720
REMARK  Name = 
REMARK  5 active torsions:
REMARK  status: ('A' for Active; 'I' for Inactive)
REMARK    1  A    between atoms: C_2  and  C_4
REMARK    2  A    between atoms: C_7  and  N_8
REMARK    3  A    between atoms: N_8  and  C_9
REMARK    4  A    between atoms: C_9  and  C_10
REMARK    5  A    between atoms: C_14  and  C_15
REMARK                            x       y       z     vdW  Elec       q    Type
REMARK                         _______ _______ _______ _____ _____    ______ ____
ROOT
ATOM      1  C   UNL     1      43.694   4.953  11.470  0.00  0.00    +0.000 C 
ATOM      2  C   UNL     1      42.412   5.475  12.117  0.00  0.00    +0.000 C 
ATOM      3  C   UNL     1      43.028   6.239  10.995  0.00  0.00    +0.000 C 
ENDROOT
BRANCH   1   4
ATOM      4  C   UNL     1      44.992   5.107  12.265  0.00  0.00    +0.000 A 
ATOM      5  C   UNL     1      45.534   4.066  13.033  0.00  0.00    +0.000 A 
ATOM      6  C   UNL     1      46.797   4.184  13.619  0.00  0.00    +0.000 A 
ATOM      7  C   UNL     1      47.551   5.346  13.436  0.00  0.00    +0.000 A 
ATOM      8  C   UNL     1      47.049   6.422  12.691  0.00  0.00    +0.000 A 
ATOM      9  C   UNL     1      45.752   6.288  12.166  0.00  0.00    +0.000 A 
BRANCH   8  10
ATOM     10  C   UNL     1      47.867   7.600  12.343  0.00  0.00    +0.000 A 
ATOM     11  C   UNL     1      49.213   7.472  11.972  0.00  0.00    +0.000 A 
ATOM     12  C   UNL     1      49.935   8.576  11.521  0.00  0.00    +0.000 A 
ATOM     13  C   UNL     1      49.290   9.797  11.449  0.00  0.00    +0.000 A 
ATOM     14  N   UNL     1      48.006   9.984  11.810  0.00  0.00    +0.000 NA
ATOM     15  C   UNL     1      47.334   8.890  12.251  0.00  0.00    +0.000 A 
ENDBRANCH   8  10
ENDBRANCH   1   4
BRANCH   1  16
ATOM     16  N   UNL     1      43.647   3.780  10.583  0.00  0.00    +0.000 N 
ATOM     17  H   UNL     1      43.049   3.000  10.837  0.00  0.00    +0.000 HD
BRANCH  16  21
ATOM     18  C   UNL     1      46.513   2.802   7.627  0.00  0.00    +0.000 A 
ATOM     19  C   UNL     1      46.180   4.135   7.857  0.00  0.00    +0.000 A 
ATOM     20  C   UNL     1      45.238   4.454   8.834  0.00  0.00    +0.000 A 
ATOM     21  C   UNL     1      44.635   3.475   9.632  0.00  0.00    +0.000 A 
ATOM     22  C   UNL     1      44.970   2.137   9.379  0.00  0.00    +0.000 A 
ATOM     23  C   UNL     1      45.899   1.799   8.381  0.00  0.00    +0.000 A 
BRANCH  18  25
ATOM     24  N   UNL     1      47.344   3.058   5.349  0.00  0.00    +0.000 N 
ATOM     25  C   UNL     1      47.481   2.432   6.555  0.00  0.00    +0.000 C 
ATOM     26  O   UNL     1      48.365   1.609   6.749  0.00  0.00    +0.000 OA
ATOM     27  H   UNL     1      48.026   2.830   4.637  0.00  0.00    +0.000 HD
ATOM     28  H   UNL     1      46.781   3.884   5.215  0.00  0.00    +0.000 HD
ENDBRANCH  18  25
ENDBRANCH  16  21
ENDBRANCH   1  16
TORSDOF 5
ENDMDL
MODEL 3
REMARK VINA RESULT:    -8.370      1.752      2.428
REMARK INTER + INTRA:         -11.537
REMARK INTER:                 -10.993
REMARK INTRA:                  -0.544
REMARK UNBOUND:                -0.720
REMARK  Name = 
REMARK  5 active torsions:
REMARK  status: ('A' for Active; 'I' for Inactive)
REMARK    1  A    between atoms: C_2  and  C_4
REMARK    2  A    between atoms: C_7  and  N_8
REMARK    3  A    between atoms: N_8  and  C_9
REMARK    4  A    between atoms: C_9  and  C_10
REMARK    5  A    between atoms: C_14  and  C_15
REMARK                            x       y       z     vdW  Elec       q    Type
REMARK                         _______ _______ _______ _____ _____    ______ ____
ROOT
ATOM      1  C   UNL     1      44.063   5.131  11.666  0.00  0.00    +0.000 C 
ATOM      2  C   UNL     1      44.314   4.101  12.765  0.00  0.00    +0.000 C 
ATOM      3  C   UNL     1      43.019   4.838  12.737  0.00  0.00    +0.000 C 
ENDROOT
BRANCH   1   4
ATOM      4  C   UNL     1      44.802   6.467  11.777  0.00  0.00    +0.000 A 
ATOM      5  C   UNL     1      44.284   7.661  11.254  0.00  0.00    +0.000 A 
ATOM      6  C   UNL     1      44.904   8.887  11.507  0.00  0.00    +0.000 A 
ATOM      7  C   UNL     1      46.051   8.944  12.301  0.00  0.00    +0.000 A 
ATOM      8  C   UNL     1      46.618   7.779  12.834  0.00  0.00    +0.000 A 
ATOM      9  C   UNL     1      46.000   6.559  12.511  0.00  0.00    +0.000 A 
BRANCH   8  10
ATOM     10  C   UNL     1      47.733   7.807  13.802  0.00  0.00    +0.000 A 
ATOM     11  C   UNL     1      47.894   8.867  14.703  0.00  0.00    +0.000 A 
ATOM     12  C   UNL     1      48.872   8.818  15.696  0.00  0.00    +0.000 A 
ATOM     13  C   UNL     1      49.676   7.695  15.767  0.00  0.00    +0.000 A 
ATOM     14  N   UNL     1      49.582   6.654  14.917  0.00  0.00    +0.000 NA
ATOM     15  C   UNL     1      48.623   6.738  13.959  0.00  0.00    +0.000 A 
ENDBRANCH   8  10
ENDBRANCH   1   4
BRANCH   1  16
ATOM     16  N   UNL     1      43.788   4.689  10.290  0.00  0.00    +0.000 N 
ATOM     17  H   UNL     1      42.822   4.606   9.988  0.00  0.00    +0.000 HD
BRANCH  16  21
ATOM     18  C   UNL     1      46.462   2.579   7.778  0.00  0.00    +0.000 A 
ATOM     19  C   UNL     1      46.438   3.971   7.753  0.00  0.00    +0.000 A 
ATOM     20  C   UNL     1      45.559   4.664   8.584  0.00  0.00    +0.000 A 
ATOM     21  C   UNL     1      44.715   4.004   9.485  0.00  0.00    +0.000 A 
ATOM     22  C   UNL     1      44.740   2.603   9.490  0.00  0.00    +0.000 A 
ATOM     23  C   UNL     1      45.603   1.892   8.640  0.00  0.00    +0.000 A 
BRANCH  18  25
ATOM     24  N   UNL     1      48.399   2.495   6.299  0.00  0.00    +0.000 N 
ATOM     25  C   UNL     1      47.358   1.814   6.864  0.00  0.00    +0.000 C 
ATOM     26  O   UNL     1      47.175   0.627   6.637  0.00  0.00    +0.000 OA
ATOM     27  H   UNL     1      49.025   1.962   5.710  0.00  0.00    +0.000 HD
ATOM     28  H   UNL     1      48.711   3.397   6.623  0.00  0.00    +0.000 HD
ENDBRANCH  18  25
ENDBRANCH  16  21
ENDBRANCH   1  16
TORSDOF 5
ENDMDL
MODEL 4
REMARK VINA RESULT:    -7.819      2.852      7.525
REMARK INTER + INTRA:         -10.825
REMARK INTER:                  -9.767
REMARK INTRA:                  -1.058
REMARK UNBOUND:                -0.720
REMARK  Name = 
REMARK  5 active torsions:
REMARK  status: ('A' for Active; 'I' for Inactive)
REMARK    1  A    between atoms: C_2  and  C_4
REMARK    2  A    between atoms: C_7  and  N_8
REMARK    3  A    between atoms: N_8  and  C_9
REMARK    4  A    between atoms: C_9  and  C_10
REMARK    5  A    between atoms: C_14  and  C_15
REMARK                            x       y       z     vdW  Elec       q    Type
REMARK                         _______ _______ _______ _____ _____    ______ ____
ROOT
ATOM      1  C   UNL     1      46.277   7.247  12.285  0.00  0.00    +0.000 C 
ATOM      2  C   UNL     1      46.245   8.676  11.746  0.00  0.00    +0.000 C 
ATOM      3  C   UNL     1      45.689   8.393  13.100  0.00  0.00    +0.000 C 
ENDROOT
BRANCH   1   4
ATOM      4  C   UNL     1      45.282   6.251  11.686  0.00  0.00    +0.000 A 
ATOM      5  C   UNL     1      43.896   6.370  11.863  0.00  0.00    +0.000 A 
ATOM      6  C   UNL     1      43.007   5.540  11.177  0.00  0.00    +0.000 A 
ATOM      7  C   UNL     1      43.489   4.577  10.286  0.00  0.00    +0.000 A 
ATOM      8  C   UNL     1      44.866   4.406  10.085  0.00  0.00    +0.000 A 
ATOM      9  C   UNL     1      45.730   5.221  10.836  0.00  0.00    +0.000 A 
BRANCH   8  10
ATOM     10  C   UNL     1      45.413   3.514   9.044  0.00  0.00    +0.000 A 
ATOM     11  C   UNL     1      46.047   4.023   7.903  0.00  0.00    +0.000 A 
ATOM     12  C   UNL     1      46.672   3.170   6.995  0.00  0.00    +0.000 A 
ATOM     13  C   UNL     1      46.651   1.811   7.251  0.00  0.00    +0.000 A 
ATOM     14  N   UNL     1      46.042   1.262   8.319  0.00  0.00    +0.000 NA
ATOM     15  C   UNL     1      45.437   2.121   9.180  0.00  0.00    +0.000 A 
ENDBRANCH   8  10
ENDBRANCH   1   4
BRANCH   1  16
ATOM     16  N   UNL     1      47.548   6.657  12.734  0.00  0.00    +0.000 N 
ATOM     17  H   UNL     1      48.257   6.438  12.040  0.00  0.00    +0.000 HD
BRANCH  16  21
ATOM     18  C   UNL     1      47.985   4.829  16.525  0.00  0.00    +0.000 A 
ATOM     19  C   UNL     1      47.181   4.234  15.556  0.00  0.00    +0.000 A 
ATOM     20  C   UNL     1      47.042   4.837  14.307  0.00  0.00    +0.000 A 
ATOM     21  C   UNL     1      47.721   6.013  13.971  0.00  0.00    +0.000 A 
ATOM     22  C   UNL     1      48.516   6.608  14.961  0.00  0.00    +0.000 A 
ATOM     23  C   UNL     1      48.646   6.025  16.232  0.00  0.00    +0.000 A 
BRANCH  18  25
ATOM     24  N   UNL     1      47.378   4.800  18.887  0.00  0.00    +0.000 N 
ATOM     25  C   UNL     1      48.111   4.230  17.885  0.00  0.00    +0.000 C 
ATOM     26  O   UNL     1      48.833   3.265  18.094  0.00  0.00    +0.000 OA
ATOM     27  H   UNL     1      47.439   4.367  19.799  0.00  0.00    +0.000 HD
ATOM     28  H   UNL     1      46.619   5.442  18.720  0.00  0.00    +0.000 HD
ENDBRANCH  18  25
ENDBRANCH  16  21
ENDBRANCH   1  16
TORSDOF 5
ENDMDL
MODEL 5
REMARK VINA RESULT:    -7.106      2.848      4.555
REMARK INTER + INTRA:          -9.903
REMARK INTER:                  -8.712
REMARK INTRA:                  -1.191
REMARK UNBOUND:                -0.720
REMARK  Name = 
REMARK  5 active torsions:
REMARK  status: ('A' for Active; 'I' for Inactive)
REMARK    1  A    between atoms: C_2  and  C_4
REMARK    2  A    between atoms: C_7  and  N_8
REMARK    3  A    between atoms: N_8  and  C_9
REMARK    4  A    between atoms: C_9  and  C_10
REMARK    5  A    between atoms: C_14  and  C_15
REMARK                            x       y       z     vdW  Elec       q    Type
REMARK                         _______ _______ _______ _____ _____    ______ ____
ROOT
ATOM      1  C   UNL     1      47.475   8.133  13.224  0.00  0.00    +0.000 C 
ATOM      2  C   UNL     1      48.117   9.131  12.263  0.00  0.00    +0.000 C 
ATOM      3  C   UNL     1      48.354   7.673  12.068  0.00  0.00    +0.000 C 
ENDROOT
BRANCH   1   4
ATOM      4  C   UNL     1      48.076   8.026  14.627  0.00  0.00    +0.000 A 
ATOM      5  C   UNL     1      48.069   9.095  15.535  0.00  0.00    +0.000 A 
ATOM      6  C   UNL     1      48.482   8.921  16.858  0.00  0.00    +0.000 A 
ATOM      7  C   UNL     1      48.901   7.665  17.304  0.00  0.00    +0.000 A 
ATOM      8  C   UNL     1      48.944   6.567  16.433  0.00  0.00    +0.000 A 
ATOM      9  C   UNL     1      48.575   6.795  15.096  0.00  0.00    +0.000 A 
BRANCH   8  10
ATOM     10  C   UNL     1      49.229   5.195  16.895  0.00  0.00    +0.000 A 
ATOM     11  C   UNL     1      48.274   4.175  16.795  0.00  0.00    +0.000 A 
ATOM     12  C   UNL     1      48.601   2.858  17.115  0.00  0.00    +0.000 A 
ATOM     13  C   UNL     1      49.891   2.586  17.530  0.00  0.00    +0.000 A 
ATOM     14  N   UNL     1      50.846   3.526  17.664  0.00  0.00    +0.000 NA
ATOM     15  C   UNL     1      50.492   4.799  17.352  0.00  0.00    +0.000 A 
ENDBRANCH   8  10
ENDBRANCH   1   4
BRANCH   1  16
ATOM     16  N   UNL     1      46.031   7.861  13.148  0.00  0.00    +0.000 N 
ATOM     17  H   UNL     1      45.397   8.433  13.699  0.00  0.00    +0.000 HD
BRANCH  16  21
ATOM     18  C   UNL     1      44.485   4.209  11.670  0.00  0.00    +0.000 A 
ATOM     19  C   UNL     1      45.187   4.230  12.873  0.00  0.00    +0.000 A 
ATOM     20  C   UNL     1      45.691   5.435  13.359  0.00  0.00    +0.000 A 
ATOM     21  C   UNL     1      45.483   6.649  12.695  0.00  0.00    +0.000 A 
ATOM     22  C   UNL     1      44.787   6.611  11.478  0.00  0.00    +0.000 A 
ATOM     23  C   UNL     1      44.294   5.400  10.965  0.00  0.00    +0.000 A 
BRANCH  18  25
ATOM     24  N   UNL     1      44.718   2.347  10.114  0.00  0.00    +0.000 N 
ATOM     25  C   UNL     1      43.977   2.926  11.105  0.00  0.00    +0.000 C 
ATOM     26  O   UNL     1      42.948   2.410  11.516  0.00  0.00    +0.000 OA
ATOM     27  H   UNL     1      44.389   1.458   9.760  0.00  0.00    +0.000 HD
ATOM     28  H   UNL     1      45.666   2.616   9.902  0.00  0.00    +0.000 HD
ENDBRANCH  18  25
ENDBRANCH  16  21
ENDBRANCH   1  16
TORSDOF 5
ENDMDL
MODEL 6
REMARK VINA RESULT:    -7.006      3.161      7.038
REMARK INTER + INTRA:          -9.775
REMARK INTER:                  -8.551
REMARK INTRA:                  -1.223
REMARK UNBOUND:                -0.720
REMARK  Name = 
REMARK  5 active torsions:
REMARK  status: ('A' for Active; 'I' for Inactive)
REMARK    1  A    between atoms: C_2  and  C_4
REMARK    2  A    between atoms: C_7  and  N_8
REMARK    3  A    between atoms: N_8  and  C_9
REMARK    4  A    between atoms: C_9  and  C_10
REMARK    5  A    between atoms: C_14  and  C_15
REMARK                            x       y       z     vdW  Elec       q    Type
REMARK                         _______ _______ _______ _____ _____    ______ ____
ROOT
ATOM      1  C   UNL     1      46.350   5.038  13.870  0.00  0.00    +0.000 C 
ATOM      2  C   UNL     1      46.367   4.115  15.086  0.00  0.00    +0.000 C 
ATOM      3  C   UNL     1      47.422   3.969  14.043  0.00  0.00    +0.000 C 
ENDROOT
BRANCH   1   4
ATOM      4  C   UNL     1      45.284   4.773  12.805  0.00  0.00    +0.000 A 
ATOM      5  C   UNL     1      43.992   5.317  12.879  0.00  0.00    +0.000 A 
ATOM      6  C   UNL     1      43.094   5.187  11.817  0.00  0.00    +0.000 A 
ATOM      7  C   UNL     1      43.475   4.518  10.651  0.00  0.00    +0.000 A 
ATOM      8  C   UNL     1      44.748   3.942  10.533  0.00  0.00    +0.000 A 
ATOM      9  C   UNL     1      45.603   4.044  11.644  0.00  0.00    +0.000 A 
BRANCH   8  10
ATOM     10  C   UNL     1      45.246   3.365   9.269  0.00  0.00    +0.000 A 
ATOM     11  C   UNL     1      45.661   4.179   8.206  0.00  0.00    +0.000 A 
ATOM     12  C   UNL     1      46.250   3.623   7.071  0.00  0.00    +0.000 A 
ATOM     13  C   UNL     1      46.414   2.252   7.023  0.00  0.00    +0.000 A 
ATOM     14  N   UNL     1      46.019   1.418   8.004  0.00  0.00    +0.000 NA
ATOM     15  C   UNL     1      45.443   1.991   9.092  0.00  0.00    +0.000 A 
ENDBRANCH   8  10
ENDBRANCH   1   4
BRANCH   1  16
ATOM     16  N   UNL     1      46.747   6.448  14.010  0.00  0.00    +0.000 N 
ATOM     17  H   UNL     1      46.055   7.121  14.325  0.00  0.00    +0.000 HD
BRANCH  16  21
ATOM     18  C   UNL     1      50.204   8.017  12.139  0.00  0.00    +0.000 A 
ATOM     19  C   UNL     1      49.068   7.742  11.380  0.00  0.00    +0.000 A 
ATOM     20  C   UNL     1      47.930   7.229  12.000  0.00  0.00    +0.000 A 
ATOM     21  C   UNL     1      47.870   7.013  13.382  0.00  0.00    +0.000 A 
ATOM     22  C   UNL     1      49.026   7.281  14.130  0.00  0.00    +0.000 A 
ATOM     23  C   UNL     1      50.187   7.775  13.515  0.00  0.00    +0.000 A 
BRANCH  18  25
ATOM     24  N   UNL     1      52.566   7.739  11.599  0.00  0.00    +0.000 N 
ATOM     25  C   UNL     1      51.450   8.520  11.492  0.00  0.00    +0.000 C 
ATOM     26  O   UNL     1      51.470   9.581  10.884  0.00  0.00    +0.000 OA
ATOM     27  H   UNL     1      53.398   8.067  11.126  0.00  0.00    +0.000 HD
ATOM     28  H   UNL     1      52.540   6.775  11.894  0.00  0.00    +0.000 HD
ENDBRANCH  18  25
ENDBRANCH  16  21
ENDBRANCH   1  16
TORSDOF 5
ENDMDL
MODEL 7
REMARK VINA RESULT:    -6.854      3.309      7.262
REMARK INTER + INTRA:          -9.578
REMARK INTER:                  -8.368
REMARK INTRA:                  -1.211
REMARK UNBOUND:                -0.720
REMARK  Name = 
REMARK  5 active torsions:
REMARK  status: ('A' for Active; 'I' for Inactive)
REMARK    1  A    between atoms: C_2  and  C_4
REMARK    2  A    between atoms: C_7  and  N_8
REMARK    3  A    between atoms: N_8  and  C_9
REMARK    4  A    between atoms: C_9  and  C_10
REMARK    5  A    between atoms: C_14  and  C_15
REMARK                            x       y       z     vdW  Elec       q    Type
REMARK                         _______ _______ _______ _____ _____    ______ ____
ROOT
ATOM      1  C   UNL     1      45.920   4.984  13.290  0.00  0.00    +0.000 C 
ATOM      2  C   UNL     1      46.908   4.411  14.305  0.00  0.00    +0.000 C 
ATOM      3  C   UNL     1      47.426   5.113  13.096  0.00  0.00    +0.000 C 
ENDROOT
BRANCH   1   4
ATOM      4  C   UNL     1      45.196   3.989  12.380  0.00  0.00    +0.000 A 
ATOM      5  C   UNL     1      43.912   3.502  12.665  0.00  0.00    +0.000 A 
ATOM      6  C   UNL     1      43.215   2.720  11.741  0.00  0.00    +0.000 A 
ATOM      7  C   UNL     1      43.787   2.419  10.502  0.00  0.00    +0.000 A 
ATOM      8  C   UNL     1      45.074   2.866  10.174  0.00  0.00    +0.000 A 
ATOM      9  C   UNL     1      45.766   3.601  11.152  0.00  0.00    +0.000 A 
BRANCH   8  10
ATOM     10  C   UNL     1      45.653   2.705   8.826  0.00  0.00    +0.000 A 
ATOM     11  C   UNL     1      45.832   3.799   7.970  0.00  0.00    +0.000 A 
ATOM     12  C   UNL     1      46.497   3.653   6.754  0.00  0.00    +0.000 A 
ATOM     13  C   UNL     1      46.977   2.401   6.417  0.00  0.00    +0.000 A 
ATOM     14  N   UNL     1      46.820   1.308   7.189  0.00  0.00    +0.000 NA
ATOM     15  C   UNL     1      46.160   1.485   8.363  0.00  0.00    +0.000 A 
ENDBRANCH   8  10
ENDBRANCH   1   4
BRANCH   1  16
ATOM     16  N   UNL     1      45.155   6.199  13.610  0.00  0.00    +0.000 N 
ATOM     17  H   UNL     1      44.515   6.178  14.398  0.00  0.00    +0.000 HD
BRANCH  16  21
ATOM     18  C   UNL     1      44.353   9.382  10.939  0.00  0.00    +0.000 A 
ATOM     19  C   UNL     1      45.231   9.573  12.003  0.00  0.00    +0.000 A 
ATOM     20  C   UNL     1      45.496   8.521  12.879  0.00  0.00    +0.000 A 
ATOM     21  C   UNL     1      44.936   7.250  12.704  0.00  0.00    +0.000 A 
ATOM     22  C   UNL     1      44.044   7.077  11.637  0.00  0.00    +0.000 A 
ATOM     23  C   UNL     1      43.749   8.134  10.761  0.00  0.00    +0.000 A 
BRANCH  18  25
ATOM     24  N   UNL     1      42.898  10.361   9.245  0.00  0.00    +0.000 N 
ATOM     25  C   UNL     1      44.016  10.504  10.017  0.00  0.00    +0.000 C 
ATOM     26  O   UNL     1      44.704  11.513   9.960  0.00  0.00    +0.000 OA
ATOM     27  H   UNL     1      42.653  11.141   8.650  0.00  0.00    +0.000 HD
ATOM     28  H   UNL     1      42.194   9.659   9.415  0.00  0.00    +0.000 HD
ENDBRANCH  18  25
ENDBRANCH  16  21
ENDBRANCH   1  16
TORSDOF 5
ENDMDL
MODEL 8
REMARK VINA RESULT:    -6.731      2.896      7.551
REMARK INTER + INTRA:          -9.419
REMARK INTER:                  -9.296
REMARK INTRA:                  -0.123
REMARK UNBOUND:                -0.720
REMARK  Name = 
REMARK  5 active torsions:
REMARK  status: ('A' for Active; 'I' for Inactive)
REMARK    1  A    between atoms: C_2  and  C_4
REMARK    2  A    between atoms: C_7  and  N_8
REMARK    3  A    between atoms: N_8  and  C_9
REMARK    4  A    between atoms: C_9  and  C_10
REMARK    5  A    between atoms: C_14  and  C_15
REMARK                            x       y       z     vdW  Elec       q    Type
REMARK                         _______ _______ _______ _____ _____    ______ ____
ROOT
ATOM      1  C   UNL     1      48.729   7.876  12.695  0.00  0.00    +0.000 C 
ATOM      2  C   UNL     1      49.730   7.296  11.697  0.00  0.00    +0.000 C 
ATOM      3  C   UNL     1      49.564   8.775  11.791  0.00  0.00    +0.000 C 
ENDROOT
BRANCH   1   4
ATOM      4  C   UNL     1      47.244   7.748  12.350  0.00  0.00    +0.000 A 
ATOM      5  C   UNL     1      46.336   8.805  12.517  0.00  0.00    +0.000 A 
ATOM      6  C   UNL     1      45.024   8.710  12.048  0.00  0.00    +0.000 A 
ATOM      7  C   UNL     1      44.595   7.555  11.389  0.00  0.00    +0.000 A 
ATOM      8  C   UNL     1      45.456   6.463  11.212  0.00  0.00    +0.000 A 
ATOM      9  C   UNL     1      46.751   6.575  11.747  0.00  0.00    +0.000 A 
BRANCH   8  10
ATOM     10  C   UNL     1      45.097   5.291  10.390  0.00  0.00    +0.000 A 
ATOM     11  C   UNL     1      45.692   5.061   9.143  0.00  0.00    +0.000 A 
ATOM     12  C   UNL     1      45.439   3.884   8.438  0.00  0.00    +0.000 A 
ATOM     13  C   UNL     1      44.588   2.953   9.004  0.00  0.00    +0.000 A 
ATOM     14  N   UNL     1      43.972   3.126  10.189  0.00  0.00    +0.000 NA
ATOM     15  C   UNL     1      44.235   4.286  10.844  0.00  0.00    +0.000 A 
ENDBRANCH   8  10
ENDBRANCH   1   4
BRANCH   1  16
ATOM     16  N   UNL     1      49.033   7.866  14.134  0.00  0.00    +0.000 N 
ATOM     17  H   UNL     1      49.810   8.425  14.473  0.00  0.00    +0.000 HD
BRANCH  16  21
ATOM     18  C   UNL     1      47.830   4.752  16.735  0.00  0.00    +0.000 A 
ATOM     19  C   UNL     1      48.610   5.799  17.220  0.00  0.00    +0.000 A 
ATOM     20  C   UNL     1      49.001   6.825  16.362  0.00  0.00    +0.000 A 
ATOM     21  C   UNL     1      48.601   6.865  15.021  0.00  0.00    +0.000 A 
ATOM     22  C   UNL     1      47.828   5.797  14.543  0.00  0.00    +0.000 A 
ATOM     23  C   UNL     1      47.447   4.744  15.391  0.00  0.00    +0.000 A 
BRANCH  18  25
ATOM     24  N   UNL     1      48.132   3.472  18.789  0.00  0.00    +0.000 N 
ATOM     25  C   UNL     1      47.439   3.617  17.620  0.00  0.00    +0.000 C 
ATOM     26  O   UNL     1      46.532   2.854  17.318  0.00  0.00    +0.000 OA
ATOM     27  H   UNL     1      47.838   2.724  19.403  0.00  0.00    +0.000 HD
ATOM     28  H   UNL     1      48.724   4.191  19.173  0.00  0.00    +0.000 HD
ENDBRANCH  18  25
ENDBRANCH  16  21
ENDBRANCH   1  16
TORSDOF 5
ENDMDL
MODEL 9
REMARK VINA RESULT:    -6.369      3.813      8.590
REMARK INTER + INTRA:          -8.952
REMARK INTER:                  -7.959
REMARK INTRA:                  -0.993
REMARK UNBOUND:                -0.720
REMARK  Name = 
REMARK  5 active torsions:
REMARK  status: ('A' for Active; 'I' for Inactive)
REMARK    1  A    between atoms: C_2  and  C_4
REMARK    2  A    between atoms: C_7  and  N_8
REMARK    3  A    between atoms: N_8  and  C_9
REMARK    4  A    between atoms: C_9  and  C_10
REMARK    5  A    between atoms: C_14  and  C_15
REMARK                            x       y       z     vdW  Elec       q    Type
REMARK                         _______ _______ _______ _____ _____    ______ ____
ROOT
ATOM      1  C   UNL     1      49.048   7.692  12.627  0.00  0.00    +0.000 C 
ATOM      2  C   UNL     1      49.929   7.810  11.384  0.00  0.00    +0.000 C 
ATOM      3  C   UNL     1      49.672   9.020  12.215  0.00  0.00    +0.000 C 
ENDROOT
BRANCH   1   4
ATOM      4  C   UNL     1      47.541   7.546  12.405  0.00  0.00    +0.000 A 
ATOM      5  C   UNL     1      46.631   8.570  12.707  0.00  0.00    +0.000 A 
ATOM      6  C   UNL     1      45.285   8.467  12.349  0.00  0.00    +0.000 A 
ATOM      7  C   UNL     1      44.823   7.338  11.668  0.00  0.00    +0.000 A 
ATOM      8  C   UNL     1      45.688   6.279  11.357  0.00  0.00    +0.000 A 
ATOM      9  C   UNL     1      47.022   6.394  11.784  0.00  0.00    +0.000 A 
BRANCH   8  10
ATOM     10  C   UNL     1      45.281   5.143  10.506  0.00  0.00    +0.000 A 
ATOM     11  C   UNL     1      45.659   5.065   9.159  0.00  0.00    +0.000 A 
ATOM     12  C   UNL     1      45.378   3.927   8.405  0.00  0.00    +0.000 A 
ATOM     13  C   UNL     1      44.720   2.878   9.021  0.00  0.00    +0.000 A 
ATOM     14  N   UNL     1      44.316   2.903  10.305  0.00  0.00    +0.000 NA
ATOM     15  C   UNL     1      44.598   4.030  11.009  0.00  0.00    +0.000 A 
ENDBRANCH   8  10
ENDBRANCH   1   4
BRANCH   1  16
ATOM     16  N   UNL     1      49.563   7.028  13.835  0.00  0.00    +0.000 N 
ATOM     17  H   UNL     1      50.051   6.143  13.735  0.00  0.00    +0.000 HD
BRANCH  16  21
ATOM     18  C   UNL     1      48.334   7.822  17.806  0.00  0.00    +0.000 A 
ATOM     19  C   UNL     1      48.481   8.872  16.901  0.00  0.00    +0.000 A 
ATOM     20  C   UNL     1      48.882   8.606  15.593  0.00  0.00    +0.000 A 
ATOM     21  C   UNL     1      49.108   7.303  15.135  0.00  0.00    +0.000 A 
ATOM     22  C   UNL     1      48.971   6.259  16.061  0.00  0.00    +0.000 A 
ATOM     23  C   UNL     1      48.591   6.514  17.389  0.00  0.00    +0.000 A 
BRANCH  18  25
ATOM     24  N   UNL     1      48.298   7.138  20.146  0.00  0.00    +0.000 N 
ATOM     25  C   UNL     1      47.954   8.084  19.224  0.00  0.00    +0.000 C 
ATOM     26  O   UNL     1      47.367   9.107  19.548  0.00  0.00    +0.000 OA
ATOM     27  H   UNL     1      48.071   7.338  21.111  0.00  0.00    +0.000 HD
ATOM     28  H   UNL     1      48.962   6.401  19.961  0.00  0.00    +0.000 HD
ENDBRANCH  18  25
ENDBRANCH  16  21
ENDBRANCH   1  16
TORSDOF 5
ENDMDL
