MODEL 1
REMARK VINA RESULT:    -7.957      0.000      0.000
REMARK INTER + INTRA:         -13.097
REMARK INTER:                 -11.679
REMARK INTRA:                  -1.418
REMARK UNBOUND:                -1.418
REMARK  Name = 
REMARK  9 active torsions:
REMARK  status: ('A' for Active; 'I' for Inactive)
REMARK    1  A    between atoms: C_1  and  O_2
REMARK    2  A    between atoms: O_2  and  C_3
REMARK    3  A    between atoms: C_10  and  C_11
REMARK    4  A    between atoms: N_13  and  C_14
REMARK    5  A    between atoms: C_14  and  C_15
REMARK    6  A    between atoms: C_18  and  C_19
REMARK    7  A    between atoms: C_19  and  N_20
REMARK    8  A    between atoms: N_20  and  C_21
REMARK    9  A    between atoms: C_21  and  C_22
REMARK                            x       y       z     vdW  Elec       q    Type
REMARK                         _______ _______ _______ _____ _____    ______ ____
ROOT
ATOM      1  C   UNL     1      47.420   6.392  12.945  0.00  0.00    +0.000 A 
ATOM      2  C   UNL     1      46.548   5.502  13.588  0.00  0.00    +0.000 A 
ATOM      3  C   UNL     1      45.257   5.284  13.092  0.00  0.00    +0.000 A 
ATOM      4  C   UNL     1      44.809   5.938  11.935  0.00  0.00    +0.000 A 
ATOM      5  C   UNL     1      45.700   6.789  11.266  0.00  0.00    +0.000 A 
ATOM      6  C   UNL     1      46.992   7.008  11.761  0.00  0.00    +0.000 A 
ENDROOT
BRANCH   1   7
ATOM      7  C   UNL     1      48.794   6.670  13.508  0.00  0.00    +0.000 C 
BRANCH   7  10
ATOM      8  C   UNL     1      49.806   7.216  15.688  0.00  0.00    +0.000 C 
ATOM      9  O   UNL     1      50.786   7.726  15.149  0.00  0.00    +0.000 OA
ATOM     10  N   UNL     1      48.789   6.677  14.950  0.00  0.00    +0.000 N 
ATOM     11  H   UNL     1      48.021   6.213  15.410  0.00  0.00    +0.000 HD
BRANCH   8  19
ATOM     12  C   UNL     1      48.977   4.721  17.904  0.00  0.00    +0.000 A 
ATOM     13  N   UNL     1      48.683   3.945  18.965  0.00  0.00    +0.000 NA
ATOM     14  C   UNL     1      48.711   4.506  20.178  0.00  0.00    +0.000 A 
ATOM     15  N   UNL     1      49.005   5.771  20.471  0.00  0.00    +0.000 NA
ATOM     16  C   UNL     1      49.296   6.506  19.384  0.00  0.00    +0.000 A 
ATOM     17  S   UNL     1      49.703   8.145  19.565  0.00  0.00    +0.000 S 
ATOM     18  C   UNL     1      49.908   8.331  17.887  0.00  0.00    +0.000 A 
ATOM     19  C   UNL     1      49.677   7.169  17.158  0.00  0.00    +0.000 A 
ATOM     20  C   UNL     1      49.316   6.077  18.062  0.00  0.00    +0.000 A 
BRANCH  12  22
ATOM     21  C   UNL     1      47.866   3.298  16.409  0.00  0.00    +0.000 C 
ATOM     22  O   UNL     1      48.989   4.139  16.656  0.00  0.00    +0.000 OA
ENDBRANCH  12  22
ENDBRANCH   8  19
ENDBRANCH   7  10
ENDBRANCH   1   7
BRANCH   4  23
ATOM     23  C   UNL     1      43.405   5.716  11.412  0.00  0.00    +0.000 C 
BRANCH  23  24
ATOM     24  N   UNL     1      43.416   5.043  10.111  0.00  0.00    +0.000 NA
ATOM     25  H   UNL     1      44.036   5.555   9.483  0.00  0.00    +0.000 HD
BRANCH  24  26
ATOM     26  C   UNL     1      43.879   3.659  10.224  0.00  0.00    +0.000 C 
BRANCH  26  27
ATOM     27  C   UNL     1      44.924   3.353   9.184  0.00  0.00    +0.000 A 
ATOM     28  C   UNL     1      45.521   4.365   8.434  0.00  0.00    +0.000 A 
ATOM     29  N   UNL     1      46.456   4.155   7.476  0.00  0.00    +0.000 NA
ATOM     30  C   UNL     1      46.818   2.868   7.256  0.00  0.00    +0.000 A 
ATOM     31  C   UNL     1      46.297   1.791   7.956  0.00  0.00    +0.000 A 
ATOM     32 CL   UNL     1      46.813   0.188   7.622  0.00  0.00    +0.000 Cl
ATOM     33  C   UNL     1      45.341   2.038   8.935  0.00  0.00    +0.000 A 
ENDBRANCH  26  27
ENDBRANCH  24  26
ENDBRANCH  23  24
ENDBRANCH   4  23
TORSDOF 8
ENDMDL
MODEL 2
REMARK VINA RESULT:    -7.580      1.980      2.947
REMARK INTER + INTRA:         -12.543
REMARK INTER:                 -11.321
REMARK INTRA:                  -1.223
REMARK UNBOUND:                -1.418
REMARK  Name = 
REMARK  9 active torsions:
REMARK  status: ('A' for Active; 'I' for Inactive)
REMARK    1  A    between atoms: C_1  and  O_2
REMARK    2  A    between atoms: O_2  and  C_3
REMARK    3  A    between atoms: C_10  and  C_11
REMARK    4  A    between atoms: N_13  and  C_14
REMARK    5  A    between atoms: C_14  and  C_15
REMARK    6  A    between atoms: C_18  and  C_19
REMARK    7  A    between atoms: C_19  and  N_20
REMARK    8  A    between atoms: N_20  and  C_21
REMARK    9  A    between atoms: C_21  and  C_22
REMARK                            x       y       z     vdW  Elec       q    Type
REMARK                         _______ _______ _______ _____ _____    ______ ____
ROOT
ATOM      1  C   UNL     1      46.813   6.460  12.989  0.00  0.00    +0.000 A 
ATOM      2  C   UNL     1      46.130   7.178  11.999  0.00  0.00    +0.000 A 
ATOM      3  C   UNL     1      45.047   6.606  11.320  0.00  0.00    +0.000 A 
ATOM      4  C   UNL     1      44.612   5.307  11.622  0.00  0.00    +0.000 A 
ATOM      5  C   UNL     1      45.266   4.610  12.648  0.00  0.00    +0.000 A 
ATOM      6  C   UNL     1      46.349   5.182  13.328  0.00  0.00    +0.000 A 
ENDROOT
BRANCH   1   7
ATOM      7  C   UNL     1      48.015   7.055  13.685  0.00  0.00    +0.000 C 
BRANCH   7  10
ATOM      8  C   UNL     1      48.929   6.592  15.927  0.00  0.00    +0.000 C 
ATOM      9  O   UNL     1      50.026   6.292  15.460  0.00  0.00    +0.000 OA
ATOM     10  N   UNL     1      47.894   6.975  15.120  0.00  0.00    +0.000 N 
ATOM     11  H   UNL     1      46.985   7.162  15.517  0.00  0.00    +0.000 HD
BRANCH   8  19
ATOM     12  C   UNL     1      47.800   8.931  18.180  0.00  0.00    +0.000 A 
ATOM     13  N   UNL     1      47.394   9.642  19.250  0.00  0.00    +0.000 NA
ATOM     14  C   UNL     1      47.394   9.035  20.441  0.00  0.00    +0.000 A 
ATOM     15  N   UNL     1      47.751   7.780  20.703  0.00  0.00    +0.000 NA
ATOM     16  C   UNL     1      48.143   7.108  19.606  0.00  0.00    +0.000 A 
ATOM     17  S   UNL     1      48.631   5.487  19.747  0.00  0.00    +0.000 S 
ATOM     18  C   UNL     1      48.937   5.383  18.078  0.00  0.00    +0.000 A 
ATOM     19  C   UNL     1      48.680   6.559  17.381  0.00  0.00    +0.000 A 
ATOM     20  C   UNL     1      48.198   7.588  18.303  0.00  0.00    +0.000 A 
BRANCH  12  22
ATOM     21  C   UNL     1      48.935  10.291  16.646  0.00  0.00    +0.000 C 
ATOM     22  O   UNL     1      47.764   9.539  16.945  0.00  0.00    +0.000 OA
ENDBRANCH  12  22
ENDBRANCH   8  19
ENDBRANCH   7  10
ENDBRANCH   1   7
BRANCH   4  23
ATOM     23  C   UNL     1      43.453   4.682  10.872  0.00  0.00    +0.000 C 
BRANCH  23  24
ATOM     24  N   UNL     1      43.901   3.593  10.001  0.00  0.00    +0.000 NA
ATOM     25  H   UNL     1      43.087   3.047   9.716  0.00  0.00    +0.000 HD
BRANCH  24  26
ATOM     26  C   UNL     1      44.583   4.102   8.811  0.00  0.00    +0.000 C 
BRANCH  26  27
ATOM     27  C   UNL     1      45.445   3.036   8.186  0.00  0.00    +0.000 A 
ATOM     28  C   UNL     1      45.539   1.761   8.741  0.00  0.00    +0.000 A 
ATOM     29  N   UNL     1      46.305   0.764   8.236  0.00  0.00    +0.000 NA
ATOM     30  C   UNL     1      47.012   1.052   7.117  0.00  0.00    +0.000 A 
ATOM     31  C   UNL     1      46.977   2.282   6.479  0.00  0.00    +0.000 A 
ATOM     32 CL   UNL     1      47.900   2.567   5.059  0.00  0.00    +0.000 Cl
ATOM     33  C   UNL     1      46.180   3.285   7.019  0.00  0.00    +0.000 A 
ENDBRANCH  26  27
ENDBRANCH  24  26
ENDBRANCH  23  24
ENDBRANCH   4  23
TORSDOF 8
ENDMDL
MODEL 3
REMARK VINA RESULT:    -7.572      1.063      1.080
REMARK INTER + INTRA:         -12.531
REMARK INTER:                 -11.137
REMARK INTRA:                  -1.394
REMARK UNBOUND:                -1.418
REMARK  Name = 
REMARK  9 active torsions:
REMARK  status: ('A' for Active; 'I' for Inactive)
REMARK    1  A    between atoms: C_1  and  O_2
REMARK    2  A    between atoms: O_2  and  C_3
REMARK    3  A    between atoms: C_10  and  C_11
REMARK    4  A    between atoms: N_13  and  C_14
REMARK    5  A    between atoms: C_14  and  C_15
REMARK    6  A    between atoms: C_18  and  C_19
REMARK    7  A    between atoms: C_19  and  N_20
REMARK    8  A    between atoms: N_20  and  C_21
REMARK    9  A    between atoms: C_21  and  C_22
REMARK                            x       y       z     vdW  Elec       q    Type
REMARK                         _______ _______ _______ _____ _____    ______ ____
ROOT
ATOM      1  C   UNL     1      47.356   6.358  12.748  0.00  0.00    +0.000 A 
ATOM      2  C   UNL     1      47.073   5.083  13.256  0.00  0.00    +0.000 A 
ATOM      3  C   UNL     1      45.790   4.534  13.137  0.00  0.00    +0.000 A 
ATOM      4  C   UNL     1      44.761   5.240  12.498  0.00  0.00    +0.000 A 
ATOM      5  C   UNL     1      45.059   6.494  11.946  0.00  0.00    +0.000 A 
ATOM      6  C   UNL     1      46.342   7.044  12.064  0.00  0.00    +0.000 A 
ENDROOT
BRANCH   1   7
ATOM      7  C   UNL     1      48.724   6.974  12.922  0.00  0.00    +0.000 C 
BRANCH   7  10
ATOM      8  C   UNL     1      48.635   7.967  15.176  0.00  0.00    +0.000 C 
ATOM      9  O   UNL     1      47.838   8.828  14.807  0.00  0.00    +0.000 OA
ATOM     10  N   UNL     1      49.114   7.025  14.309  0.00  0.00    +0.000 N 
ATOM     11  H   UNL     1      49.810   6.362  14.616  0.00  0.00    +0.000 HD
BRANCH   8  19
ATOM     12  C   UNL     1      48.990   5.400  17.435  0.00  0.00    +0.000 A 
ATOM     13  N   UNL     1      49.215   4.597  18.494  0.00  0.00    +0.000 NA
ATOM     14  C   UNL     1      49.672   5.158  19.618  0.00  0.00    +0.000 A 
ATOM     15  N   UNL     1      49.939   6.445  19.822  0.00  0.00    +0.000 NA
ATOM     16  C   UNL     1      49.704   7.207  18.739  0.00  0.00    +0.000 A 
ATOM     17  S   UNL     1      49.996   8.879  18.811  0.00  0.00    +0.000 S 
ATOM     18  C   UNL     1      49.499   9.085  17.199  0.00  0.00    +0.000 A 
ATOM     19  C   UNL     1      49.106   7.906  16.573  0.00  0.00    +0.000 A 
ATOM     20  C   UNL     1      49.237   6.783  17.501  0.00  0.00    +0.000 A 
BRANCH  12  22
ATOM     21  C   UNL     1      47.552   3.832  16.450  0.00  0.00    +0.000 C 
ATOM     22  O   UNL     1      48.559   4.822  16.262  0.00  0.00    +0.000 OA
ENDBRANCH  12  22
ENDBRANCH   8  19
ENDBRANCH   7  10
ENDBRANCH   1   7
BRANCH   4  23
ATOM     23  C   UNL     1      43.368   4.653  12.388  0.00  0.00    +0.000 C 
BRANCH  23  24
ATOM     24  N   UNL     1      43.088   4.183  11.030  0.00  0.00    +0.000 NA
ATOM     25  H   UNL     1      43.409   4.889  10.367  0.00  0.00    +0.000 HD
BRANCH  24  26
ATOM     26  C   UNL     1      43.762   2.915  10.749  0.00  0.00    +0.000 C 
BRANCH  26  27
ATOM     27  C   UNL     1      44.695   3.047   9.574  0.00  0.00    +0.000 A 
ATOM     28  C   UNL     1      44.919   4.279   8.961  0.00  0.00    +0.000 A 
ATOM     29  N   UNL     1      45.735   4.463   7.895  0.00  0.00    +0.000 NA
ATOM     30  C   UNL     1      46.363   3.362   7.416  0.00  0.00    +0.000 A 
ATOM     31  C   UNL     1      46.219   2.095   7.961  0.00  0.00    +0.000 A 
ATOM     32 CL   UNL     1      47.054   0.749   7.300  0.00  0.00    +0.000 Cl
ATOM     33  C   UNL     1      45.377   1.938   9.057  0.00  0.00    +0.000 A 
ENDBRANCH  26  27
ENDBRANCH  24  26
ENDBRANCH  23  24
ENDBRANCH   4  23
TORSDOF 8
ENDMDL
MODEL 4
REMARK VINA RESULT:    -7.408      1.987      3.141
REMARK INTER + INTRA:         -12.291
REMARK INTER:                 -11.127
REMARK INTRA:                  -1.164
REMARK UNBOUND:                -1.418
REMARK  Name = 
REMARK  9 active torsions:
REMARK  status: ('A' for Active; 'I' for Inactive)
REMARK    1  A    between atoms: C_1  and  O_2
REMARK    2  A    between atoms: O_2  and  C_3
REMARK    3  A    between atoms: C_10  and  C_11
REMARK    4  A    between atoms: N_13  and  C_14
REMARK    5  A    between atoms: C_14  and  C_15
REMARK    6  A    between atoms: C_18  and  C_19
REMARK    7  A    between atoms: C_19  and  N_20
REMARK    8  A    between atoms: N_20  and  C_21
REMARK    9  A    between atoms: C_21  and  C_22
REMARK                            x       y       z     vdW  Elec       q    Type
REMARK                         _______ _______ _______ _____ _____    ______ ____
ROOT
ATOM      1  C   UNL     1      46.791   4.336  14.033  0.00  0.00    +0.000 A 
ATOM      2  C   UNL     1      46.058   3.446  13.236  0.00  0.00    +0.000 A 
ATOM      3  C   UNL     1      45.395   3.894  12.087  0.00  0.00    +0.000 A 
ATOM      4  C   UNL     1      45.458   5.240  11.699  0.00  0.00    +0.000 A 
ATOM      5  C   UNL     1      46.233   6.119  12.469  0.00  0.00    +0.000 A 
ATOM      6  C   UNL     1      46.897   5.671  13.618  0.00  0.00    +0.000 A 
ENDROOT
BRANCH   1   7
ATOM      7  C   UNL     1      47.463   3.866  15.301  0.00  0.00    +0.000 C 
BRANCH   7  10
ATOM      8  C   UNL     1      48.602   5.250  16.993  0.00  0.00    +0.000 C 
ATOM      9  O   UNL     1      49.680   4.703  16.770  0.00  0.00    +0.000 OA
ATOM     10  N   UNL     1      47.470   4.894  16.314  0.00  0.00    +0.000 N 
ATOM     11  H   UNL     1      46.584   5.313  16.550  0.00  0.00    +0.000 HD
BRANCH   8  19
ATOM     12  C   UNL     1      48.435   8.678  16.778  0.00  0.00    +0.000 A 
ATOM     13  N   UNL     1      48.358  10.009  16.974  0.00  0.00    +0.000 NA
ATOM     14  C   UNL     1      48.273  10.452  18.233  0.00  0.00    +0.000 A 
ATOM     15  N   UNL     1      48.253   9.718  19.343  0.00  0.00    +0.000 NA
ATOM     16  C   UNL     1      48.327   8.398  19.099  0.00  0.00    +0.000 A 
ATOM     17  S   UNL     1      48.308   7.304  20.398  0.00  0.00    +0.000 S 
ATOM     18  C   UNL     1      48.424   5.975  19.345  0.00  0.00    +0.000 A 
ATOM     19  C   UNL     1      48.479   6.323  17.999  0.00  0.00    +0.000 A 
ATOM     20  C   UNL     1      48.414   7.778  17.859  0.00  0.00    +0.000 A 
BRANCH  12  22
ATOM     21  C   UNL     1      49.783   8.255  14.908  0.00  0.00    +0.000 C 
ATOM     22  O   UNL     1      48.481   8.214  15.482  0.00  0.00    +0.000 OA
ENDBRANCH  12  22
ENDBRANCH   8  19
ENDBRANCH   7  10
ENDBRANCH   1   7
BRANCH   4  23
ATOM     23  C   UNL     1      44.723   5.727  10.466  0.00  0.00    +0.000 C 
BRANCH  23  24
ATOM     24  N   UNL     1      45.367   5.259   9.237  0.00  0.00    +0.000 NA
ATOM     25  H   UNL     1      46.284   4.880   9.472  0.00  0.00    +0.000 HD
BRANCH  24  26
ATOM     26  C   UNL     1      44.572   4.225   8.572  0.00  0.00    +0.000 C 
BRANCH  26  27
ATOM     27  C   UNL     1      45.453   3.125   8.041  0.00  0.00    +0.000 A 
ATOM     28  C   UNL     1      45.539   1.890   8.681  0.00  0.00    +0.000 A 
ATOM     29  N   UNL     1      46.320   0.866   8.262  0.00  0.00    +0.000 NA
ATOM     30  C   UNL     1      47.054   1.083   7.144  0.00  0.00    +0.000 A 
ATOM     31  C   UNL     1      47.031   2.268   6.425  0.00  0.00    +0.000 A 
ATOM     32 CL   UNL     1      47.987   2.464   5.013  0.00  0.00    +0.000 Cl
ATOM     33  C   UNL     1      46.216   3.300   6.879  0.00  0.00    +0.000 A 
ENDBRANCH  26  27
ENDBRANCH  24  26
ENDBRANCH  23  24
ENDBRANCH   4  23
TORSDOF 8
ENDMDL
MODEL 5
REMARK VINA RESULT:    -7.372      2.320      3.945
REMARK INTER + INTRA:         -12.238
REMARK INTER:                 -10.886
REMARK INTRA:                  -1.352
REMARK UNBOUND:                -1.418
REMARK  Name = 
REMARK  9 active torsions:
REMARK  status: ('A' for Active; 'I' for Inactive)
REMARK    1  A    between atoms: C_1  and  O_2
REMARK    2  A    between atoms: O_2  and  C_3
REMARK    3  A    between atoms: C_10  and  C_11
REMARK    4  A    between atoms: N_13  and  C_14
REMARK    5  A    between atoms: C_14  and  C_15
REMARK    6  A    between atoms: C_18  and  C_19
REMARK    7  A    between atoms: C_19  and  N_20
REMARK    8  A    between atoms: N_20  and  C_21
REMARK    9  A    between atoms: C_21  and  C_22
REMARK                            x       y       z     vdW  Elec       q    Type
REMARK                         _______ _______ _______ _____ _____    ______ ____
ROOT
ATOM      1  C   UNL     1      46.301   4.713  13.864  0.00  0.00    +0.000 A 
ATOM      2  C   UNL     1      46.039   3.516  13.184  0.00  0.00    +0.000 A 
ATOM      3  C   UNL     1      45.107   3.478  12.138  0.00  0.00    +0.000 A 
ATOM      4  C   UNL     1      44.425   4.636  11.739  0.00  0.00    +0.000 A 
ATOM      5  C   UNL     1      44.726   5.842  12.388  0.00  0.00    +0.000 A 
ATOM      6  C   UNL     1      45.658   5.881  13.433  0.00  0.00    +0.000 A 
ENDROOT
BRANCH   1   7
ATOM      7  C   UNL     1      47.265   4.746  15.026  0.00  0.00    +0.000 C 
BRANCH   7  10
ATOM      8  C   UNL     1      49.058   6.205  15.882  0.00  0.00    +0.000 C 
ATOM      9  O   UNL     1      49.564   5.278  16.513  0.00  0.00    +0.000 OA
ATOM     10  N   UNL     1      47.931   6.022  15.131  0.00  0.00    +0.000 N 
ATOM     11  H   UNL     1      47.499   6.806  14.667  0.00  0.00    +0.000 HD
BRANCH   8  19
ATOM     12  C   UNL     1      50.052   8.379  13.410  0.00  0.00    +0.000 A 
ATOM     13  N   UNL     1      50.516   9.395  12.656  0.00  0.00    +0.000 NA
ATOM     14  C   UNL     1      50.999  10.471  13.286  0.00  0.00    +0.000 A 
ATOM     15  N   UNL     1      51.076  10.665  14.600  0.00  0.00    +0.000 NA
ATOM     16  C   UNL     1      50.598   9.629  15.311  0.00  0.00    +0.000 A 
ATOM     17  S   UNL     1      50.609   9.702  17.008  0.00  0.00    +0.000 S 
ATOM     18  C   UNL     1      49.907   8.158  17.129  0.00  0.00    +0.000 A 
ATOM     19  C   UNL     1      49.649   7.557  15.900  0.00  0.00    +0.000 A 
ATOM     20  C   UNL     1      50.061   8.447  14.815  0.00  0.00    +0.000 A 
BRANCH  12  22
ATOM     21  C   UNL     1      48.616   7.626  11.717  0.00  0.00    +0.000 C 
ATOM     22  O   UNL     1      49.515   7.285  12.768  0.00  0.00    +0.000 OA
ENDBRANCH  12  22
ENDBRANCH   8  19
ENDBRANCH   7  10
ENDBRANCH   1   7
BRANCH   4  23
ATOM     23  C   UNL     1      43.402   4.588  10.621  0.00  0.00    +0.000 C 
BRANCH  23  24
ATOM     24  N   UNL     1      43.745   3.573   9.623  0.00  0.00    +0.000 NA
ATOM     25  H   UNL     1      42.885   3.235   9.191  0.00  0.00    +0.000 HD
BRANCH  24  26
ATOM     26  C   UNL     1      44.626   4.112   8.587  0.00  0.00    +0.000 C 
BRANCH  26  27
ATOM     27  C   UNL     1      45.517   3.037   8.023  0.00  0.00    +0.000 A 
ATOM     28  C   UNL     1      45.624   1.788   8.633  0.00  0.00    +0.000 A 
ATOM     29  N   UNL     1      46.416   0.785   8.184  0.00  0.00    +0.000 NA
ATOM     30  C   UNL     1      47.138   1.038   7.065  0.00  0.00    +0.000 A 
ATOM     31  C   UNL     1      47.093   2.239   6.375  0.00  0.00    +0.000 A 
ATOM     32 CL   UNL     1      48.036   2.481   4.961  0.00  0.00    +0.000 Cl
ATOM     33  C   UNL     1      46.269   3.249   6.859  0.00  0.00    +0.000 A 
ENDBRANCH  26  27
ENDBRANCH  24  26
ENDBRANCH  23  24
ENDBRANCH   4  23
TORSDOF 8
ENDMDL
MODEL 6
REMARK VINA RESULT:    -7.283      2.048      2.444
REMARK INTER + INTRA:         -12.107
REMARK INTER:                 -11.023
REMARK INTRA:                  -1.083
REMARK UNBOUND:                -1.418
REMARK  Name = 
REMARK  9 active torsions:
REMARK  status: ('A' for Active; 'I' for Inactive)
REMARK    1  A    between atoms: C_1  and  O_2
REMARK    2  A    between atoms: O_2  and  C_3
REMARK    3  A    between atoms: C_10  and  C_11
REMARK    4  A    between atoms: N_13  and  C_14
REMARK    5  A    between atoms: C_14  and  C_15
REMARK    6  A    between atoms: C_18  and  C_19
REMARK    7  A    between atoms: C_19  and  N_20
REMARK    8  A    between atoms: N_20  and  C_21
REMARK    9  A    between atoms: C_21  and  C_22
REMARK                            x       y       z     vdW  Elec       q    Type
REMARK                         _______ _______ _______ _____ _____    ______ ____
ROOT
ATOM      1  C   UNL     1      47.380   7.494  13.640  0.00  0.00    +0.000 A 
ATOM      2  C   UNL     1      46.420   8.239  12.943  0.00  0.00    +0.000 A 
ATOM      3  C   UNL     1      45.540   7.614  12.050  0.00  0.00    +0.000 A 
ATOM      4  C   UNL     1      45.589   6.228  11.842  0.00  0.00    +0.000 A 
ATOM      5  C   UNL     1      46.517   5.478  12.579  0.00  0.00    +0.000 A 
ATOM      6  C   UNL     1      47.397   6.102  13.472  0.00  0.00    +0.000 A 
ENDROOT
BRANCH   1   7
ATOM      7  C   UNL     1      48.366   8.172  14.563  0.00  0.00    +0.000 C 
BRANCH   7  10
ATOM      8  C   UNL     1      49.547   7.220  16.505  0.00  0.00    +0.000 C 
ATOM      9  O   UNL     1      49.030   8.035  17.267  0.00  0.00    +0.000 OA
ATOM     10  N   UNL     1      49.270   7.224  15.167  0.00  0.00    +0.000 N 
ATOM     11  H   UNL     1      49.747   6.585  14.549  0.00  0.00    +0.000 HD
BRANCH   8  19
ATOM     12  C   UNL     1      49.395   3.791  16.713  0.00  0.00    +0.000 A 
ATOM     13  N   UNL     1      49.589   2.472  16.911  0.00  0.00    +0.000 NA
ATOM     14  C   UNL     1      50.739   2.087  17.474  0.00  0.00    +0.000 A 
ATOM     15  N   UNL     1      51.742   2.869  17.869  0.00  0.00    +0.000 NA
ATOM     16  C   UNL     1      51.506   4.174  17.647  0.00  0.00    +0.000 A 
ATOM     17  S   UNL     1      52.680   5.323  18.082  0.00  0.00    +0.000 S 
ATOM     18  C   UNL     1      51.706   6.601  17.525  0.00  0.00    +0.000 A 
ATOM     19  C   UNL     1      50.484   6.193  17.001  0.00  0.00    +0.000 A 
ATOM     20  C   UNL     1      50.373   4.736  17.072  0.00  0.00    +0.000 A 
BRANCH  12  22
ATOM     21  C   UNL     1      47.082   4.096  16.934  0.00  0.00    +0.000 C 
ATOM     22  O   UNL     1      48.230   4.190  16.097  0.00  0.00    +0.000 OA
ENDBRANCH  12  22
ENDBRANCH   8  19
ENDBRANCH   7  10
ENDBRANCH   1   7
BRANCH   4  23
ATOM     23  C   UNL     1      44.649   5.556  10.861  0.00  0.00    +0.000 C 
BRANCH  23  24
ATOM     24  N   UNL     1      45.336   5.197   9.618  0.00  0.00    +0.000 NA
ATOM     25  H   UNL     1      46.223   4.750   9.852  0.00  0.00    +0.000 HD
BRANCH  24  26
ATOM     26  C   UNL     1      44.534   4.285   8.803  0.00  0.00    +0.000 C 
BRANCH  26  27
ATOM     27  C   UNL     1      45.379   3.166   8.255  0.00  0.00    +0.000 A 
ATOM     28  C   UNL     1      45.375   1.899   8.837  0.00  0.00    +0.000 A 
ATOM     29  N   UNL     1      46.120   0.856   8.400  0.00  0.00    +0.000 NA
ATOM     30  C   UNL     1      46.911   1.086   7.324  0.00  0.00    +0.000 A 
ATOM     31  C   UNL     1      46.979   2.303   6.664  0.00  0.00    +0.000 A 
ATOM     32 CL   UNL     1      48.003   2.514   5.302  0.00  0.00    +0.000 Cl
ATOM     33  C   UNL     1      46.199   3.354   7.134  0.00  0.00    +0.000 A 
ENDBRANCH  26  27
ENDBRANCH  24  26
ENDBRANCH  23  24
ENDBRANCH   4  23
TORSDOF 8
ENDMDL
MODEL 7
REMARK VINA RESULT:    -6.861      3.846      8.107
REMARK INTER + INTRA:         -11.488
REMARK INTER:                  -9.799
REMARK INTRA:                  -1.689
REMARK UNBOUND:                -1.418
REMARK  Name = 
REMARK  9 active torsions:
REMARK  status: ('A' for Active; 'I' for Inactive)
REMARK    1  A    between atoms: C_1  and  O_2
REMARK    2  A    between atoms: O_2  and  C_3
REMARK    3  A    between atoms: C_10  and  C_11
REMARK    4  A    between atoms: N_13  and  C_14
REMARK    5  A    between atoms: C_14  and  C_15
REMARK    6  A    between atoms: C_18  and  C_19
REMARK    7  A    between atoms: C_19  and  N_20
REMARK    8  A    between atoms: N_20  and  C_21
REMARK    9  A    between atoms: C_21  and  C_22
REMARK                            x       y       z     vdW  Elec       q    Type
REMARK                         _______ _______ _______ _____ _____    ______ ____
ROOT
ATOM      1  C   UNL     1      48.524   7.959  13.287  0.00  0.00    +0.000 A 
ATOM      2  C   UNL     1      47.927   8.957  14.068  0.00  0.00    +0.000 A 
ATOM      3  C   UNL     1      47.992   8.906  15.466  0.00  0.00    +0.000 A 
ATOM      4  C   UNL     1      48.665   7.863  16.118  0.00  0.00    +0.000 A 
ATOM      5  C   UNL     1      49.304   6.892  15.334  0.00  0.00    +0.000 A 
ATOM      6  C   UNL     1      49.240   6.943  13.936  0.00  0.00    +0.000 A 
ENDROOT
BRANCH   1   7
ATOM      7  C   UNL     1      48.409   7.982  11.781  0.00  0.00    +0.000 C 
BRANCH   7  10
ATOM      8  C   UNL     1      46.278   6.896  11.189  0.00  0.00    +0.000 C 
ATOM      9  O   UNL     1      45.634   7.889  11.524  0.00  0.00    +0.000 OA
ATOM     10  N   UNL     1      47.641   6.866  11.287  0.00  0.00    +0.000 N 
ATOM     11  H   UNL     1      48.146   6.023  11.061  0.00  0.00    +0.000 HD
BRANCH   8  19
ATOM     12  C   UNL     1      44.454   4.373  12.649  0.00  0.00    +0.000 A 
ATOM     13  N   UNL     1      43.725   3.283  12.961  0.00  0.00    +0.000 NA
ATOM     14  C   UNL     1      43.392   2.450  11.970  0.00  0.00    +0.000 A 
ATOM     15  N   UNL     1      43.697   2.573  10.680  0.00  0.00    +0.000 NA
ATOM     16  C   UNL     1      44.419   3.676  10.416  0.00  0.00    +0.000 A 
ATOM     17  S   UNL     1      44.897   4.002   8.819  0.00  0.00    +0.000 S 
ATOM     18  C   UNL     1      45.688   5.430   9.294  0.00  0.00    +0.000 A 
ATOM     19  C   UNL     1      45.609   5.692  10.658  0.00  0.00    +0.000 A 
ATOM     20  C   UNL     1      44.842   4.639  11.324  0.00  0.00    +0.000 A 
BRANCH  12  22
ATOM     21  C   UNL     1      46.081   5.088  14.177  0.00  0.00    +0.000 C 
ATOM     22  O   UNL     1      44.765   5.256  13.659  0.00  0.00    +0.000 OA
ENDBRANCH  12  22
ENDBRANCH   8  19
ENDBRANCH   7  10
ENDBRANCH   1   7
BRANCH   4  23
ATOM     23  C   UNL     1      48.717   7.798  17.632  0.00  0.00    +0.000 C 
BRANCH  23  24
ATOM     24  N   UNL     1      47.665   6.934  18.169  0.00  0.00    +0.000 NA
ATOM     25  H   UNL     1      47.146   6.528  17.391  0.00  0.00    +0.000 HD
BRANCH  24  26
ATOM     26  C   UNL     1      48.220   5.859  18.993  0.00  0.00    +0.000 C 
BRANCH  26  27
ATOM     27  C   UNL     1      48.426   4.608  18.181  0.00  0.00    +0.000 A 
ATOM     28  C   UNL     1      47.400   4.068  17.405  0.00  0.00    +0.000 A 
ATOM     29  N   UNL     1      47.518   2.941  16.664  0.00  0.00    +0.000 NA
ATOM     30  C   UNL     1      48.721   2.319  16.693  0.00  0.00    +0.000 A 
ATOM     31  C   UNL     1      49.809   2.780  17.419  0.00  0.00    +0.000 A 
ATOM     32 CL   UNL     1      51.304   1.937  17.400  0.00  0.00    +0.000 Cl
ATOM     33  C   UNL     1      49.659   3.942  18.168  0.00  0.00    +0.000 A 
ENDBRANCH  26  27
ENDBRANCH  24  26
ENDBRANCH  23  24
ENDBRANCH   4  23
TORSDOF 8
ENDMDL
MODEL 8
REMARK VINA RESULT:    -6.287      3.933      5.621
REMARK INTER + INTRA:         -10.646
REMARK INTER:                  -9.378
REMARK INTRA:                  -1.268
REMARK UNBOUND:                -1.418
REMARK  Name = 
REMARK  9 active torsions:
REMARK  status: ('A' for Active; 'I' for Inactive)
REMARK    1  A    between atoms: C_1  and  O_2
REMARK    2  A    between atoms: O_2  and  C_3
REMARK    3  A    between atoms: C_10  and  C_11
REMARK    4  A    between atoms: N_13  and  C_14
REMARK    5  A    between atoms: C_14  and  C_15
REMARK    6  A    between atoms: C_18  and  C_19
REMARK    7  A    between atoms: C_19  and  N_20
REMARK    8  A    between atoms: N_20  and  C_21
REMARK    9  A    between atoms: C_21  and  C_22
REMARK                            x       y       z     vdW  Elec       q    Type
REMARK                         _______ _______ _______ _____ _____    ______ ____
ROOT
ATOM      1  C   UNL     1      47.602   7.696  13.495  0.00  0.00    +0.000 A 
ATOM      2  C   UNL     1      46.466   8.334  12.980  0.00  0.00    +0.000 A 
ATOM      3  C   UNL     1      45.381   7.588  12.505  0.00  0.00    +0.000 A 
ATOM      4  C   UNL     1      45.399   6.186  12.543  0.00  0.00    +0.000 A 
ATOM      5  C   UNL     1      46.516   5.551  13.105  0.00  0.00    +0.000 A 
ATOM      6  C   UNL     1      47.602   6.297  13.581  0.00  0.00    +0.000 A 
ENDROOT
BRANCH   1   7
ATOM      7  C   UNL     1      48.796   8.498  13.959  0.00  0.00    +0.000 C 
BRANCH   7  10
ATOM      8  C   UNL     1      50.326   8.542  12.026  0.00  0.00    +0.000 C 
ATOM      9  O   UNL     1      49.590   9.312  11.413  0.00  0.00    +0.000 OA
ATOM     10  N   UNL     1      50.004   8.098  13.279  0.00  0.00    +0.000 N 
ATOM     11  H   UNL     1      50.592   7.422  13.743  0.00  0.00    +0.000 HD
BRANCH   8  19
ATOM     12  C   UNL     1      53.609   8.763  13.023  0.00  0.00    +0.000 A 
ATOM     13  N   UNL     1      54.947   8.712  13.175  0.00  0.00    +0.000 NA
ATOM     14  C   UNL     1      55.662   8.106  12.221  0.00  0.00    +0.000 A 
ATOM     15  N   UNL     1      55.200   7.531  11.114  0.00  0.00    +0.000 NA
ATOM     16  C   UNL     1      53.861   7.601  11.008  0.00  0.00    +0.000 A 
ATOM     17  S   UNL     1      53.090   6.913   9.659  0.00  0.00    +0.000 S 
ATOM     18  C   UNL     1      51.560   7.385  10.231  0.00  0.00    +0.000 A 
ATOM     19  C   UNL     1      51.596   8.066  11.443  0.00  0.00    +0.000 A 
ATOM     20  C   UNL     1      52.978   8.187  11.906  0.00  0.00    +0.000 A 
BRANCH  12  22
ATOM     21  C   UNL     1      52.724  10.758  13.875  0.00  0.00    +0.000 C 
ATOM     22  O   UNL     1      52.864   9.349  14.022  0.00  0.00    +0.000 OA
ENDBRANCH  12  22
ENDBRANCH   8  19
ENDBRANCH   7  10
ENDBRANCH   1   7
BRANCH   4  23
ATOM     23  C   UNL     1      44.232   5.379  12.010  0.00  0.00    +0.000 C 
BRANCH  23  24
ATOM     24  N   UNL     1      44.657   4.053  11.558  0.00  0.00    +0.000 NA
ATOM     25  H   UNL     1      44.437   3.373  12.287  0.00  0.00    +0.000 HD
BRANCH  24  26
ATOM     26  C   UNL     1      43.986   3.666  10.317  0.00  0.00    +0.000 C 
BRANCH  26  27
ATOM     27  C   UNL     1      44.988   3.361   9.234  0.00  0.00    +0.000 A 
ATOM     28  C   UNL     1      45.552   4.374   8.460  0.00  0.00    +0.000 A 
ATOM     29  N   UNL     1      46.447   4.166   7.465  0.00  0.00    +0.000 NA
ATOM     30  C   UNL     1      46.802   2.880   7.230  0.00  0.00    +0.000 A 
ATOM     31  C   UNL     1      46.312   1.802   7.951  0.00  0.00    +0.000 A 
ATOM     32 CL   UNL     1      46.816   0.199   7.595  0.00  0.00    +0.000 Cl
ATOM     33  C   UNL     1      45.397   2.047   8.968  0.00  0.00    +0.000 A 
ENDBRANCH  26  27
ENDBRANCH  24  26
ENDBRANCH  23  24
ENDBRANCH   4  23
TORSDOF 8
ENDMDL
MODEL 9
REMARK VINA RESULT:    -6.130      1.759      2.332
REMARK INTER + INTRA:         -10.415
REMARK INTER:                  -8.974
REMARK INTRA:                  -1.442
REMARK UNBOUND:                -1.418
REMARK  Name = 
REMARK  9 active torsions:
REMARK  status: ('A' for Active; 'I' for Inactive)
REMARK    1  A    between atoms: C_1  and  O_2
REMARK    2  A    between atoms: O_2  and  C_3
REMARK    3  A    between atoms: C_10  and  C_11
REMARK    4  A    between atoms: N_13  and  C_14
REMARK    5  A    between atoms: C_14  and  C_15
REMARK    6  A    between atoms: C_18  and  C_19
REMARK    7  A    between atoms: C_19  and  N_20
REMARK    8  A    between atoms: N_20  and  C_21
REMARK    9  A    between atoms: C_21  and  C_22
REMARK                            x       y       z     vdW  Elec       q    Type
REMARK                         _______ _______ _______ _____ _____    ______ ____
ROOT
ATOM      1  C   UNL     1      48.735   7.627  13.410  0.00  0.00    +0.000 A 
ATOM      2  C   UNL     1      47.939   8.780  13.412  0.00  0.00    +0.000 A 
ATOM      3  C   UNL     1      46.638   8.751  12.894  0.00  0.00    +0.000 A 
ATOM      4  C   UNL     1      46.096   7.567  12.373  0.00  0.00    +0.000 A 
ATOM      5  C   UNL     1      46.877   6.403  12.419  0.00  0.00    +0.000 A 
ATOM      6  C   UNL     1      48.178   6.431  12.937  0.00  0.00    +0.000 A 
ENDROOT
BRANCH   1   7
ATOM      7  C   UNL     1      50.157   7.669  13.919  0.00  0.00    +0.000 C 
BRANCH   7  10
ATOM      8  C   UNL     1      50.578   7.904  16.336  0.00  0.00    +0.000 C 
ATOM      9  O   UNL     1      50.790   9.110  16.221  0.00  0.00    +0.000 OA
ATOM     10  N   UNL     1      50.263   7.131  15.253  0.00  0.00    +0.000 N 
ATOM     11  H   UNL     1      50.149   6.135  15.358  0.00  0.00    +0.000 HD
BRANCH   8  19
ATOM     12  C   UNL     1      48.728   5.410  17.813  0.00  0.00    +0.000 A 
ATOM     13  N   UNL     1      48.174   4.475  18.610  0.00  0.00    +0.000 NA
ATOM     14  C   UNL     1      48.697   4.302  19.828  0.00  0.00    +0.000 A 
ATOM     15  N   UNL     1      49.727   4.957  20.361  0.00  0.00    +0.000 NA
ATOM     16  C   UNL     1      50.250   5.875  19.529  0.00  0.00    +0.000 A 
ATOM     17  S   UNL     1      51.577   6.805  20.036  0.00  0.00    +0.000 S 
ATOM     18  C   UNL     1      51.624   7.638  18.555  0.00  0.00    +0.000 A 
ATOM     19  C   UNL     1      50.646   7.235  17.650  0.00  0.00    +0.000 A 
ATOM     20  C   UNL     1      49.830   6.174  18.238  0.00  0.00    +0.000 A 
BRANCH  12  22
ATOM     21  C   UNL     1      47.592   4.392  16.034  0.00  0.00    +0.000 C 
ATOM     22  O   UNL     1      48.220   5.565  16.543  0.00  0.00    +0.000 OA
ENDBRANCH  12  22
ENDBRANCH   8  19
ENDBRANCH   7  10
ENDBRANCH   1   7
BRANCH   4  23
ATOM     23  C   UNL     1      44.696   7.542  11.795  0.00  0.00    +0.000 C 
BRANCH  23  24
ATOM     24  N   UNL     1      43.909   6.433  12.339  0.00  0.00    +0.000 NA
ATOM     25  H   UNL     1      43.391   6.767  13.151  0.00  0.00    +0.000 HD
BRANCH  24  26
ATOM     26  C   UNL     1      42.971   5.902  11.350  0.00  0.00    +0.000 C 
BRANCH  26  27
ATOM     27  C   UNL     1      43.532   4.679  10.674  0.00  0.00    +0.000 A 
ATOM     28  C   UNL     1      43.353   3.405  11.213  0.00  0.00    +0.000 A 
ATOM     29  N   UNL     1      43.842   2.269  10.662  0.00  0.00    +0.000 NA
ATOM     30  C   UNL     1      44.545   2.407   9.512  0.00  0.00    +0.000 A 
ATOM     31  C   UNL     1      44.768   3.624   8.888  0.00  0.00    +0.000 A 
ATOM     32 CL   UNL     1      45.666   3.717   7.427  0.00  0.00    +0.000 Cl
ATOM     33  C   UNL     1      44.251   4.774   9.475  0.00  0.00    +0.000 A 
ENDBRANCH  26  27
ENDBRANCH  24  26
ENDBRANCH  23  24
ENDBRANCH   4  23
TORSDOF 8
ENDMDL
