MODEL 1
REMARK VINA RESULT:    -8.542      0.000      0.000
REMARK INTER + INTRA:         -13.248
REMARK INTER:                 -12.038
REMARK INTRA:                  -1.210
REMARK UNBOUND:                -1.210
REMARK  Name = 
REMARK  7 active torsions:
REMARK  status: ('A' for Active; 'I' for Inactive)
REMARK    1  A    between atoms: C_2  and  C_20
REMARK    2  A    between atoms: N_3  and  C_4
REMARK    3  A    between atoms: C_4  and  C_5
REMARK    4  A    between atoms: C_8  and  C_9
REMARK    5  A    between atoms: C_9  and  N_10
REMARK    6  A    between atoms: N_10  and  C_11
REMARK    7  A    between atoms: C_11  and  C_12
REMARK                            x       y       z     vdW  Elec       q    Type
REMARK                         _______ _______ _______ _____ _____    ______ ____
ROOT
ATOM      1  C   UNL     1      45.942   6.921  12.430  0.00  0.00    +0.000 A 
ATOM      2  C   UNL     1      46.386   6.517  11.175  0.00  0.00    +0.000 A 
ATOM      3  C   UNL     1      45.695   5.517  10.503  0.00  0.00    +0.000 A 
ATOM      4  C   UNL     1      44.567   4.940  11.089  0.00  0.00    +0.000 A 
ATOM      5  C   UNL     1      44.169   5.441  12.325  0.00  0.00    +0.000 A 
ATOM      6  N   UNL     1      44.825   6.408  13.007  0.00  0.00    +0.000 NA
ENDROOT
BRANCH   1   7
ATOM      7  C   UNL     1      46.709   7.971  13.197  0.00  0.00    +0.000 C 
BRANCH   7  10
ATOM      8  O   UNL     1      49.202   6.643  13.373  0.00  0.00    +0.000 OA
ATOM      9  C   UNL     1      48.518   6.771  14.380  0.00  0.00    +0.000 C 
ATOM     10  N   UNL     1      47.323   7.443  14.388  0.00  0.00    +0.000 N 
ATOM     11  H   UNL     1      46.769   7.493  15.231  0.00  0.00    +0.000 HD
BRANCH   9  12
ATOM     12  C   UNL     1      48.956   6.257  15.682  0.00  0.00    +0.000 A 
ATOM     13  C   UNL     1      50.004   6.860  16.361  0.00  0.00    +0.000 A 
ATOM     14  S   UNL     1      50.316   6.154  17.885  0.00  0.00    +0.000 S 
ATOM     15  C   UNL     1      49.085   4.997  17.666  0.00  0.00    +0.000 A 
ATOM     16  N   UNL     1      48.806   4.076  18.626  0.00  0.00    +0.000 NA
ATOM     17  C   UNL     1      47.864   3.249  18.311  0.00  0.00    +0.000 A 
ATOM     18  N   UNL     1      47.187   3.252  17.124  0.00  0.00    +0.000 N 
ATOM     19  C   UNL     1      47.425   4.168  16.129  0.00  0.00    +0.000 A 
ATOM     20  O   UNL     1      46.777   4.150  15.088  0.00  0.00    +0.000 OA
ATOM     21  C   UNL     1      48.456   5.137  16.442  0.00  0.00    +0.000 A 
ATOM     22  H   UNL     1      46.459   2.576  16.940  0.00  0.00    +0.000 HD
ENDBRANCH   9  12
ENDBRANCH   7  10
ENDBRANCH   1   7
BRANCH   4  23
ATOM     23  C   UNL     1      43.774   3.875  10.388  0.00  0.00    +0.000 C 
BRANCH  23  24
ATOM     24  N   UNL     1      44.380   2.533  10.497  0.00  0.00    +0.000 NA
ATOM     25  H   UNL     1      43.765   1.946  11.058  0.00  0.00    +0.000 HD
BRANCH  24  26
ATOM     26  C   UNL     1      44.524   1.981   9.146  0.00  0.00    +0.000 C 
BRANCH  26  27
ATOM     27  C   UNL     1      45.792   2.325   8.347  0.00  0.00    +0.000 C 
ATOM     28  C   UNL     1      46.488   1.142   7.664  0.00  0.00    +0.000 C 
ATOM     29  C   UNL     1      47.834   1.624   7.110  0.00  0.00    +0.000 C 
ATOM     30  C   UNL     1      47.684   2.865   6.226  0.00  0.00    +0.000 C 
ATOM     31  N   UNL     1      46.898   3.926   6.859  0.00  0.00    +0.000 NA
ATOM     32  C   UNL     1      45.591   3.441   7.316  0.00  0.00    +0.000 C 
ATOM     33  H   UNL     1      46.769   4.693   6.201  0.00  0.00    +0.000 HD
ENDBRANCH  26  27
ENDBRANCH  24  26
ENDBRANCH  23  24
ENDBRANCH   4  23
TORSDOF 7
ENDMDL
MODEL 2
REMARK VINA RESULT:    -7.652      2.210      2.695
REMARK INTER + INTRA:         -11.994
REMARK INTER:                 -10.995
REMARK INTRA:                  -0.999
REMARK UNBOUND:                -1.210
REMARK  Name = 
REMARK  7 active torsions:
REMARK  status: ('A' for Active; 'I' for Inactive)
REMARK    1  A    between atoms: C_2  and  C_20
REMARK    2  A    between atoms: N_3  and  C_4
REMARK    3  A    between atoms: C_4  and  C_5
REMARK    4  A    between atoms: C_8  and  C_9
REMARK    5  A    between atoms: C_9  and  N_10
REMARK    6  A    between atoms: N_10  and  C_11
REMARK    7  A    between atoms: C_11  and  C_12
REMARK                            x       y       z     vdW  Elec       q    Type
REMARK                         _______ _______ _______ _____ _____    ______ ____
ROOT
ATOM      1  C   UNL     1      46.899   6.337  12.881  0.00  0.00    +0.000 A 
ATOM      2  C   UNL     1      46.757   6.680  11.541  0.00  0.00    +0.000 A 
ATOM      3  C   UNL     1      45.749   6.084  10.794  0.00  0.00    +0.000 A 
ATOM      4  C   UNL     1      44.892   5.162  11.396  0.00  0.00    +0.000 A 
ATOM      5  C   UNL     1      45.080   4.916  12.754  0.00  0.00    +0.000 A 
ATOM      6  N   UNL     1      46.056   5.475  13.506  0.00  0.00    +0.000 NA
ENDROOT
BRANCH   1   7
ATOM      7  C   UNL     1      48.019   6.937  13.697  0.00  0.00    +0.000 C 
BRANCH   7  10
ATOM      8  O   UNL     1      50.166   6.514  15.492  0.00  0.00    +0.000 OA
ATOM      9  C   UNL     1      49.016   6.369  15.888  0.00  0.00    +0.000 C 
ATOM     10  N   UNL     1      47.922   6.602  15.094  0.00  0.00    +0.000 N 
ATOM     11  H   UNL     1      46.990   6.433  15.445  0.00  0.00    +0.000 HD
BRANCH   9  12
ATOM     12  C   UNL     1      48.717   5.985  17.270  0.00  0.00    +0.000 A 
ATOM     13  C   UNL     1      48.852   4.667  17.681  0.00  0.00    +0.000 A 
ATOM     14  S   UNL     1      48.519   4.440  19.340  0.00  0.00    +0.000 S 
ATOM     15  C   UNL     1      48.145   6.088  19.552  0.00  0.00    +0.000 A 
ATOM     16  N   UNL     1      47.789   6.579  20.768  0.00  0.00    +0.000 NA
ATOM     17  C   UNL     1      47.513   7.842  20.771  0.00  0.00    +0.000 A 
ATOM     18  N   UNL     1      47.548   8.652  19.671  0.00  0.00    +0.000 N 
ATOM     19  C   UNL     1      47.912   8.205  18.424  0.00  0.00    +0.000 A 
ATOM     20  O   UNL     1      47.954   8.971  17.468  0.00  0.00    +0.000 OA
ATOM     21  C   UNL     1      48.258   6.799  18.370  0.00  0.00    +0.000 A 
ATOM     22  H   UNL     1      47.320   9.633  19.742  0.00  0.00    +0.000 HD
ENDBRANCH   9  12
ENDBRANCH   7  10
ENDBRANCH   1   7
BRANCH   4  23
ATOM     23  C   UNL     1      43.774   4.513  10.635  0.00  0.00    +0.000 C 
BRANCH  23  24
ATOM     24  N   UNL     1      44.078   4.320   9.203  0.00  0.00    +0.000 NA
ATOM     25  H   UNL     1      44.852   4.933   8.952  0.00  0.00    +0.000 HD
BRANCH  24  26
ATOM     26  C   UNL     1      44.445   2.916   8.993  0.00  0.00    +0.000 C 
BRANCH  26  27
ATOM     27  C   UNL     1      45.410   2.577   7.845  0.00  0.00    +0.000 C 
ATOM     28  C   UNL     1      46.180   3.763   7.252  0.00  0.00    +0.000 C 
ATOM     29  C   UNL     1      46.913   3.287   5.993  0.00  0.00    +0.000 C 
ATOM     30  C   UNL     1      47.772   2.046   6.260  0.00  0.00    +0.000 C 
ATOM     31  N   UNL     1      47.038   0.982   6.948  0.00  0.00    +0.000 NA
ATOM     32  C   UNL     1      46.406   1.463   8.183  0.00  0.00    +0.000 C 
ATOM     33  H   UNL     1      47.674   0.216   7.164  0.00  0.00    +0.000 HD
ENDBRANCH  26  27
ENDBRANCH  24  26
ENDBRANCH  23  24
ENDBRANCH   4  23
TORSDOF 7
ENDMDL
MODEL 3
REMARK VINA RESULT:    -7.623      2.524      3.599
REMARK INTER + INTRA:         -11.952
REMARK INTER:                 -10.942
REMARK INTRA:                  -1.010
REMARK UNBOUND:                -1.210
REMARK  Name = 
REMARK  7 active torsions:
REMARK  status: ('A' for Active; 'I' for Inactive)
REMARK    1  A    between atoms: C_2  and  C_20
REMARK    2  A    between atoms: N_3  and  C_4
REMARK    3  A    between atoms: C_4  and  C_5
REMARK    4  A    between atoms: C_8  and  C_9
REMARK    5  A    between atoms: C_9  and  N_10
REMARK    6  A    between atoms: N_10  and  C_11
REMARK    7  A    between atoms: C_11  and  C_12
REMARK                            x       y       z     vdW  Elec       q    Type
REMARK                         _______ _______ _______ _____ _____    ______ ____
ROOT
ATOM      1  C   UNL     1      46.831   4.378  14.117  0.00  0.00    +0.000 A 
ATOM      2  C   UNL     1      47.007   5.644  13.569  0.00  0.00    +0.000 A 
ATOM      3  C   UNL     1      46.424   5.937  12.343  0.00  0.00    +0.000 A 
ATOM      4  C   UNL     1      45.667   4.966  11.685  0.00  0.00    +0.000 A 
ATOM      5  C   UNL     1      45.506   3.744  12.332  0.00  0.00    +0.000 A 
ATOM      6  N   UNL     1      46.067   3.426  13.522  0.00  0.00    +0.000 NA
ENDROOT
BRANCH   1   7
ATOM      7  C   UNL     1      47.498   4.025  15.425  0.00  0.00    +0.000 C 
BRANCH   7  10
ATOM      8  O   UNL     1      49.755   5.291  16.571  0.00  0.00    +0.000 OA
ATOM      9  C   UNL     1      48.633   5.650  16.904  0.00  0.00    +0.000 C 
ATOM     10  N   UNL     1      47.491   5.121  16.359  0.00  0.00    +0.000 N 
ATOM     11  H   UNL     1      46.583   5.416  16.688  0.00  0.00    +0.000 HD
BRANCH   9  12
ATOM     12  C   UNL     1      48.422   6.723  17.880  0.00  0.00    +0.000 A 
ATOM     13  C   UNL     1      48.327   6.436  19.233  0.00  0.00    +0.000 A 
ATOM     14  S   UNL     1      48.148   7.828  20.207  0.00  0.00    +0.000 S 
ATOM     15  C   UNL     1      48.153   8.853  18.847  0.00  0.00    +0.000 A 
ATOM     16  N   UNL     1      48.051  10.201  18.981  0.00  0.00    +0.000 NA
ATOM     17  C   UNL     1      48.046  10.847  17.861  0.00  0.00    +0.000 A 
ATOM     18  N   UNL     1      48.122  10.270  16.625  0.00  0.00    +0.000 N 
ATOM     19  C   UNL     1      48.237   8.914  16.439  0.00  0.00    +0.000 A 
ATOM     20  O   UNL     1      48.327   8.438  15.313  0.00  0.00    +0.000 OA
ATOM     21  C   UNL     1      48.274   8.143  17.665  0.00  0.00    +0.000 A 
ATOM     22  H   UNL     1      48.113  10.833  15.787  0.00  0.00    +0.000 HD
ENDBRANCH   9  12
ENDBRANCH   7  10
ENDBRANCH   1   7
BRANCH   4  23
ATOM     23  C   UNL     1      44.998   5.246  10.372  0.00  0.00    +0.000 C 
BRANCH  23  24
ATOM     24  N   UNL     1      44.231   4.097   9.852  0.00  0.00    +0.000 NA
ATOM     25  H   UNL     1      43.253   4.219  10.107  0.00  0.00    +0.000 HD
BRANCH  24  26
ATOM     26  C   UNL     1      44.381   4.062   8.394  0.00  0.00    +0.000 C 
BRANCH  26  27
ATOM     27  C   UNL     1      45.355   3.042   7.783  0.00  0.00    +0.000 C 
ATOM     28  C   UNL     1      46.646   3.626   7.196  0.00  0.00    +0.000 C 
ATOM     29  C   UNL     1      47.384   2.514   6.442  0.00  0.00    +0.000 C 
ATOM     30  C   UNL     1      47.591   1.268   7.308  0.00  0.00    +0.000 C 
ATOM     31  N   UNL     1      46.360   0.815   7.961  0.00  0.00    +0.000 NA
ATOM     32  C   UNL     1      45.720   1.891   8.727  0.00  0.00    +0.000 C 
ATOM     33  H   UNL     1      46.570   0.033   8.578  0.00  0.00    +0.000 HD
ENDBRANCH  26  27
ENDBRANCH  24  26
ENDBRANCH  23  24
ENDBRANCH   4  23
TORSDOF 7
ENDMDL
MODEL 4
REMARK VINA RESULT:    -7.358      1.320      1.432
REMARK INTER + INTRA:         -11.578
REMARK INTER:                 -10.616
REMARK INTRA:                  -0.962
REMARK UNBOUND:                -1.210
REMARK  Name = 
REMARK  7 active torsions:
REMARK  status: ('A' for Active; 'I' for Inactive)
REMARK    1  A    between atoms: C_2  and  C_20
REMARK    2  A    between atoms: N_3  and  C_4
REMARK    3  A    between atoms: C_4  and  C_5
REMARK    4  A    between atoms: C_8  and  C_9
REMARK    5  A    between atoms: C_9  and  N_10
REMARK    6  A    between atoms: N_10  and  C_11
REMARK    7  A    between atoms: C_11  and  C_12
REMARK                            x       y       z     vdW  Elec       q    Type
REMARK                         _______ _______ _______ _____ _____    ______ ____
ROOT
ATOM      1  C   UNL     1      46.406   7.192  12.810  0.00  0.00    +0.000 A 
ATOM      2  C   UNL     1      46.853   5.884  12.961  0.00  0.00    +0.000 A 
ATOM      3  C   UNL     1      46.066   4.841  12.489  0.00  0.00    +0.000 A 
ATOM      4  C   UNL     1      44.849   5.119  11.865  0.00  0.00    +0.000 A 
ATOM      5  C   UNL     1      44.506   6.460  11.715  0.00  0.00    +0.000 A 
ATOM      6  N   UNL     1      45.247   7.496  12.171  0.00  0.00    +0.000 NA
ENDROOT
BRANCH   1   7
ATOM      7  C   UNL     1      47.224   8.335  13.361  0.00  0.00    +0.000 C 
BRANCH   7  10
ATOM      8  O   UNL     1      49.720   7.558  14.445  0.00  0.00    +0.000 OA
ATOM      9  C   UNL     1      48.770   7.737  15.196  0.00  0.00    +0.000 C 
ATOM     10  N   UNL     1      47.543   8.161  14.755  0.00  0.00    +0.000 N 
ATOM     11  H   UNL     1      46.773   8.260  15.400  0.00  0.00    +0.000 HD
BRANCH   9  12
ATOM     12  C   UNL     1      48.888   7.564  16.647  0.00  0.00    +0.000 A 
ATOM     13  C   UNL     1      49.156   8.650  17.467  0.00  0.00    +0.000 A 
ATOM     14  S   UNL     1      49.189   8.251  19.127  0.00  0.00    +0.000 S 
ATOM     15  C   UNL     1      48.885   6.608  18.798  0.00  0.00    +0.000 A 
ATOM     16  N   UNL     1      48.772   5.698  19.801  0.00  0.00    +0.000 NA
ATOM     17  C   UNL     1      48.565   4.487  19.400  0.00  0.00    +0.000 A 
ATOM     18  N   UNL     1      48.472   4.102  18.092  0.00  0.00    +0.000 N 
ATOM     19  C   UNL     1      48.569   4.985  17.044  0.00  0.00    +0.000 A 
ATOM     20  O   UNL     1      48.456   4.602  15.885  0.00  0.00    +0.000 OA
ATOM     21  C   UNL     1      48.776   6.364  17.441  0.00  0.00    +0.000 A 
ATOM     22  H   UNL     1      48.308   3.137  17.845  0.00  0.00    +0.000 HD
ENDBRANCH   9  12
ENDBRANCH   7  10
ENDBRANCH   1   7
BRANCH   4  23
ATOM     23  C   UNL     1      43.978   4.026  11.317  0.00  0.00    +0.000 C 
BRANCH  23  24
ATOM     24  N   UNL     1      44.708   2.766  11.076  0.00  0.00    +0.000 NA
ATOM     25  H   UNL     1      44.333   2.052  11.698  0.00  0.00    +0.000 HD
BRANCH  24  26
ATOM     26  C   UNL     1      44.514   2.379   9.675  0.00  0.00    +0.000 C 
BRANCH  26  27
ATOM     27  C   UNL     1      45.685   2.564   8.697  0.00  0.00    +0.000 C 
ATOM     28  C   UNL     1      46.196   1.285   8.024  0.00  0.00    +0.000 C 
ATOM     29  C   UNL     1      47.488   1.616   7.267  0.00  0.00    +0.000 C 
ATOM     30  C   UNL     1      47.312   2.803   6.316  0.00  0.00    +0.000 C 
ATOM     31  N   UNL     1      46.697   3.966   6.961  0.00  0.00    +0.000 NA
ATOM     32  C   UNL     1      45.430   3.621   7.617  0.00  0.00    +0.000 C 
ATOM     33  H   UNL     1      46.537   4.695   6.268  0.00  0.00    +0.000 HD
ENDBRANCH  26  27
ENDBRANCH  24  26
ENDBRANCH  23  24
ENDBRANCH   4  23
TORSDOF 7
ENDMDL
MODEL 5
REMARK VINA RESULT:    -7.300      2.595      3.100
REMARK INTER + INTRA:         -11.497
REMARK INTER:                 -10.573
REMARK INTRA:                  -0.924
REMARK UNBOUND:                -1.210
REMARK  Name = 
REMARK  7 active torsions:
REMARK  status: ('A' for Active; 'I' for Inactive)
REMARK    1  A    between atoms: C_2  and  C_20
REMARK    2  A    between atoms: N_3  and  C_4
REMARK    3  A    between atoms: C_4  and  C_5
REMARK    4  A    between atoms: C_8  and  C_9
REMARK    5  A    between atoms: C_9  and  N_10
REMARK    6  A    between atoms: N_10  and  C_11
REMARK    7  A    between atoms: C_11  and  C_12
REMARK                            x       y       z     vdW  Elec       q    Type
REMARK                         _______ _______ _______ _____ _____    ______ ____
ROOT
ATOM      1  C   UNL     1      47.751   5.796  14.569  0.00  0.00    +0.000 A 
ATOM      2  C   UNL     1      47.178   6.361  13.434  0.00  0.00    +0.000 A 
ATOM      3  C   UNL     1      46.398   5.566  12.604  0.00  0.00    +0.000 A 
ATOM      4  C   UNL     1      46.195   4.222  12.921  0.00  0.00    +0.000 A 
ATOM      5  C   UNL     1      46.769   3.757  14.102  0.00  0.00    +0.000 A 
ATOM      6  N   UNL     1      47.538   4.504  14.926  0.00  0.00    +0.000 NA
ENDROOT
BRANCH   1   7
ATOM      7  C   UNL     1      48.642   6.632  15.457  0.00  0.00    +0.000 C 
BRANCH   7  10
ATOM      8  O   UNL     1      48.911   5.973  18.196  0.00  0.00    +0.000 OA
ATOM      9  C   UNL     1      49.779   5.622  17.407  0.00  0.00    +0.000 C 
ATOM     10  N   UNL     1      49.698   5.859  16.059  0.00  0.00    +0.000 N 
ATOM     11  H   UNL     1      50.453   5.589  15.445  0.00  0.00    +0.000 HD
BRANCH   9  12
ATOM     12  C   UNL     1      50.957   4.865  17.840  0.00  0.00    +0.000 A 
ATOM     13  C   UNL     1      52.014   5.504  18.469  0.00  0.00    +0.000 A 
ATOM     14  S   UNL     1      53.258   4.437  18.952  0.00  0.00    +0.000 S 
ATOM     15  C   UNL     1      52.439   3.094  18.299  0.00  0.00    +0.000 A 
ATOM     16  N   UNL     1      52.958   1.841  18.389  0.00  0.00    +0.000 NA
ATOM     17  C   UNL     1      52.238   0.926  17.828  0.00  0.00    +0.000 A 
ATOM     18  N   UNL     1      51.056   1.150  17.180  0.00  0.00    +0.000 N 
ATOM     19  C   UNL     1      50.486   2.395  17.073  0.00  0.00    +0.000 A 
ATOM     20  O   UNL     1      49.411   2.548  16.503  0.00  0.00    +0.000 OA
ATOM     21  C   UNL     1      51.242   3.455  17.708  0.00  0.00    +0.000 A 
ATOM     22  H   UNL     1      50.540   0.388  16.763  0.00  0.00    +0.000 HD
ENDBRANCH   9  12
ENDBRANCH   7  10
ENDBRANCH   1   7
BRANCH   4  23
ATOM     23  C   UNL     1      45.340   3.332  12.068  0.00  0.00    +0.000 C 
BRANCH  23  24
ATOM     24  N   UNL     1      44.525   4.075  11.086  0.00  0.00    +0.000 NA
ATOM     25  H   UNL     1      45.029   4.918  10.819  0.00  0.00    +0.000 HD
BRANCH  24  26
ATOM     26  C   UNL     1      44.310   3.214   9.918  0.00  0.00    +0.000 C 
BRANCH  26  27
ATOM     27  C   UNL     1      45.475   3.007   8.938  0.00  0.00    +0.000 C 
ATOM     28  C   UNL     1      45.638   1.584   8.391  0.00  0.00    +0.000 C 
ATOM     29  C   UNL     1      46.960   1.508   7.618  0.00  0.00    +0.000 C 
ATOM     30  C   UNL     1      47.074   2.608   6.559  0.00  0.00    +0.000 C 
ATOM     31  N   UNL     1      46.781   3.942   7.088  0.00  0.00    +0.000 NA
ATOM     32  C   UNL     1      45.478   3.990   7.762  0.00  0.00    +0.000 C 
ATOM     33  H   UNL     1      46.800   4.621   6.329  0.00  0.00    +0.000 HD
ENDBRANCH  26  27
ENDBRANCH  24  26
ENDBRANCH  23  24
ENDBRANCH   4  23
TORSDOF 7
ENDMDL
MODEL 6
REMARK VINA RESULT:    -7.105      2.058      2.461
REMARK INTER + INTRA:         -11.222
REMARK INTER:                 -10.136
REMARK INTRA:                  -1.086
REMARK UNBOUND:                -1.210
REMARK  Name = 
REMARK  7 active torsions:
REMARK  status: ('A' for Active; 'I' for Inactive)
REMARK    1  A    between atoms: C_2  and  C_20
REMARK    2  A    between atoms: N_3  and  C_4
REMARK    3  A    between atoms: C_4  and  C_5
REMARK    4  A    between atoms: C_8  and  C_9
REMARK    5  A    between atoms: C_9  and  N_10
REMARK    6  A    between atoms: N_10  and  C_11
REMARK    7  A    between atoms: C_11  and  C_12
REMARK                            x       y       z     vdW  Elec       q    Type
REMARK                         _______ _______ _______ _____ _____    ______ ____
ROOT
ATOM      1  C   UNL     1      47.736   6.689  12.869  0.00  0.00    +0.000 A 
ATOM      2  C   UNL     1      46.872   6.908  11.801  0.00  0.00    +0.000 A 
ATOM      3  C   UNL     1      45.850   5.999  11.560  0.00  0.00    +0.000 A 
ATOM      4  C   UNL     1      45.700   4.888  12.391  0.00  0.00    +0.000 A 
ATOM      5  C   UNL     1      46.582   4.776  13.463  0.00  0.00    +0.000 A 
ATOM      6  N   UNL     1      47.590   5.641  13.720  0.00  0.00    +0.000 NA
ENDROOT
BRANCH   1   7
ATOM      7  C   UNL     1      48.881   7.640  13.117  0.00  0.00    +0.000 C 
BRANCH   7  10
ATOM      8  O   UNL     1      50.170   8.972  15.256  0.00  0.00    +0.000 OA
ATOM      9  C   UNL     1      50.482   7.818  14.994  0.00  0.00    +0.000 C 
ATOM     10  N   UNL     1      49.871   7.088  14.006  0.00  0.00    +0.000 N 
ATOM     11  H   UNL     1      50.184   6.152  13.794  0.00  0.00    +0.000 HD
BRANCH   9  12
ATOM     12  C   UNL     1      51.505   7.100  15.760  0.00  0.00    +0.000 A 
ATOM     13  C   UNL     1      52.840   7.466  15.670  0.00  0.00    +0.000 A 
ATOM     14  S   UNL     1      53.861   6.552  16.688  0.00  0.00    +0.000 S 
ATOM     15  C   UNL     1      52.557   5.612  17.251  0.00  0.00    +0.000 A 
ATOM     16  N   UNL     1      52.741   4.634  18.176  0.00  0.00    +0.000 NA
ATOM     17  C   UNL     1      51.666   3.989  18.489  0.00  0.00    +0.000 A 
ATOM     18  N   UNL     1      50.430   4.225  17.956  0.00  0.00    +0.000 N 
ATOM     19  C   UNL     1      50.192   5.209  17.027  0.00  0.00    +0.000 A 
ATOM     20  O   UNL     1      49.062   5.403  16.591  0.00  0.00    +0.000 OA
ATOM     21  C   UNL     1      51.362   5.980  16.659  0.00  0.00    +0.000 A 
ATOM     22  H   UNL     1      49.628   3.685  18.245  0.00  0.00    +0.000 HD
ENDBRANCH   9  12
ENDBRANCH   7  10
ENDBRANCH   1   7
BRANCH   4  23
ATOM     23  C   UNL     1      44.596   3.893  12.184  0.00  0.00    +0.000 C 
BRANCH  23  24
ATOM     24  N   UNL     1      45.036   2.672  11.480  0.00  0.00    +0.000 NA
ATOM     25  H   UNL     1      44.617   1.866  11.938  0.00  0.00    +0.000 HD
BRANCH  24  26
ATOM     26  C   UNL     1      44.593   2.759  10.085  0.00  0.00    +0.000 C 
BRANCH  26  27
ATOM     27  C   UNL     1      45.661   2.813   8.980  0.00  0.00    +0.000 C 
ATOM     28  C   UNL     1      45.930   1.492   8.250  0.00  0.00    +0.000 C 
ATOM     29  C   UNL     1      47.159   1.673   7.353  0.00  0.00    +0.000 C 
ATOM     30  C   UNL     1      47.027   2.888   6.430  0.00  0.00    +0.000 C 
ATOM     31  N   UNL     1      46.639   4.107   7.144  0.00  0.00    +0.000 NA
ATOM     32  C   UNL     1      45.421   3.911   7.939  0.00  0.00    +0.000 C 
ATOM     33  H   UNL     1      46.495   4.862   6.475  0.00  0.00    +0.000 HD
ENDBRANCH  26  27
ENDBRANCH  24  26
ENDBRANCH  23  24
ENDBRANCH   4  23
TORSDOF 7
ENDMDL
MODEL 7
REMARK VINA RESULT:    -7.031      3.157      4.437
REMARK INTER + INTRA:         -11.118
REMARK INTER:                 -10.089
REMARK INTRA:                  -1.030
REMARK UNBOUND:                -1.210
REMARK  Name = 
REMARK  7 active torsions:
REMARK  status: ('A' for Active; 'I' for Inactive)
REMARK    1  A    between atoms: C_2  and  C_20
REMARK    2  A    between atoms: N_3  and  C_4
REMARK    3  A    between atoms: C_4  and  C_5
REMARK    4  A    between atoms: C_8  and  C_9
REMARK    5  A    between atoms: C_9  and  N_10
REMARK    6  A    between atoms: N_10  and  C_11
REMARK    7  A    between atoms: C_11  and  C_12
REMARK                            x       y       z     vdW  Elec       q    Type
REMARK                         _______ _______ _______ _____ _____    ______ ____
ROOT
ATOM      1  C   UNL     1      48.453   5.686  16.493  0.00  0.00    +0.000 A 
ATOM      2  C   UNL     1      47.648   4.553  16.538  0.00  0.00    +0.000 A 
ATOM      3  C   UNL     1      46.936   4.184  15.403  0.00  0.00    +0.000 A 
ATOM      4  C   UNL     1      47.044   4.947  14.239  0.00  0.00    +0.000 A 
ATOM      5  C   UNL     1      47.911   6.036  14.274  0.00  0.00    +0.000 A 
ATOM      6  N   UNL     1      48.611   6.424  15.364  0.00  0.00    +0.000 NA
ENDROOT
BRANCH   1   7
ATOM      7  C   UNL     1      49.196   6.130  17.730  0.00  0.00    +0.000 C 
BRANCH   7  10
ATOM      8  O   UNL     1      51.789   6.132  16.596  0.00  0.00    +0.000 OA
ATOM      9  C   UNL     1      51.501   5.286  17.434  0.00  0.00    +0.000 C 
ATOM     10  N   UNL     1      50.284   5.248  18.065  0.00  0.00    +0.000 N 
ATOM     11  H   UNL     1      50.071   4.512  18.722  0.00  0.00    +0.000 HD
BRANCH   9  12
ATOM     12  C   UNL     1      52.465   4.272  17.871  0.00  0.00    +0.000 A 
ATOM     13  C   UNL     1      53.703   4.646  18.373  0.00  0.00    +0.000 A 
ATOM     14  S   UNL     1      54.651   3.322  18.887  0.00  0.00    +0.000 S 
ATOM     15  C   UNL     1      53.453   2.206  18.419  0.00  0.00    +0.000 A 
ATOM     16  N   UNL     1      53.623   0.870  18.602  0.00  0.00    +0.000 NA
ATOM     17  C   UNL     1      52.641   0.145  18.177  0.00  0.00    +0.000 A 
ATOM     18  N   UNL     1      51.513   0.632  17.577  0.00  0.00    +0.000 N 
ATOM     19  C   UNL     1      51.290   1.972  17.381  0.00  0.00    +0.000 A 
ATOM     20  O   UNL     1      50.253   2.368  16.860  0.00  0.00    +0.000 OA
ATOM     21  C   UNL     1      52.351   2.833  17.863  0.00  0.00    +0.000 A 
ATOM     22  H   UNL     1      50.780   0.010  17.268  0.00  0.00    +0.000 HD
ENDBRANCH   9  12
ENDBRANCH   7  10
ENDBRANCH   1   7
BRANCH   4  23
ATOM     23  C   UNL     1      46.314   4.572  12.982  0.00  0.00    +0.000 C 
BRANCH  23  24
ATOM     24  N   UNL     1      45.250   3.572  13.203  0.00  0.00    +0.000 NA
ATOM     25  H   UNL     1      44.760   3.806  14.064  0.00  0.00    +0.000 HD
BRANCH  24  26
ATOM     26  C   UNL     1      44.331   3.616  12.061  0.00  0.00    +0.000 C 
BRANCH  26  27
ATOM     27  C   UNL     1      44.924   3.573  10.644  0.00  0.00    +0.000 C 
ATOM     28  C   UNL     1      44.629   2.301   9.839  0.00  0.00    +0.000 C 
ATOM     29  C   UNL     1      45.468   2.331   8.556  0.00  0.00    +0.000 C 
ATOM     30  C   UNL     1      45.279   3.633   7.772  0.00  0.00    +0.000 C 
ATOM     31  N   UNL     1      45.438   4.829   8.604  0.00  0.00    +0.000 NA
ATOM     32  C   UNL     1      44.568   4.792   9.786  0.00  0.00    +0.000 C 
ATOM     33  H   UNL     1      45.229   5.658   8.050  0.00  0.00    +0.000 HD
ENDBRANCH  26  27
ENDBRANCH  24  26
ENDBRANCH  23  24
ENDBRANCH   4  23
TORSDOF 7
ENDMDL
MODEL 8
REMARK VINA RESULT:    -6.941      2.789      8.210
REMARK INTER + INTRA:         -10.991
REMARK INTER:                  -9.718
REMARK INTRA:                  -1.273
REMARK UNBOUND:                -1.210
REMARK  Name = 
REMARK  7 active torsions:
REMARK  status: ('A' for Active; 'I' for Inactive)
REMARK    1  A    between atoms: C_2  and  C_20
REMARK    2  A    between atoms: N_3  and  C_4
REMARK    3  A    between atoms: C_4  and  C_5
REMARK    4  A    between atoms: C_8  and  C_9
REMARK    5  A    between atoms: C_9  and  N_10
REMARK    6  A    between atoms: N_10  and  C_11
REMARK    7  A    between atoms: C_11  and  C_12
REMARK                            x       y       z     vdW  Elec       q    Type
REMARK                         _______ _______ _______ _____ _____    ______ ____
ROOT
ATOM      1  C   UNL     1      48.487   8.116  13.229  0.00  0.00    +0.000 A 
ATOM      2  C   UNL     1      47.802   8.791  14.234  0.00  0.00    +0.000 A 
ATOM      3  C   UNL     1      48.367   8.874  15.499  0.00  0.00    +0.000 A 
ATOM      4  C   UNL     1      49.611   8.289  15.743  0.00  0.00    +0.000 A 
ATOM      5  C   UNL     1      50.244   7.676  14.665  0.00  0.00    +0.000 A 
ATOM      6  N   UNL     1      49.716   7.573  13.424  0.00  0.00    +0.000 NA
ENDROOT
BRANCH   1   7
ATOM      7  C   UNL     1      47.866   7.973  11.860  0.00  0.00    +0.000 C 
BRANCH   7  10
ATOM      8  O   UNL     1      45.046   7.816  11.673  0.00  0.00    +0.000 OA
ATOM      9  C   UNL     1      45.704   6.784  11.698  0.00  0.00    +0.000 C 
ATOM     10  N   UNL     1      47.075   6.776  11.738  0.00  0.00    +0.000 N 
ATOM     11  H   UNL     1      47.580   5.903  11.796  0.00  0.00    +0.000 HD
BRANCH   9  12
ATOM     12  C   UNL     1      45.072   5.463  11.629  0.00  0.00    +0.000 A 
ATOM     13  C   UNL     1      44.428   4.931  12.736  0.00  0.00    +0.000 A 
ATOM     14  S   UNL     1      43.703   3.415  12.432  0.00  0.00    +0.000 S 
ATOM     15  C   UNL     1      44.260   3.405  10.823  0.00  0.00    +0.000 A 
ATOM     16  N   UNL     1      43.969   2.377   9.983  0.00  0.00    +0.000 NA
ATOM     17  C   UNL     1      44.479   2.496   8.801  0.00  0.00    +0.000 A 
ATOM     18  N   UNL     1      45.259   3.539   8.388  0.00  0.00    +0.000 N 
ATOM     19  C   UNL     1      45.572   4.605   9.195  0.00  0.00    +0.000 A 
ATOM     20  O   UNL     1      46.255   5.533   8.777  0.00  0.00    +0.000 OA
ATOM     21  C   UNL     1      45.002   4.534  10.526  0.00  0.00    +0.000 A 
ATOM     22  H   UNL     1      45.627   3.572   7.448  0.00  0.00    +0.000 HD
ENDBRANCH   9  12
ENDBRANCH   7  10
ENDBRANCH   1   7
BRANCH   4  23
ATOM     23  C   UNL     1      50.271   8.375  17.088  0.00  0.00    +0.000 C 
BRANCH  23  24
ATOM     24  N   UNL     1      49.575   7.595  18.130  0.00  0.00    +0.000 NA
ATOM     25  H   UNL     1      48.576   7.618  17.938  0.00  0.00    +0.000 HD
BRANCH  24  26
ATOM     26  C   UNL     1      50.074   6.217  18.086  0.00  0.00    +0.000 C 
BRANCH  26  27
ATOM     27  C   UNL     1      49.105   5.101  17.663  0.00  0.00    +0.000 C 
ATOM     28  C   UNL     1      49.712   3.696  17.568  0.00  0.00    +0.000 C 
ATOM     29  C   UNL     1      48.678   2.763  16.927  0.00  0.00    +0.000 C 
ATOM     30  C   UNL     1      47.325   2.820  17.644  0.00  0.00    +0.000 C 
ATOM     31  N   UNL     1      46.839   4.188  17.837  0.00  0.00    +0.000 NA
ATOM     32  C   UNL     1      47.832   5.031  18.513  0.00  0.00    +0.000 C 
ATOM     33  H   UNL     1      45.977   4.169  18.381  0.00  0.00    +0.000 HD
ENDBRANCH  26  27
ENDBRANCH  24  26
ENDBRANCH  23  24
ENDBRANCH   4  23
TORSDOF 7
ENDMDL
MODEL 9
REMARK VINA RESULT:    -6.738      2.581      3.618
REMARK INTER + INTRA:         -10.706
REMARK INTER:                 -10.047
REMARK INTRA:                  -0.659
REMARK UNBOUND:                -1.210
REMARK  Name = 
REMARK  7 active torsions:
REMARK  status: ('A' for Active; 'I' for Inactive)
REMARK    1  A    between atoms: C_2  and  C_20
REMARK    2  A    between atoms: N_3  and  C_4
REMARK    3  A    between atoms: C_4  and  C_5
REMARK    4  A    between atoms: C_8  and  C_9
REMARK    5  A    between atoms: C_9  and  N_10
REMARK    6  A    between atoms: N_10  and  C_11
REMARK    7  A    between atoms: C_11  and  C_12
REMARK                            x       y       z     vdW  Elec       q    Type
REMARK                         _______ _______ _______ _____ _____    ______ ____
ROOT
ATOM      1  C   UNL     1      46.206   4.690  13.788  0.00  0.00    +0.000 A 
ATOM      2  C   UNL     1      45.830   5.903  13.221  0.00  0.00    +0.000 A 
ATOM      3  C   UNL     1      45.047   5.900  12.074  0.00  0.00    +0.000 A 
ATOM      4  C   UNL     1      44.642   4.688  11.513  0.00  0.00    +0.000 A 
ATOM      5  C   UNL     1      45.026   3.525  12.176  0.00  0.00    +0.000 A 
ATOM      6  N   UNL     1      45.794   3.495  13.289  0.00  0.00    +0.000 NA
ENDROOT
BRANCH   1   7
ATOM      7  C   UNL     1      47.098   4.672  15.005  0.00  0.00    +0.000 C 
BRANCH   7  10
ATOM      8  O   UNL     1      48.513   5.592  17.277  0.00  0.00    +0.000 OA
ATOM      9  C   UNL     1      48.565   6.236  16.237  0.00  0.00    +0.000 C 
ATOM     10  N   UNL     1      47.948   5.832  15.081  0.00  0.00    +0.000 N 
ATOM     11  H   UNL     1      47.982   6.410  14.254  0.00  0.00    +0.000 HD
BRANCH   9  12
ATOM     12  C   UNL     1      49.345   7.472  16.131  0.00  0.00    +0.000 A 
ATOM     13  C   UNL     1      48.719   8.679  15.856  0.00  0.00    +0.000 A 
ATOM     14  S   UNL     1      49.792  10.007  15.839  0.00  0.00    +0.000 S 
ATOM     15  C   UNL     1      51.131   9.006  16.161  0.00  0.00    +0.000 A 
ATOM     16  N   UNL     1      52.382   9.521  16.292  0.00  0.00    +0.000 NA
ATOM     17  C   UNL     1      53.301   8.639  16.511  0.00  0.00    +0.000 A 
ATOM     18  N   UNL     1      53.086   7.292  16.600  0.00  0.00    +0.000 N 
ATOM     19  C   UNL     1      51.840   6.725  16.485  0.00  0.00    +0.000 A 
ATOM     20  O   UNL     1      51.688   5.513  16.595  0.00  0.00    +0.000 OA
ATOM     21  C   UNL     1      50.768   7.674  16.264  0.00  0.00    +0.000 A 
ATOM     22  H   UNL     1      53.849   6.655  16.774  0.00  0.00    +0.000 HD
ENDBRANCH   9  12
ENDBRANCH   7  10
ENDBRANCH   1   7
BRANCH   4  23
ATOM     23  C   UNL     1      43.775   4.637  10.290  0.00  0.00    +0.000 C 
BRANCH  23  24
ATOM     24  N   UNL     1      44.541   4.485   9.038  0.00  0.00    +0.000 NA
ATOM     25  H   UNL     1      45.501   4.778   9.209  0.00  0.00    +0.000 HD
BRANCH  24  26
ATOM     26  C   UNL     1      44.499   3.074   8.639  0.00  0.00    +0.000 C 
BRANCH  26  27
ATOM     27  C   UNL     1      45.501   2.584   7.581  0.00  0.00    +0.000 C 
ATOM     28  C   UNL     1      46.331   3.676   6.896  0.00  0.00    +0.000 C 
ATOM     29  C   UNL     1      47.103   3.042   5.732  0.00  0.00    +0.000 C 
ATOM     30  C   UNL     1      47.911   1.818   6.173  0.00  0.00    +0.000 C 
ATOM     31  N   UNL     1      47.117   0.857   6.941  0.00  0.00    +0.000 NA
ATOM     32  C   UNL     1      46.448   1.489   8.085  0.00  0.00    +0.000 C 
ATOM     33  H   UNL     1      47.719   0.104   7.270  0.00  0.00    +0.000 HD
ENDBRANCH  26  27
ENDBRANCH  24  26
ENDBRANCH  23  24
ENDBRANCH   4  23
TORSDOF 7
ENDMDL
