MODEL 1
REMARK VINA RESULT:    -8.602      0.000      0.000
REMARK INTER + INTRA:         -13.044
REMARK INTER:                 -12.122
REMARK INTRA:                  -0.922
REMARK UNBOUND:                -0.922
REMARK  Name = 
REMARK  8 active torsions:
REMARK  status: ('A' for Active; 'I' for Inactive)
REMARK    1  A    between atoms: C_1  and  C_2
REMARK    2  A    between atoms: C_6  and  O_7
REMARK    3  A    between atoms: O_7  and  C_8
REMARK    4  A    between atoms: C_12  and  C_13
REMARK    5  A    between atoms: C_13  and  C_14
REMARK    6  A    between atoms: C_14  and  N_15
REMARK    7  A    between atoms: N_15  and  C_16
REMARK    8  A    between atoms: C_19  and  C_20
REMARK                            x       y       z     vdW  Elec       q    Type
REMARK                         _______ _______ _______ _____ _____    ______ ____
ROOT
ATOM      1  C   UNL     1      43.371   5.414  12.370  0.00  0.00    +0.000 C 
ENDROOT
BRANCH   1   6
ATOM      2  C   UNL     1      46.849   4.937  13.849  0.00  0.00    +0.000 A 
ATOM      3  C   UNL     1      47.552   5.958  13.207  0.00  0.00    +0.000 A 
ATOM      4  C   UNL     1      46.887   6.878  12.398  0.00  0.00    +0.000 A 
ATOM      5  C   UNL     1      45.516   6.749  12.192  0.00  0.00    +0.000 A 
ATOM      6  C   UNL     1      44.810   5.677  12.760  0.00  0.00    +0.000 A 
ATOM      7  C   UNL     1      45.483   4.788  13.614  0.00  0.00    +0.000 A 
BRANCH   2   8
ATOM      8  O   UNL     1      47.610   4.102  14.613  0.00  0.00    +0.000 OA
BRANCH   8  14
ATOM      9  C   UNL     1      47.204   5.175  18.240  0.00  0.00    +0.000 C 
ATOM     10  C   UNL     1      47.802   5.138  16.829  0.00  0.00    +0.000 C 
ATOM     11  C   UNL     1      49.297   4.840  16.869  0.00  0.00    +0.000 C 
ATOM     12  N   UNL     1      49.431   3.378  16.962  0.00  0.00    +0.000 NA
ATOM     13  C   UNL     1      48.135   2.800  16.545  0.00  0.00    +0.000 C 
ATOM     14  C   UNL     1      47.282   3.957  16.005  0.00  0.00    +0.000 C 
ATOM     15  H   UNL     1      49.630   3.103  17.922  0.00  0.00    +0.000 HD
ENDBRANCH   8  14
ENDBRANCH   2   8
ENDBRANCH   1   6
BRANCH   1  16
ATOM     16  C   UNL     1      43.313   4.302  11.312  0.00  0.00    +0.000 C 
BRANCH  16  17
ATOM     17  N   UNL     1      43.750   4.773   9.994  0.00  0.00    +0.000 N 
ATOM     18  H   UNL     1      44.152   5.708  10.031  0.00  0.00    +0.000 HD
BRANCH  17  19
ATOM     19  C   UNL     1      44.566   3.890   9.261  0.00  0.00    +0.000 A 
ATOM     20  C   UNL     1      45.540   4.323   8.353  0.00  0.00    +0.000 A 
ATOM     21  C   UNL     1      46.364   3.408   7.701  0.00  0.00    +0.000 A 
ATOM     22  C   UNL     1      46.220   2.064   7.998  0.00  0.00    +0.000 A 
ATOM     23  N   UNL     1      45.321   1.583   8.900  0.00  0.00    +0.000 NA
ATOM     24  C   UNL     1      44.541   2.512   9.512  0.00  0.00    +0.000 A 
BRANCH  22  25
ATOM     25  C   UNL     1      47.097   1.065   7.312  0.00  0.00    +0.000 C 
ATOM     26  N   UNL     1      46.832  -0.246   7.599  0.00  0.00    +0.000 N 
ATOM     27  O   UNL     1      47.999   1.388   6.547  0.00  0.00    +0.000 OA
ATOM     28  H   UNL     1      46.087  -0.473   8.253  0.00  0.00    +0.000 HD
ATOM     29  H   UNL     1      47.399  -0.971   7.187  0.00  0.00    +0.000 HD
ENDBRANCH  22  25
ENDBRANCH  17  19
ENDBRANCH  16  17
ENDBRANCH   1  16
TORSDOF 7
ENDMDL
MODEL 2
REMARK VINA RESULT:    -7.826      1.430      1.892
REMARK INTER + INTRA:         -11.950
REMARK INTER:                 -11.198
REMARK INTRA:                  -0.752
REMARK UNBOUND:                -0.922
REMARK  Name = 
REMARK  8 active torsions:
REMARK  status: ('A' for Active; 'I' for Inactive)
REMARK    1  A    between atoms: C_1  and  C_2
REMARK    2  A    between atoms: C_6  and  O_7
REMARK    3  A    between atoms: O_7  and  C_8
REMARK    4  A    between atoms: C_12  and  C_13
REMARK    5  A    between atoms: C_13  and  C_14
REMARK    6  A    between atoms: C_14  and  N_15
REMARK    7  A    between atoms: N_15  and  C_16
REMARK    8  A    between atoms: C_19  and  C_20
REMARK                            x       y       z     vdW  Elec       q    Type
REMARK                         _______ _______ _______ _____ _____    ______ ____
ROOT
ATOM      1  C   UNL     1      44.806   4.482  12.121  0.00  0.00    +0.000 C 
ENDROOT
BRANCH   1   6
ATOM      2  C   UNL     1      47.464   5.109  14.776  0.00  0.00    +0.000 A 
ATOM      3  C   UNL     1      48.025   6.301  14.314  0.00  0.00    +0.000 A 
ATOM      4  C   UNL     1      47.469   6.971  13.225  0.00  0.00    +0.000 A 
ATOM      5  C   UNL     1      46.374   6.420  12.564  0.00  0.00    +0.000 A 
ATOM      6  C   UNL     1      45.854   5.179  12.962  0.00  0.00    +0.000 A 
ATOM      7  C   UNL     1      46.389   4.542  14.093  0.00  0.00    +0.000 A 
BRANCH   2   8
ATOM      8  O   UNL     1      48.095   4.551  15.849  0.00  0.00    +0.000 OA
BRANCH   8  14
ATOM      9  C   UNL     1      50.395   6.044  18.485  0.00  0.00    +0.000 C 
ATOM     10  C   UNL     1      49.817   4.983  17.542  0.00  0.00    +0.000 C 
ATOM     11  C   UNL     1      49.426   3.720  18.302  0.00  0.00    +0.000 C 
ATOM     12  N   UNL     1      48.082   3.960  18.850  0.00  0.00    +0.000 NA
ATOM     13  C   UNL     1      47.508   5.097  18.098  0.00  0.00    +0.000 C 
ATOM     14  C   UNL     1      48.472   5.403  16.943  0.00  0.00    +0.000 C 
ATOM     15  H   UNL     1      48.143   4.204  19.837  0.00  0.00    +0.000 HD
ENDBRANCH   8  14
ENDBRANCH   2   8
ENDBRANCH   1   6
BRANCH   1  16
ATOM     16  C   UNL     1      44.196   5.474  11.120  0.00  0.00    +0.000 C 
BRANCH  16  17
ATOM     17  N   UNL     1      43.708   4.805   9.910  0.00  0.00    +0.000 N 
ATOM     18  H   UNL     1      43.221   5.445   9.284  0.00  0.00    +0.000 HD
BRANCH  17  19
ATOM     19  C   UNL     1      44.647   4.020   9.214  0.00  0.00    +0.000 A 
ATOM     20  C   UNL     1      44.630   2.620   9.222  0.00  0.00    +0.000 A 
ATOM     21  C   UNL     1      45.545   1.891   8.465  0.00  0.00    +0.000 A 
ATOM     22  C   UNL     1      46.448   2.585   7.678  0.00  0.00    +0.000 A 
ATOM     23  N   UNL     1      46.489   3.943   7.595  0.00  0.00    +0.000 NA
ATOM     24  C   UNL     1      45.577   4.610   8.349  0.00  0.00    +0.000 A 
BRANCH  22  25
ATOM     25  C   UNL     1      47.437   1.821   6.853  0.00  0.00    +0.000 C 
ATOM     26  N   UNL     1      48.527   2.533   6.434  0.00  0.00    +0.000 N 
ATOM     27  O   UNL     1      47.287   0.640   6.563  0.00  0.00    +0.000 OA
ATOM     28  H   UNL     1      48.606   3.517   6.680  0.00  0.00    +0.000 HD
ATOM     29  H   UNL     1      49.223   2.086   5.857  0.00  0.00    +0.000 HD
ENDBRANCH  22  25
ENDBRANCH  17  19
ENDBRANCH  16  17
ENDBRANCH   1  16
TORSDOF 7
ENDMDL
MODEL 3
REMARK VINA RESULT:    -7.273      1.721      2.140
REMARK INTER + INTRA:         -11.171
REMARK INTER:                 -10.739
REMARK INTRA:                  -0.433
REMARK UNBOUND:                -0.922
REMARK  Name = 
REMARK  8 active torsions:
REMARK  status: ('A' for Active; 'I' for Inactive)
REMARK    1  A    between atoms: C_1  and  C_2
REMARK    2  A    between atoms: C_6  and  O_7
REMARK    3  A    between atoms: O_7  and  C_8
REMARK    4  A    between atoms: C_12  and  C_13
REMARK    5  A    between atoms: C_13  and  C_14
REMARK    6  A    between atoms: C_14  and  N_15
REMARK    7  A    between atoms: N_15  and  C_16
REMARK    8  A    between atoms: C_19  and  C_20
REMARK                            x       y       z     vdW  Elec       q    Type
REMARK                         _______ _______ _______ _____ _____    ______ ____
ROOT
ATOM      1  C   UNL     1      45.567   5.037  11.574  0.00  0.00    +0.000 C 
ENDROOT
BRANCH   1   6
ATOM      2  C   UNL     1      48.083   6.641  13.942  0.00  0.00    +0.000 A 
ATOM      3  C   UNL     1      47.699   7.981  13.870  0.00  0.00    +0.000 A 
ATOM      4  C   UNL     1      46.556   8.354  13.163  0.00  0.00    +0.000 A 
ATOM      5  C   UNL     1      45.819   7.386  12.486  0.00  0.00    +0.000 A 
ATOM      6  C   UNL     1      46.242   6.048  12.477  0.00  0.00    +0.000 A 
ATOM      7  C   UNL     1      47.364   5.678  13.235  0.00  0.00    +0.000 A 
BRANCH   2   8
ATOM      8  O   UNL     1      49.216   6.403  14.663  0.00  0.00    +0.000 OA
BRANCH   8  14
ATOM      9  C   UNL     1      50.573   8.242  17.702  0.00  0.00    +0.000 C 
ATOM     10  C   UNL     1      50.605   7.493  16.366  0.00  0.00    +0.000 C 
ATOM     11  C   UNL     1      51.523   6.277  16.435  0.00  0.00    +0.000 C 
ATOM     12  N   UNL     1      50.731   5.187  17.025  0.00  0.00    +0.000 NA
ATOM     13  C   UNL     1      49.309   5.572  16.899  0.00  0.00    +0.000 C 
ATOM     14  C   UNL     1      49.262   6.837  16.032  0.00  0.00    +0.000 C 
ATOM     15  H   UNL     1      50.965   5.075  18.010  0.00  0.00    +0.000 HD
ENDBRANCH   8  14
ENDBRANCH   2   8
ENDBRANCH   1   6
BRANCH   1  16
ATOM     16  C   UNL     1      44.267   5.628  11.010  0.00  0.00    +0.000 C 
BRANCH  16  17
ATOM     17  N   UNL     1      43.636   4.737  10.030  0.00  0.00    +0.000 N 
ATOM     18  H   UNL     1      42.975   5.228   9.430  0.00  0.00    +0.000 HD
BRANCH  17  19
ATOM     19  C   UNL     1      44.508   3.925   9.280  0.00  0.00    +0.000 A 
ATOM     20  C   UNL     1      45.476   4.441   8.411  0.00  0.00    +0.000 A 
ATOM     21  C   UNL     1      46.358   3.595   7.740  0.00  0.00    +0.000 A 
ATOM     22  C   UNL     1      46.274   2.235   7.981  0.00  0.00    +0.000 A 
ATOM     23  N   UNL     1      45.383   1.674   8.845  0.00  0.00    +0.000 NA
ATOM     24  C   UNL     1      44.547   2.539   9.477  0.00  0.00    +0.000 A 
BRANCH  22  25
ATOM     25  C   UNL     1      47.213   1.308   7.275  0.00  0.00    +0.000 C 
ATOM     26  N   UNL     1      48.303   1.901   6.699  0.00  0.00    +0.000 N 
ATOM     27  O   UNL     1      47.025   0.098   7.205  0.00  0.00    +0.000 OA
ATOM     28  H   UNL     1      48.414   2.910   6.762  0.00  0.00    +0.000 HD
ATOM     29  H   UNL     1      48.966   1.337   6.189  0.00  0.00    +0.000 HD
ENDBRANCH  22  25
ENDBRANCH  17  19
ENDBRANCH  16  17
ENDBRANCH   1  16
TORSDOF 7
ENDMDL
MODEL 4
REMARK VINA RESULT:    -7.121      2.791      3.920
REMARK INTER + INTRA:         -10.957
REMARK INTER:                 -10.230
REMARK INTRA:                  -0.728
REMARK UNBOUND:                -0.922
REMARK  Name = 
REMARK  8 active torsions:
REMARK  status: ('A' for Active; 'I' for Inactive)
REMARK    1  A    between atoms: C_1  and  C_2
REMARK    2  A    between atoms: C_6  and  O_7
REMARK    3  A    between atoms: O_7  and  C_8
REMARK    4  A    between atoms: C_12  and  C_13
REMARK    5  A    between atoms: C_13  and  C_14
REMARK    6  A    between atoms: C_14  and  N_15
REMARK    7  A    between atoms: N_15  and  C_16
REMARK    8  A    between atoms: C_19  and  C_20
REMARK                            x       y       z     vdW  Elec       q    Type
REMARK                         _______ _______ _______ _____ _____    ______ ____
ROOT
ATOM      1  C   UNL     1      45.445   4.734  11.932  0.00  0.00    +0.000 C 
ENDROOT
BRANCH   1   6
ATOM      2  C   UNL     1      47.785   7.405  13.311  0.00  0.00    +0.000 A 
ATOM      3  C   UNL     1      46.950   8.523  13.296  0.00  0.00    +0.000 A 
ATOM      4  C   UNL     1      45.601   8.396  12.965  0.00  0.00    +0.000 A 
ATOM      5  C   UNL     1      45.096   7.151  12.601  0.00  0.00    +0.000 A 
ATOM      6  C   UNL     1      45.942   6.035  12.526  0.00  0.00    +0.000 A 
ATOM      7  C   UNL     1      47.285   6.165  12.913  0.00  0.00    +0.000 A 
BRANCH   2   8
ATOM      8  O   UNL     1      49.081   7.656  13.652  0.00  0.00    +0.000 OA
BRANCH   8  14
ATOM      9  C   UNL     1      50.103  10.248  11.062  0.00  0.00    +0.000 C 
ATOM     10  C   UNL     1      49.745   8.867  11.625  0.00  0.00    +0.000 C 
ATOM     11  C   UNL     1      50.849   7.853  11.346  0.00  0.00    +0.000 C 
ATOM     12  N   UNL     1      51.852   8.023  12.408  0.00  0.00    +0.000 NA
ATOM     13  C   UNL     1      51.193   8.761  13.508  0.00  0.00    +0.000 C 
ATOM     14  C   UNL     1      49.702   8.853  13.155  0.00  0.00    +0.000 C 
ATOM     15  H   UNL     1      52.642   8.565  12.063  0.00  0.00    +0.000 HD
ENDBRANCH   8  14
ENDBRANCH   2   8
ENDBRANCH   1   6
BRANCH   1  16
ATOM     16  C   UNL     1      44.176   4.990  11.106  0.00  0.00    +0.000 C 
BRANCH  16  17
ATOM     17  N   UNL     1      43.811   3.832  10.284  0.00  0.00    +0.000 N 
ATOM     18  H   UNL     1      42.862   3.901   9.918  0.00  0.00    +0.000 HD
BRANCH  17  19
ATOM     19  C   UNL     1      44.726   3.475   9.275  0.00  0.00    +0.000 A 
ATOM     20  C   UNL     1      45.354   4.411   8.445  0.00  0.00    +0.000 A 
ATOM     21  C   UNL     1      46.301   4.010   7.504  0.00  0.00    +0.000 A 
ATOM     22  C   UNL     1      46.631   2.667   7.436  0.00  0.00    +0.000 A 
ATOM     23  N   UNL     1      46.088   1.714   8.241  0.00  0.00    +0.000 NA
ATOM     24  C   UNL     1      45.171   2.153   9.143  0.00  0.00    +0.000 A 
BRANCH  22  25
ATOM     25  C   UNL     1      47.648   2.215   6.435  0.00  0.00    +0.000 C 
ATOM     26  N   UNL     1      47.835   3.049   5.368  0.00  0.00    +0.000 N 
ATOM     27  O   UNL     1      48.273   1.167   6.552  0.00  0.00    +0.000 OA
ATOM     28  H   UNL     1      47.284   3.901   5.297  0.00  0.00    +0.000 HD
ATOM     29  H   UNL     1      48.492   2.795   4.645  0.00  0.00    +0.000 HD
ENDBRANCH  22  25
ENDBRANCH  17  19
ENDBRANCH  16  17
ENDBRANCH   1  16
TORSDOF 7
ENDMDL
MODEL 5
REMARK VINA RESULT:    -6.951      2.266      8.507
REMARK INTER + INTRA:         -10.717
REMARK INTER:                 -10.034
REMARK INTRA:                  -0.683
REMARK UNBOUND:                -0.922
REMARK  Name = 
REMARK  8 active torsions:
REMARK  status: ('A' for Active; 'I' for Inactive)
REMARK    1  A    between atoms: C_1  and  C_2
REMARK    2  A    between atoms: C_6  and  O_7
REMARK    3  A    between atoms: O_7  and  C_8
REMARK    4  A    between atoms: C_12  and  C_13
REMARK    5  A    between atoms: C_13  and  C_14
REMARK    6  A    between atoms: C_14  and  N_15
REMARK    7  A    between atoms: N_15  and  C_16
REMARK    8  A    between atoms: C_19  and  C_20
REMARK                            x       y       z     vdW  Elec       q    Type
REMARK                         _______ _______ _______ _____ _____    ______ ____
ROOT
ATOM      1  C   UNL     1      46.251   6.601  11.721  0.00  0.00    +0.000 C 
ENDROOT
BRANCH   1   6
ATOM      2  C   UNL     1      45.607   4.546   8.579  0.00  0.00    +0.000 A 
ATOM      3  C   UNL     1      44.529   3.760   8.992  0.00  0.00    +0.000 A 
ATOM      4  C   UNL     1      43.927   3.977  10.231  0.00  0.00    +0.000 A 
ATOM      5  C   UNL     1      44.436   4.954  11.082  0.00  0.00    +0.000 A 
ATOM      6  C   UNL     1      45.573   5.692  10.718  0.00  0.00    +0.000 A 
ATOM      7  C   UNL     1      46.137   5.500   9.447  0.00  0.00    +0.000 A 
BRANCH   2   8
ATOM      8  O   UNL     1      46.109   4.239   7.349  0.00  0.00    +0.000 OA
BRANCH   8  14
ATOM      9  C   UNL     1      46.890   0.516   7.349  0.00  0.00    +0.000 C 
ATOM     10  C   UNL     1      47.128   2.017   7.554  0.00  0.00    +0.000 C 
ATOM     11  C   UNL     1      48.371   2.487   6.806  0.00  0.00    +0.000 C 
ATOM     12  N   UNL     1      47.953   2.745   5.419  0.00  0.00    +0.000 NA
ATOM     13  C   UNL     1      46.479   2.867   5.430  0.00  0.00    +0.000 C 
ATOM     14  C   UNL     1      46.041   2.875   6.901  0.00  0.00    +0.000 C 
ATOM     15  H   UNL     1      48.224   1.967   4.820  0.00  0.00    +0.000 HD
ENDBRANCH   8  14
ENDBRANCH   2   8
ENDBRANCH   1   6
BRANCH   1  16
ATOM     16  C   UNL     1      46.135   6.000  13.130  0.00  0.00    +0.000 C 
BRANCH  16  17
ATOM     17  N   UNL     1      47.182   5.007  13.392  0.00  0.00    +0.000 N 
ATOM     18  H   UNL     1      48.013   5.160  12.823  0.00  0.00    +0.000 HD
BRANCH  17  19
ATOM     19  C   UNL     1      47.515   4.802  14.745  0.00  0.00    +0.000 A 
ATOM     20  C   UNL     1      47.351   3.573  15.396  0.00  0.00    +0.000 A 
ATOM     21  C   UNL     1      47.757   3.407  16.719  0.00  0.00    +0.000 A 
ATOM     22  C   UNL     1      48.357   4.476  17.362  0.00  0.00    +0.000 A 
ATOM     23  N   UNL     1      48.582   5.682  16.772  0.00  0.00    +0.000 NA
ATOM     24  C   UNL     1      48.172   5.796  15.482  0.00  0.00    +0.000 A 
BRANCH  22  25
ATOM     25  C   UNL     1      48.804   4.318  18.782  0.00  0.00    +0.000 C 
ATOM     26  N   UNL     1      48.259   3.259  19.455  0.00  0.00    +0.000 N 
ATOM     27  O   UNL     1      49.599   5.083  19.316  0.00  0.00    +0.000 OA
ATOM     28  H   UNL     1      47.588   2.658  18.983  0.00  0.00    +0.000 HD
ATOM     29  H   UNL     1      48.501   3.106  20.423  0.00  0.00    +0.000 HD
ENDBRANCH  22  25
ENDBRANCH  17  19
ENDBRANCH  16  17
ENDBRANCH   1  16
TORSDOF 7
ENDMDL
MODEL 6
REMARK VINA RESULT:    -6.575      2.689      7.383
REMARK INTER + INTRA:         -10.188
REMARK INTER:                  -8.767
REMARK INTRA:                  -1.420
REMARK UNBOUND:                -0.922
REMARK  Name = 
REMARK  8 active torsions:
REMARK  status: ('A' for Active; 'I' for Inactive)
REMARK    1  A    between atoms: C_1  and  C_2
REMARK    2  A    between atoms: C_6  and  O_7
REMARK    3  A    between atoms: O_7  and  C_8
REMARK    4  A    between atoms: C_12  and  C_13
REMARK    5  A    between atoms: C_13  and  C_14
REMARK    6  A    between atoms: C_14  and  N_15
REMARK    7  A    between atoms: N_15  and  C_16
REMARK    8  A    between atoms: C_19  and  C_20
REMARK                            x       y       z     vdW  Elec       q    Type
REMARK                         _______ _______ _______ _____ _____    ______ ____
ROOT
ATOM      1  C   UNL     1      49.419   8.695  12.499  0.00  0.00    +0.000 C 
ENDROOT
BRANCH   1   6
ATOM      2  C   UNL     1      46.270   6.837  11.427  0.00  0.00    +0.000 A 
ATOM      3  C   UNL     1      45.280   7.670  11.950  0.00  0.00    +0.000 A 
ATOM      4  C   UNL     1      45.615   8.891  12.535  0.00  0.00    +0.000 A 
ATOM      5  C   UNL     1      46.954   9.259  12.640  0.00  0.00    +0.000 A 
ATOM      6  C   UNL     1      47.966   8.393  12.197  0.00  0.00    +0.000 A 
ATOM      7  C   UNL     1      47.612   7.192  11.563  0.00  0.00    +0.000 A 
BRANCH   2   8
ATOM      8  O   UNL     1      45.818   5.673  10.880  0.00  0.00    +0.000 OA
BRANCH   8  14
ATOM      9  C   UNL     1      43.259   4.212  13.285  0.00  0.00    +0.000 C 
ATOM     10  C   UNL     1      44.636   4.476  12.666  0.00  0.00    +0.000 C 
ATOM     11  C   UNL     1      45.334   3.172  12.293  0.00  0.00    +0.000 C 
ATOM     12  N   UNL     1      44.817   2.784  10.972  0.00  0.00    +0.000 NA
ATOM     13  C   UNL     1      44.200   3.990  10.380  0.00  0.00    +0.000 C 
ATOM     14  C   UNL     1      44.540   5.167  11.303  0.00  0.00    +0.000 C 
ATOM     15  H   UNL     1      44.111   2.056  11.070  0.00  0.00    +0.000 HD
ENDBRANCH   8  14
ENDBRANCH   2   8
ENDBRANCH   1   6
BRANCH   1  16
ATOM     16  C   UNL     1      49.948   7.709  13.551  0.00  0.00    +0.000 C 
BRANCH  16  17
ATOM     17  N   UNL     1      49.400   7.979  14.884  0.00  0.00    +0.000 N 
ATOM     18  H   UNL     1      48.748   8.762  14.883  0.00  0.00    +0.000 HD
BRANCH  17  19
ATOM     19  C   UNL     1      48.872   6.870  15.573  0.00  0.00    +0.000 A 
ATOM     20  C   UNL     1      47.976   5.965  14.993  0.00  0.00    +0.000 A 
ATOM     21  C   UNL     1      47.532   4.848  15.698  0.00  0.00    +0.000 A 
ATOM     22  C   UNL     1      48.027   4.637  16.974  0.00  0.00    +0.000 A 
ATOM     23  N   UNL     1      48.931   5.456  17.578  0.00  0.00    +0.000 NA
ATOM     24  C   UNL     1      49.335   6.531  16.851  0.00  0.00    +0.000 A 
BRANCH  22  25
ATOM     25  C   UNL     1      47.568   3.441  17.748  0.00  0.00    +0.000 C 
ATOM     26  N   UNL     1      48.345   3.102  18.821  0.00  0.00    +0.000 N 
ATOM     27  O   UNL     1      46.569   2.799  17.445  0.00  0.00    +0.000 OA
ATOM     28  H   UNL     1      49.177   3.648  19.028  0.00  0.00    +0.000 HD
ATOM     29  H   UNL     1      48.104   2.293  19.375  0.00  0.00    +0.000 HD
ENDBRANCH  22  25
ENDBRANCH  17  19
ENDBRANCH  16  17
ENDBRANCH   1  16
TORSDOF 7
ENDMDL
MODEL 7
REMARK VINA RESULT:    -6.463      2.827      4.486
REMARK INTER + INTRA:         -10.030
REMARK INTER:                  -9.065
REMARK INTRA:                  -0.965
REMARK UNBOUND:                -0.922
REMARK  Name = 
REMARK  8 active torsions:
REMARK  status: ('A' for Active; 'I' for Inactive)
REMARK    1  A    between atoms: C_1  and  C_2
REMARK    2  A    between atoms: C_6  and  O_7
REMARK    3  A    between atoms: O_7  and  C_8
REMARK    4  A    between atoms: C_12  and  C_13
REMARK    5  A    between atoms: C_13  and  C_14
REMARK    6  A    between atoms: C_14  and  N_15
REMARK    7  A    between atoms: N_15  and  C_16
REMARK    8  A    between atoms: C_19  and  C_20
REMARK                            x       y       z     vdW  Elec       q    Type
REMARK                         _______ _______ _______ _____ _____    ______ ____
ROOT
ATOM      1  C   UNL     1      48.369   7.223  12.512  0.00  0.00    +0.000 C 
ENDROOT
BRANCH   1   6
ATOM      2  C   UNL     1      49.328   6.453  16.117  0.00  0.00    +0.000 A 
ATOM      3  C   UNL     1      50.580   7.065  16.195  0.00  0.00    +0.000 A 
ATOM      4  C   UNL     1      51.062   7.832  15.135  0.00  0.00    +0.000 A 
ATOM      5  C   UNL     1      50.307   7.950  13.972  0.00  0.00    +0.000 A 
ATOM      6  C   UNL     1      49.086   7.269  13.845  0.00  0.00    +0.000 A 
ATOM      7  C   UNL     1      48.589   6.543  14.938  0.00  0.00    +0.000 A 
BRANCH   2   8
ATOM      8  O   UNL     1      48.967   5.731  17.217  0.00  0.00    +0.000 OA
BRANCH   8  14
ATOM      9  C   UNL     1      50.232   2.144  17.176  0.00  0.00    +0.000 C 
ATOM     10  C   UNL     1      49.229   3.297  17.056  0.00  0.00    +0.000 C 
ATOM     11  C   UNL     1      48.024   3.080  17.966  0.00  0.00    +0.000 C 
ATOM     12  N   UNL     1      48.415   3.560  19.300  0.00  0.00    +0.000 NA
ATOM     13  C   UNL     1      49.598   4.428  19.115  0.00  0.00    +0.000 C 
ATOM     14  C   UNL     1      49.786   4.614  17.603  0.00  0.00    +0.000 C 
ATOM     15  H   UNL     1      48.661   2.774  19.899  0.00  0.00    +0.000 HD
ENDBRANCH   8  14
ENDBRANCH   2   8
ENDBRANCH   1   6
BRANCH   1  16
ATOM     16  C   UNL     1      47.214   8.236  12.507  0.00  0.00    +0.000 C 
BRANCH  16  17
ATOM     17  N   UNL     1      46.004   7.695  13.136  0.00  0.00    +0.000 N 
ATOM     18  H   UNL     1      45.252   8.381  13.180  0.00  0.00    +0.000 HD
BRANCH  17  19
ATOM     19  C   UNL     1      45.547   6.460  12.637  0.00  0.00    +0.000 A 
ATOM     20  C   UNL     1      45.532   5.286  13.398  0.00  0.00    +0.000 A 
ATOM     21  C   UNL     1      45.009   4.104  12.877  0.00  0.00    +0.000 A 
ATOM     22  C   UNL     1      44.473   4.129  11.601  0.00  0.00    +0.000 A 
ATOM     23  N   UNL     1      44.420   5.247  10.827  0.00  0.00    +0.000 NA
ATOM     24  C   UNL     1      44.939   6.374  11.378  0.00  0.00    +0.000 A 
BRANCH  22  25
ATOM     25  C   UNL     1      43.902   2.872  11.023  0.00  0.00    +0.000 C 
ATOM     26  N   UNL     1      44.542   2.391   9.914  0.00  0.00    +0.000 N 
ATOM     27  O   UNL     1      42.924   2.306  11.499  0.00  0.00    +0.000 OA
ATOM     28  H   UNL     1      45.339   2.899   9.538  0.00  0.00    +0.000 HD
ATOM     29  H   UNL     1      44.197   1.558   9.461  0.00  0.00    +0.000 HD
ENDBRANCH  22  25
ENDBRANCH  17  19
ENDBRANCH  16  17
ENDBRANCH   1  16
TORSDOF 7
ENDMDL
MODEL 8
REMARK VINA RESULT:    -6.447      2.814      7.903
REMARK INTER + INTRA:         -10.007
REMARK INTER:                  -9.244
REMARK INTRA:                  -0.763
REMARK UNBOUND:                -0.922
REMARK  Name = 
REMARK  8 active torsions:
REMARK  status: ('A' for Active; 'I' for Inactive)
REMARK    1  A    between atoms: C_1  and  C_2
REMARK    2  A    between atoms: C_6  and  O_7
REMARK    3  A    between atoms: O_7  and  C_8
REMARK    4  A    between atoms: C_12  and  C_13
REMARK    5  A    between atoms: C_13  and  C_14
REMARK    6  A    between atoms: C_14  and  N_15
REMARK    7  A    between atoms: N_15  and  C_16
REMARK    8  A    between atoms: C_19  and  C_20
REMARK                            x       y       z     vdW  Elec       q    Type
REMARK                         _______ _______ _______ _____ _____    ______ ____
ROOT
ATOM      1  C   UNL     1      49.148   7.304  14.668  0.00  0.00    +0.000 C 
ENDROOT
BRANCH   1   6
ATOM      2  C   UNL     1      45.862   6.128  13.141  0.00  0.00    +0.000 A 
ATOM      3  C   UNL     1      45.291   7.347  12.771  0.00  0.00    +0.000 A 
ATOM      4  C   UNL     1      46.011   8.534  12.893  0.00  0.00    +0.000 A 
ATOM      5  C   UNL     1      47.294   8.509  13.434  0.00  0.00    +0.000 A 
ATOM      6  C   UNL     1      47.848   7.304  13.892  0.00  0.00    +0.000 A 
ATOM      7  C   UNL     1      47.133   6.109  13.714  0.00  0.00    +0.000 A 
BRANCH   2   8
ATOM      8  O   UNL     1      45.060   5.038  12.973  0.00  0.00    +0.000 OA
BRANCH   8  14
ATOM      9  C   UNL     1      45.054   4.347   9.233  0.00  0.00    +0.000 C 
ATOM     10  C   UNL     1      44.637   4.997  10.557  0.00  0.00    +0.000 C 
ATOM     11  C   UNL     1      43.137   4.859  10.793  0.00  0.00    +0.000 C 
ATOM     12  N   UNL     1      42.927   3.528  11.384  0.00  0.00    +0.000 NA
ATOM     13  C   UNL     1      44.237   3.073  11.895  0.00  0.00    +0.000 C 
ATOM     14  C   UNL     1      45.203   4.259  11.773  0.00  0.00    +0.000 C 
ATOM     15  H   UNL     1      42.596   2.877  10.674  0.00  0.00    +0.000 HD
ENDBRANCH   8  14
ENDBRANCH   2   8
ENDBRANCH   1   6
BRANCH   1  16
ATOM     16  C   UNL     1      48.903   7.813  16.095  0.00  0.00    +0.000 C 
BRANCH  16  17
ATOM     17  N   UNL     1      48.410   6.754  16.982  0.00  0.00    +0.000 N 
ATOM     18  H   UNL     1      47.438   6.514  16.794  0.00  0.00    +0.000 HD
BRANCH  17  19
ATOM     19  C   UNL     1      49.215   5.603  17.078  0.00  0.00    +0.000 A 
ATOM     20  C   UNL     1      50.575   5.645  17.404  0.00  0.00    +0.000 A 
ATOM     21  C   UNL     1      51.312   4.471  17.549  0.00  0.00    +0.000 A 
ATOM     22  C   UNL     1      50.657   3.261  17.396  0.00  0.00    +0.000 A 
ATOM     23  N   UNL     1      49.329   3.152  17.120  0.00  0.00    +0.000 NA
ATOM     24  C   UNL     1      48.653   4.323  16.990  0.00  0.00    +0.000 A 
BRANCH  22  25
ATOM     25  C   UNL     1      51.428   1.988  17.551  0.00  0.00    +0.000 C 
ATOM     26  N   UNL     1      52.426   2.014  18.486  0.00  0.00    +0.000 N 
ATOM     27  O   UNL     1      51.193   0.985  16.887  0.00  0.00    +0.000 OA
ATOM     28  H   UNL     1      52.603   2.872  19.003  0.00  0.00    +0.000 HD
ATOM     29  H   UNL     1      52.999   1.196  18.627  0.00  0.00    +0.000 HD
ENDBRANCH  22  25
ENDBRANCH  17  19
ENDBRANCH  16  17
ENDBRANCH   1  16
TORSDOF 7
ENDMDL
MODEL 9
REMARK VINA RESULT:    -5.978      2.876      4.783
REMARK INTER + INTRA:          -9.347
REMARK INTER:                  -8.574
REMARK INTRA:                  -0.773
REMARK UNBOUND:                -0.922
REMARK  Name = 
REMARK  8 active torsions:
REMARK  status: ('A' for Active; 'I' for Inactive)
REMARK    1  A    between atoms: C_1  and  C_2
REMARK    2  A    between atoms: C_6  and  O_7
REMARK    3  A    between atoms: O_7  and  C_8
REMARK    4  A    between atoms: C_12  and  C_13
REMARK    5  A    between atoms: C_13  and  C_14
REMARK    6  A    between atoms: C_14  and  N_15
REMARK    7  A    between atoms: N_15  and  C_16
REMARK    8  A    between atoms: C_19  and  C_20
REMARK                            x       y       z     vdW  Elec       q    Type
REMARK                         _______ _______ _______ _____ _____    ______ ____
ROOT
ATOM      1  C   UNL     1      49.313   7.981  13.757  0.00  0.00    +0.000 C 
ENDROOT
BRANCH   1   6
ATOM      2  C   UNL     1      50.375   5.830  16.716  0.00  0.00    +0.000 A 
ATOM      3  C   UNL     1      51.736   6.131  16.788  0.00  0.00    +0.000 A 
ATOM      4  C   UNL     1      52.288   7.117  15.972  0.00  0.00    +0.000 A 
ATOM      5  C   UNL     1      51.484   7.774  15.045  0.00  0.00    +0.000 A 
ATOM      6  C   UNL     1      50.133   7.421  14.900  0.00  0.00    +0.000 A 
ATOM      7  C   UNL     1      49.578   6.464  15.764  0.00  0.00    +0.000 A 
BRANCH   2   8
ATOM      8  O   UNL     1      49.954   4.849  17.565  0.00  0.00    +0.000 OA
BRANCH   8  14
ATOM      9  C   UNL     1      46.805   5.897  19.423  0.00  0.00    +0.000 C 
ATOM     10  C   UNL     1      48.300   5.656  19.187  0.00  0.00    +0.000 C 
ATOM     11  C   UNL     1      48.898   4.773  20.278  0.00  0.00    +0.000 C 
ATOM     12  N   UNL     1      48.615   3.382  19.891  0.00  0.00    +0.000 NA
ATOM     13  C   UNL     1      48.280   3.395  18.451  0.00  0.00    +0.000 C 
ATOM     14  C   UNL     1      48.566   4.813  17.938  0.00  0.00    +0.000 C 
ATOM     15  H   UNL     1      47.821   3.024  20.420  0.00  0.00    +0.000 HD
ENDBRANCH   8  14
ENDBRANCH   2   8
ENDBRANCH   1   6
BRANCH   1  16
ATOM     16  C   UNL     1      48.516   6.853  13.087  0.00  0.00    +0.000 C 
BRANCH  16  17
ATOM     17  N   UNL     1      47.102   6.868  13.480  0.00  0.00    +0.000 N 
ATOM     18  H   UNL     1      46.696   7.800  13.426  0.00  0.00    +0.000 HD
BRANCH  17  19
ATOM     19  C   UNL     1      46.277   5.909  12.861  0.00  0.00    +0.000 A 
ATOM     20  C   UNL     1      46.055   5.869  11.480  0.00  0.00    +0.000 A 
ATOM     21  C   UNL     1      45.280   4.860  10.910  0.00  0.00    +0.000 A 
ATOM     22  C   UNL     1      44.765   3.880  11.740  0.00  0.00    +0.000 A 
ATOM     23  N   UNL     1      44.978   3.839  13.084  0.00  0.00    +0.000 NA
ATOM     24  C   UNL     1      45.741   4.842  13.593  0.00  0.00    +0.000 A 
BRANCH  22  25
ATOM     25  C   UNL     1      43.933   2.784  11.150  0.00  0.00    +0.000 C 
ATOM     26  N   UNL     1      44.300   2.378   9.897  0.00  0.00    +0.000 N 
ATOM     27  O   UNL     1      42.981   2.283  11.738  0.00  0.00    +0.000 OA
ATOM     28  H   UNL     1      45.083   2.832   9.433  0.00  0.00    +0.000 HD
ATOM     29  H   UNL     1      43.769   1.658   9.431  0.00  0.00    +0.000 HD
ENDBRANCH  22  25
ENDBRANCH  17  19
ENDBRANCH  16  17
ENDBRANCH   1  16
TORSDOF 7
ENDMDL
