MODEL 1
REMARK VINA RESULT:    -7.715      0.000      0.000
REMARK INTER + INTRA:         -11.267
REMARK INTER:                 -10.421
REMARK INTRA:                  -0.847
REMARK UNBOUND:                -0.847
REMARK  Name = 
REMARK  10 active torsions:
REMARK  status: ('A' for Active; 'I' for Inactive)
REMARK    1  A    between atoms: C_1  and  C_2
REMARK    2  A    between atoms: N_4  and  C_5
REMARK    3  A    between atoms: C_9  and  C_10
REMARK    4  A    between atoms: C_10  and  C_11
REMARK    5  A    between atoms: C_10  and  C_12
REMARK    6  A    between atoms: C_10  and  C_13
REMARK    7  A    between atoms: C_13  and  N_14
REMARK    8  A    between atoms: N_14  and  C_15
REMARK    9  A    between atoms: C_18  and  C_19
REMARK   10  A    between atoms: C_26  and  C_27
REMARK                            x       y       z     vdW  Elec       q    Type
REMARK                         _______ _______ _______ _____ _____    ______ ____
ROOT
ATOM      1  C   UNL     1      44.491   5.999  11.811  0.00  0.00    +0.000 C 
ATOM      2  C   UNL     1      45.711   5.059  11.938  0.00  0.00    +0.000 C 
ATOM      3  C   UNL     1      43.517   5.653  12.965  0.00  0.00    +0.000 C 
ENDROOT
BRANCH   1   8
ATOM      4  C   UNL     1      46.824   9.071  12.305  0.00  0.00    +0.000 A 
ATOM      5  C   UNL     1      45.972  10.103  11.899  0.00  0.00    +0.000 A 
ATOM      6  C   UNL     1      44.657   9.855  11.509  0.00  0.00    +0.000 A 
ATOM      7  C   UNL     1      44.165   8.551  11.489  0.00  0.00    +0.000 A 
ATOM      8  C   UNL     1      44.971   7.472  11.878  0.00  0.00    +0.000 A 
ATOM      9  C   UNL     1      46.283   7.774  12.315  0.00  0.00    +0.000 A 
BRANCH   4  13
ATOM     10  C   UNL     1      48.895   6.864  14.539  0.00  0.00    +0.000 C 
ATOM     11  C   UNL     1      49.564   8.228  14.386  0.00  0.00    +0.000 C 
ATOM     12  C   UNL     1      48.576   9.373  14.078  0.00  0.00    +0.000 C 
ATOM     13  N   UNL     1      48.125   9.342  12.680  0.00  0.00    +0.000 N 
ATOM     14  C   UNL     1      49.222   9.250  11.701  0.00  0.00    +0.000 C 
ATOM     15  C   UNL     1      50.170   8.084  12.067  0.00  0.00    +0.000 C 
ATOM     16  C   UNL     1      51.401   8.087  11.168  0.00  0.00    +0.000 C 
ATOM     17  O   UNL     1      50.637   8.178  13.426  0.00  0.00    +0.000 OA
ENDBRANCH   4  13
ENDBRANCH   1   8
BRANCH   1  18
ATOM     18  C   UNL     1      43.776   5.763  10.434  0.00  0.00    +0.000 C 
BRANCH  18  19
ATOM     19  N   UNL     1      43.546   4.339  10.137  0.00  0.00    +0.000 N 
ATOM     20  H   UNL     1      42.623   4.172   9.745  0.00  0.00    +0.000 HD
BRANCH  19  21
ATOM     21  C   UNL     1      44.511   3.645   9.391  0.00  0.00    +0.000 A 
ATOM     22  C   UNL     1      44.728   2.267   9.498  0.00  0.00    +0.000 A 
ATOM     23  C   UNL     1      45.662   1.614   8.683  0.00  0.00    +0.000 A 
ATOM     24  C   UNL     1      46.373   2.324   7.713  0.00  0.00    +0.000 A 
ATOM     25  C   UNL     1      46.145   3.694   7.566  0.00  0.00    +0.000 A 
ATOM     26  C   UNL     1      45.207   4.337   8.385  0.00  0.00    +0.000 A 
BRANCH  24  27
ATOM     27  C   UNL     1      47.360   1.583   6.883  0.00  0.00    +0.000 C 
ATOM     28  N   UNL     1      48.523   2.225   6.559  0.00  0.00    +0.000 N 
ATOM     29  O   UNL     1      47.135   0.453   6.471  0.00  0.00    +0.000 OA
ATOM     30  H   UNL     1      48.638   3.223   6.654  0.00  0.00    +0.000 HD
ATOM     31  H   UNL     1      49.122   1.746   5.901  0.00  0.00    +0.000 HD
ENDBRANCH  24  27
ENDBRANCH  19  21
ENDBRANCH  18  19
ENDBRANCH   1  18
TORSDOF 6
ENDMDL
MODEL 2
REMARK VINA RESULT:    -7.300      3.133      7.547
REMARK INTER + INTRA:         -10.708
REMARK INTER:                  -9.500
REMARK INTRA:                  -1.208
REMARK UNBOUND:                -0.847
REMARK  Name = 
REMARK  10 active torsions:
REMARK  status: ('A' for Active; 'I' for Inactive)
REMARK    1  A    between atoms: C_1  and  C_2
REMARK    2  A    between atoms: N_4  and  C_5
REMARK    3  A    between atoms: C_9  and  C_10
REMARK    4  A    between atoms: C_10  and  C_11
REMARK    5  A    between atoms: C_10  and  C_12
REMARK    6  A    between atoms: C_10  and  C_13
REMARK    7  A    between atoms: C_13  and  N_14
REMARK    8  A    between atoms: N_14  and  C_15
REMARK    9  A    between atoms: C_18  and  C_19
REMARK   10  A    between atoms: C_26  and  C_27
REMARK                            x       y       z     vdW  Elec       q    Type
REMARK                         _______ _______ _______ _____ _____    ______ ____
ROOT
ATOM      1  C   UNL     1      49.058   8.785  12.582  0.00  0.00    +0.000 C 
ATOM      2  C   UNL     1      49.960   7.699  11.954  0.00  0.00    +0.000 C 
ATOM      3  C   UNL     1      49.475  10.146  11.973  0.00  0.00    +0.000 C 
ENDROOT
BRANCH   1   8
ATOM      4  C   UNL     1      45.840   6.711  11.892  0.00  0.00    +0.000 A 
ATOM      5  C   UNL     1      44.880   7.729  11.888  0.00  0.00    +0.000 A 
ATOM      6  C   UNL     1      45.232   9.067  12.059  0.00  0.00    +0.000 A 
ATOM      7  C   UNL     1      46.563   9.422  12.268  0.00  0.00    +0.000 A 
ATOM      8  C   UNL     1      47.572   8.448  12.289  0.00  0.00    +0.000 A 
ATOM      9  C   UNL     1      47.178   7.108  12.061  0.00  0.00    +0.000 A 
BRANCH   4  13
ATOM     10  C   UNL     1      42.276   5.511  11.784  0.00  0.00    +0.000 C 
ATOM     11  C   UNL     1      43.223   4.324  11.953  0.00  0.00    +0.000 C 
ATOM     12  C   UNL     1      44.556   4.687  12.640  0.00  0.00    +0.000 C 
ATOM     13  N   UNL     1      45.466   5.393  11.727  0.00  0.00    +0.000 N 
ATOM     14  C   UNL     1      45.652   4.718  10.430  0.00  0.00    +0.000 C 
ATOM     15  C   UNL     1      44.280   4.387   9.798  0.00  0.00    +0.000 C 
ATOM     16  C   UNL     1      44.455   3.536   8.545  0.00  0.00    +0.000 C 
ATOM     17  O   UNL     1      43.437   3.646  10.700  0.00  0.00    +0.000 OA
ENDBRANCH   4  13
ENDBRANCH   1   8
BRANCH   1  18
ATOM     18  C   UNL     1      49.269   8.820  14.137  0.00  0.00    +0.000 C 
BRANCH  18  19
ATOM     19  N   UNL     1      50.077   7.695  14.638  0.00  0.00    +0.000 N 
ATOM     20  H   UNL     1      50.930   8.007  15.094  0.00  0.00    +0.000 HD
BRANCH  19  21
ATOM     21  C   UNL     1      49.449   6.717  15.426  0.00  0.00    +0.000 A 
ATOM     22  C   UNL     1      48.253   6.087  15.067  0.00  0.00    +0.000 A 
ATOM     23  C   UNL     1      47.702   5.071  15.860  0.00  0.00    +0.000 A 
ATOM     24  C   UNL     1      48.360   4.638  17.012  0.00  0.00    +0.000 A 
ATOM     25  C   UNL     1      49.574   5.230  17.368  0.00  0.00    +0.000 A 
ATOM     26  C   UNL     1      50.117   6.244  16.567  0.00  0.00    +0.000 A 
BRANCH  24  27
ATOM     27  C   UNL     1      47.725   3.565  17.822  0.00  0.00    +0.000 C 
ATOM     28  N   UNL     1      48.277   3.281  19.041  0.00  0.00    +0.000 N 
ATOM     29  O   UNL     1      46.765   2.929  17.409  0.00  0.00    +0.000 OA
ATOM     30  H   UNL     1      49.200   3.591  19.305  0.00  0.00    +0.000 HD
ATOM     31  H   UNL     1      47.900   2.473  19.518  0.00  0.00    +0.000 HD
ENDBRANCH  24  27
ENDBRANCH  19  21
ENDBRANCH  18  19
ENDBRANCH   1  18
TORSDOF 6
ENDMDL
MODEL 3
REMARK VINA RESULT:    -7.025      3.311      5.692
REMARK INTER + INTRA:         -10.336
REMARK INTER:                  -8.930
REMARK INTRA:                  -1.406
REMARK UNBOUND:                -0.847
REMARK  Name = 
REMARK  10 active torsions:
REMARK  status: ('A' for Active; 'I' for Inactive)
REMARK    1  A    between atoms: C_1  and  C_2
REMARK    2  A    between atoms: N_4  and  C_5
REMARK    3  A    between atoms: C_9  and  C_10
REMARK    4  A    between atoms: C_10  and  C_11
REMARK    5  A    between atoms: C_10  and  C_12
REMARK    6  A    between atoms: C_10  and  C_13
REMARK    7  A    between atoms: C_13  and  N_14
REMARK    8  A    between atoms: N_14  and  C_15
REMARK    9  A    between atoms: C_18  and  C_19
REMARK   10  A    between atoms: C_26  and  C_27
REMARK                            x       y       z     vdW  Elec       q    Type
REMARK                         _______ _______ _______ _____ _____    ______ ____
ROOT
ATOM      1  C   UNL     1      48.646   8.078  13.228  0.00  0.00    +0.000 C 
ATOM      2  C   UNL     1      49.730   9.036  12.686  0.00  0.00    +0.000 C 
ATOM      3  C   UNL     1      49.054   6.640  12.823  0.00  0.00    +0.000 C 
ENDROOT
BRANCH   1   8
ATOM      4  C   UNL     1      48.668   7.186  17.014  0.00  0.00    +0.000 A 
ATOM      5  C   UNL     1      48.503   8.457  17.574  0.00  0.00    +0.000 A 
ATOM      6  C   UNL     1      48.345   9.591  16.779  0.00  0.00    +0.000 A 
ATOM      7  C   UNL     1      48.374   9.485  15.390  0.00  0.00    +0.000 A 
ATOM      8  C   UNL     1      48.542   8.240  14.767  0.00  0.00    +0.000 A 
ATOM      9  C   UNL     1      48.648   7.108  15.610  0.00  0.00    +0.000 A 
BRANCH   4  13
ATOM     10  C   UNL     1      47.512   3.718  16.124  0.00  0.00    +0.000 C 
ATOM     11  C   UNL     1      47.871   3.785  17.607  0.00  0.00    +0.000 C 
ATOM     12  C   UNL     1      47.724   5.195  18.218  0.00  0.00    +0.000 C 
ATOM     13  N   UNL     1      48.829   6.078  17.822  0.00  0.00    +0.000 N 
ATOM     14  C   UNL     1      50.166   5.495  18.036  0.00  0.00    +0.000 C 
ATOM     15  C   UNL     1      50.244   4.089  17.398  0.00  0.00    +0.000 C 
ATOM     16  C   UNL     1      51.557   3.404  17.761  0.00  0.00    +0.000 C 
ATOM     17  O   UNL     1      49.179   3.233  17.852  0.00  0.00    +0.000 OA
ENDBRANCH   4  13
ENDBRANCH   1   8
BRANCH   1  18
ATOM     18  C   UNL     1      47.256   8.428  12.589  0.00  0.00    +0.000 C 
BRANCH  18  19
ATOM     19  N   UNL     1      46.121   7.817  13.300  0.00  0.00    +0.000 N 
ATOM     20  H   UNL     1      45.394   8.493  13.517  0.00  0.00    +0.000 HD
BRANCH  19  21
ATOM     21  C   UNL     1      45.543   6.654  12.766  0.00  0.00    +0.000 A 
ATOM     22  C   UNL     1      44.844   6.623  11.555  0.00  0.00    +0.000 A 
ATOM     23  C   UNL     1      44.342   5.422  11.038  0.00  0.00    +0.000 A 
ATOM     24  C   UNL     1      44.563   4.216  11.706  0.00  0.00    +0.000 A 
ATOM     25  C   UNL     1      45.290   4.221  12.899  0.00  0.00    +0.000 A 
ATOM     26  C   UNL     1      45.789   5.429  13.407  0.00  0.00    +0.000 A 
BRANCH  24  27
ATOM     27  C   UNL     1      43.998   2.973  11.118  0.00  0.00    +0.000 C 
ATOM     28  N   UNL     1      44.686   2.390  10.091  0.00  0.00    +0.000 N 
ATOM     29  O   UNL     1      42.939   2.500  11.509  0.00  0.00    +0.000 OA
ATOM     30  H   UNL     1      45.407   2.873   9.575  0.00  0.00    +0.000 HD
ATOM     31  H   UNL     1      44.223   1.615   9.634  0.00  0.00    +0.000 HD
ENDBRANCH  24  27
ENDBRANCH  19  21
ENDBRANCH  18  19
ENDBRANCH   1  18
TORSDOF 6
ENDMDL
MODEL 4
REMARK VINA RESULT:    -7.006      3.470      6.164
REMARK INTER + INTRA:         -10.310
REMARK INTER:                  -9.042
REMARK INTRA:                  -1.268
REMARK UNBOUND:                -0.847
REMARK  Name = 
REMARK  10 active torsions:
REMARK  status: ('A' for Active; 'I' for Inactive)
REMARK    1  A    between atoms: C_1  and  C_2
REMARK    2  A    between atoms: N_4  and  C_5
REMARK    3  A    between atoms: C_9  and  C_10
REMARK    4  A    between atoms: C_10  and  C_11
REMARK    5  A    between atoms: C_10  and  C_12
REMARK    6  A    between atoms: C_10  and  C_13
REMARK    7  A    between atoms: C_13  and  N_14
REMARK    8  A    between atoms: N_14  and  C_15
REMARK    9  A    between atoms: C_18  and  C_19
REMARK   10  A    between atoms: C_26  and  C_27
REMARK                            x       y       z     vdW  Elec       q    Type
REMARK                         _______ _______ _______ _____ _____    ______ ____
ROOT
ATOM      1  C   UNL     1      49.001   8.135  13.441  0.00  0.00    +0.000 C 
ATOM      2  C   UNL     1      48.930   9.678  13.385  0.00  0.00    +0.000 C 
ATOM      3  C   UNL     1      49.398   7.638  12.029  0.00  0.00    +0.000 C 
ENDROOT
BRANCH   1   8
ATOM      4  C   UNL     1      50.571   6.267  16.469  0.00  0.00    +0.000 A 
ATOM      5  C   UNL     1      51.875   6.772  16.428  0.00  0.00    +0.000 A 
ATOM      6  C   UNL     1      52.262   7.724  15.487  0.00  0.00    +0.000 A 
ATOM      7  C   UNL     1      51.352   8.180  14.535  0.00  0.00    +0.000 A 
ATOM      8  C   UNL     1      50.032   7.709  14.518  0.00  0.00    +0.000 A 
ATOM      9  C   UNL     1      49.667   6.781  15.523  0.00  0.00    +0.000 A 
BRANCH   4  13
ATOM     10  C   UNL     1      47.541   4.053  16.208  0.00  0.00    +0.000 C 
ATOM     11  C   UNL     1      48.115   3.990  17.622  0.00  0.00    +0.000 C 
ATOM     12  C   UNL     1      48.887   5.260  18.036  0.00  0.00    +0.000 C 
ATOM     13  N   UNL     1      50.214   5.320  17.408  0.00  0.00    +0.000 N 
ATOM     14  C   UNL     1      51.006   4.087  17.567  0.00  0.00    +0.000 C 
ATOM     15  C   UNL     1      50.175   2.858  17.133  0.00  0.00    +0.000 C 
ATOM     16  C   UNL     1      50.916   1.565  17.456  0.00  0.00    +0.000 C 
ATOM     17  O   UNL     1      48.906   2.801  17.811  0.00  0.00    +0.000 OA
ENDBRANCH   4  13
ENDBRANCH   1   8
BRANCH   1  18
ATOM     18  C   UNL     1      47.597   7.550  13.826  0.00  0.00    +0.000 C 
BRANCH  18  19
ATOM     19  N   UNL     1      46.592   7.704  12.761  0.00  0.00    +0.000 N 
ATOM     20  H   UNL     1      46.953   8.219  11.963  0.00  0.00    +0.000 HD
BRANCH  19  21
ATOM     21  C   UNL     1      45.904   6.563  12.318  0.00  0.00    +0.000 A 
ATOM     22  C   UNL     1      45.594   6.320  10.976  0.00  0.00    +0.000 A 
ATOM     23  C   UNL     1      44.961   5.134  10.581  0.00  0.00    +0.000 A 
ATOM     24  C   UNL     1      44.659   4.146  11.521  0.00  0.00    +0.000 A 
ATOM     25  C   UNL     1      44.994   4.355  12.861  0.00  0.00    +0.000 A 
ATOM     26  C   UNL     1      45.628   5.544  13.244  0.00  0.00    +0.000 A 
BRANCH  24  27
ATOM     27  C   UNL     1      43.978   2.912  11.049  0.00  0.00    +0.000 C 
ATOM     28  N   UNL     1      44.557   2.224  10.019  0.00  0.00    +0.000 N 
ATOM     29  O   UNL     1      42.919   2.536  11.533  0.00  0.00    +0.000 OA
ATOM     30  H   UNL     1      45.272   2.625   9.430  0.00  0.00    +0.000 HD
ATOM     31  H   UNL     1      44.016   1.457   9.642  0.00  0.00    +0.000 HD
ENDBRANCH  24  27
ENDBRANCH  19  21
ENDBRANCH  18  19
ENDBRANCH   1  18
TORSDOF 6
ENDMDL
MODEL 5
REMARK VINA RESULT:    -6.863      3.399      5.746
REMARK INTER + INTRA:         -10.117
REMARK INTER:                  -8.904
REMARK INTRA:                  -1.213
REMARK UNBOUND:                -0.847
REMARK  Name = 
REMARK  10 active torsions:
REMARK  status: ('A' for Active; 'I' for Inactive)
REMARK    1  A    between atoms: C_1  and  C_2
REMARK    2  A    between atoms: N_4  and  C_5
REMARK    3  A    between atoms: C_9  and  C_10
REMARK    4  A    between atoms: C_10  and  C_11
REMARK    5  A    between atoms: C_10  and  C_12
REMARK    6  A    between atoms: C_10  and  C_13
REMARK    7  A    between atoms: C_13  and  N_14
REMARK    8  A    between atoms: N_14  and  C_15
REMARK    9  A    between atoms: C_18  and  C_19
REMARK   10  A    between atoms: C_26  and  C_27
REMARK                            x       y       z     vdW  Elec       q    Type
REMARK                         _______ _______ _______ _____ _____    ______ ____
ROOT
ATOM      1  C   UNL     1      48.650   8.476  12.941  0.00  0.00    +0.000 C 
ATOM      2  C   UNL     1      49.373   9.722  12.383  0.00  0.00    +0.000 C 
ATOM      3  C   UNL     1      49.386   7.228  12.394  0.00  0.00    +0.000 C 
ENDROOT
BRANCH   1   8
ATOM      4  C   UNL     1      49.023   7.326  16.638  0.00  0.00    +0.000 A 
ATOM      5  C   UNL     1      48.850   8.546  17.300  0.00  0.00    +0.000 A 
ATOM      6  C   UNL     1      48.577   9.723  16.605  0.00  0.00    +0.000 A 
ATOM      7  C   UNL     1      48.496   9.715  15.215  0.00  0.00    +0.000 A 
ATOM      8  C   UNL     1      48.666   8.526  14.491  0.00  0.00    +0.000 A 
ATOM      9  C   UNL     1      48.890   7.345  15.238  0.00  0.00    +0.000 A 
BRANCH   4  13
ATOM     10  C   UNL     1      47.534   6.488  19.989  0.00  0.00    +0.000 C 
ATOM     11  C   UNL     1      48.709   5.559  19.692  0.00  0.00    +0.000 C 
ATOM     12  C   UNL     1      49.760   6.173  18.743  0.00  0.00    +0.000 C 
ATOM     13  N   UNL     1      49.298   6.174  17.348  0.00  0.00    +0.000 N 
ATOM     14  C   UNL     1      48.795   4.870  16.883  0.00  0.00    +0.000 C 
ATOM     15  C   UNL     1      47.748   4.316  17.877  0.00  0.00    +0.000 C 
ATOM     16  C   UNL     1      47.349   2.893  17.503  0.00  0.00    +0.000 C 
ATOM     17  O   UNL     1      48.254   4.275  19.225  0.00  0.00    +0.000 OA
ENDBRANCH   4  13
ENDBRANCH   1   8
BRANCH   1  18
ATOM     18  C   UNL     1      47.158   8.461  12.453  0.00  0.00    +0.000 C 
BRANCH  18  19
ATOM     19  N   UNL     1      46.282   7.627  13.292  0.00  0.00    +0.000 N 
ATOM     20  H   UNL     1      45.527   8.163  13.712  0.00  0.00    +0.000 HD
BRANCH  19  21
ATOM     21  C   UNL     1      45.774   6.434  12.753  0.00  0.00    +0.000 A 
ATOM     22  C   UNL     1      45.539   5.282  13.510  0.00  0.00    +0.000 A 
ATOM     23  C   UNL     1      44.971   4.138  12.933  0.00  0.00    +0.000 A 
ATOM     24  C   UNL     1      44.589   4.139  11.590  0.00  0.00    +0.000 A 
ATOM     25  C   UNL     1      44.782   5.292  10.826  0.00  0.00    +0.000 A 
ATOM     26  C   UNL     1      45.350   6.431  11.414  0.00  0.00    +0.000 A 
BRANCH  24  27
ATOM     27  C   UNL     1      44.001   2.895  11.026  0.00  0.00    +0.000 C 
ATOM     28  N   UNL     1      44.638   2.320   9.962  0.00  0.00    +0.000 N 
ATOM     29  O   UNL     1      42.967   2.413  11.469  0.00  0.00    +0.000 OA
ATOM     30  H   UNL     1      45.328   2.809   9.411  0.00  0.00    +0.000 HD
ATOM     31  H   UNL     1      44.156   1.544   9.526  0.00  0.00    +0.000 HD
ENDBRANCH  24  27
ENDBRANCH  19  21
ENDBRANCH  18  19
ENDBRANCH   1  18
TORSDOF 6
ENDMDL
MODEL 6
REMARK VINA RESULT:    -6.636      2.997      5.634
REMARK INTER + INTRA:          -9.811
REMARK INTER:                  -8.327
REMARK INTRA:                  -1.484
REMARK UNBOUND:                -0.847
REMARK  Name = 
REMARK  10 active torsions:
REMARK  status: ('A' for Active; 'I' for Inactive)
REMARK    1  A    between atoms: C_1  and  C_2
REMARK    2  A    between atoms: N_4  and  C_5
REMARK    3  A    between atoms: C_9  and  C_10
REMARK    4  A    between atoms: C_10  and  C_11
REMARK    5  A    between atoms: C_10  and  C_12
REMARK    6  A    between atoms: C_10  and  C_13
REMARK    7  A    between atoms: C_13  and  N_14
REMARK    8  A    between atoms: N_14  and  C_15
REMARK    9  A    between atoms: C_18  and  C_19
REMARK   10  A    between atoms: C_26  and  C_27
REMARK                            x       y       z     vdW  Elec       q    Type
REMARK                         _______ _______ _______ _____ _____    ______ ____
ROOT
ATOM      1  C   UNL     1      48.391   4.343  17.077  0.00  0.00    +0.000 C 
ATOM      2  C   UNL     1      49.041   2.946  16.972  0.00  0.00    +0.000 C 
ATOM      3  C   UNL     1      47.968   4.549  18.553  0.00  0.00    +0.000 C 
ENDROOT
BRANCH   1   8
ATOM      4  C   UNL     1      49.818   7.544  15.391  0.00  0.00    +0.000 A 
ATOM      5  C   UNL     1      51.147   7.487  15.824  0.00  0.00    +0.000 A 
ATOM      6  C   UNL     1      51.615   6.434  16.608  0.00  0.00    +0.000 A 
ATOM      7  C   UNL     1      50.751   5.415  17.005  0.00  0.00    +0.000 A 
ATOM      8  C   UNL     1      49.406   5.418  16.609  0.00  0.00    +0.000 A 
ATOM      9  C   UNL     1      48.985   6.478  15.772  0.00  0.00    +0.000 A 
BRANCH   4  13
ATOM     10  C   UNL     1      50.024   7.669  11.637  0.00  0.00    +0.000 C 
ATOM     11  C   UNL     1      49.700   9.056  12.189  0.00  0.00    +0.000 C 
ATOM     12  C   UNL     1      50.214   9.286  13.626  0.00  0.00    +0.000 C 
ATOM     13  N   UNL     1      49.376   8.601  14.620  0.00  0.00    +0.000 N 
ATOM     14  C   UNL     1      47.935   8.870  14.474  0.00  0.00    +0.000 C 
ATOM     15  C   UNL     1      47.489   8.618  13.015  0.00  0.00    +0.000 C 
ATOM     16  C   UNL     1      46.044   9.059  12.809  0.00  0.00    +0.000 C 
ATOM     17  O   UNL     1      48.295   9.349  12.073  0.00  0.00    +0.000 OA
ENDBRANCH   4  13
ENDBRANCH   1   8
BRANCH   1  18
ATOM     18  C   UNL     1      47.123   4.412  16.155  0.00  0.00    +0.000 C 
BRANCH  18  19
ATOM     19  N   UNL     1      47.275   3.654  14.902  0.00  0.00    +0.000 N 
ATOM     20  H   UNL     1      47.270   2.649  15.057  0.00  0.00    +0.000 HD
BRANCH  19  21
ATOM     21  C   UNL     1      46.439   3.971  13.820  0.00  0.00    +0.000 A 
ATOM     22  C   UNL     1      45.948   3.021  12.918  0.00  0.00    +0.000 A 
ATOM     23  C   UNL     1      45.065   3.384  11.892  0.00  0.00    +0.000 A 
ATOM     24  C   UNL     1      44.623   4.703  11.772  0.00  0.00    +0.000 A 
ATOM     25  C   UNL     1      45.074   5.659  12.685  0.00  0.00    +0.000 A 
ATOM     26  C   UNL     1      45.956   5.285  13.708  0.00  0.00    +0.000 A 
BRANCH  24  27
ATOM     27  C   UNL     1      43.695   5.034  10.659  0.00  0.00    +0.000 C 
ATOM     28  N   UNL     1      44.066   4.667   9.395  0.00  0.00    +0.000 N 
ATOM     29  O   UNL     1      42.651   5.643  10.850  0.00  0.00    +0.000 OA
ATOM     30  H   UNL     1      45.011   4.403   9.161  0.00  0.00    +0.000 HD
ATOM     31  H   UNL     1      43.476   5.005   8.646  0.00  0.00    +0.000 HD
ENDBRANCH  24  27
ENDBRANCH  19  21
ENDBRANCH  18  19
ENDBRANCH   1  18
TORSDOF 6
ENDMDL
MODEL 7
REMARK VINA RESULT:    -6.506      3.098      7.610
REMARK INTER + INTRA:          -9.634
REMARK INTER:                  -7.943
REMARK INTRA:                  -1.691
REMARK UNBOUND:                -0.847
REMARK  Name = 
REMARK  10 active torsions:
REMARK  status: ('A' for Active; 'I' for Inactive)
REMARK    1  A    between atoms: C_1  and  C_2
REMARK    2  A    between atoms: N_4  and  C_5
REMARK    3  A    between atoms: C_9  and  C_10
REMARK    4  A    between atoms: C_10  and  C_11
REMARK    5  A    between atoms: C_10  and  C_12
REMARK    6  A    between atoms: C_10  and  C_13
REMARK    7  A    between atoms: C_13  and  N_14
REMARK    8  A    between atoms: N_14  and  C_15
REMARK    9  A    between atoms: C_18  and  C_19
REMARK   10  A    between atoms: C_26  and  C_27
REMARK                            x       y       z     vdW  Elec       q    Type
REMARK                         _______ _______ _______ _____ _____    ______ ____
ROOT
ATOM      1  C   UNL     1      49.259   9.447  12.113  0.00  0.00    +0.000 C 
ATOM      2  C   UNL     1      49.864   8.187  11.455  0.00  0.00    +0.000 C 
ATOM      3  C   UNL     1      49.823  10.679  11.363  0.00  0.00    +0.000 C 
ENDROOT
BRANCH   1   8
ATOM      4  C   UNL     1      45.651   7.996  12.193  0.00  0.00    +0.000 A 
ATOM      5  C   UNL     1      44.904   9.168  12.031  0.00  0.00    +0.000 A 
ATOM      6  C   UNL     1      45.517  10.407  11.855  0.00  0.00    +0.000 A 
ATOM      7  C   UNL     1      46.906  10.511  11.865  0.00  0.00    +0.000 A 
ATOM      8  C   UNL     1      47.712   9.375  12.030  0.00  0.00    +0.000 A 
ATOM      9  C   UNL     1      47.050   8.130  12.153  0.00  0.00    +0.000 A 
BRANCH   4  13
ATOM     10  C   UNL     1      45.531   5.265   9.609  0.00  0.00    +0.000 C 
ATOM     11  C   UNL     1      44.525   4.976  10.722  0.00  0.00    +0.000 C 
ATOM     12  C   UNL     1      44.017   6.243  11.443  0.00  0.00    +0.000 C 
ATOM     13  N   UNL     1      45.021   6.780  12.372  0.00  0.00    +0.000 N 
ATOM     14  C   UNL     1      45.577   5.777  13.296  0.00  0.00    +0.000 C 
ATOM     15  C   UNL     1      46.068   4.539  12.509  0.00  0.00    +0.000 C 
ATOM     16  C   UNL     1      46.483   3.424  13.462  0.00  0.00    +0.000 C 
ATOM     17  O   UNL     1      45.041   4.005  11.653  0.00  0.00    +0.000 OA
ENDBRANCH   4  13
ENDBRANCH   1   8
BRANCH   1  18
ATOM     18  C   UNL     1      49.680   9.515  13.623  0.00  0.00    +0.000 C 
BRANCH  18  19
ATOM     19  N   UNL     1      50.435   8.332  14.069  0.00  0.00    +0.000 N 
ATOM     20  H   UNL     1      51.409   8.548  14.265  0.00  0.00    +0.000 HD
BRANCH  19  21
ATOM     21  C   UNL     1      49.905   7.550  15.107  0.00  0.00    +0.000 A 
ATOM     22  C   UNL     1      50.239   7.723  16.454  0.00  0.00    +0.000 A 
ATOM     23  C   UNL     1      49.631   6.955  17.456  0.00  0.00    +0.000 A 
ATOM     24  C   UNL     1      48.645   6.022  17.133  0.00  0.00    +0.000 A 
ATOM     25  C   UNL     1      48.271   5.860  15.796  0.00  0.00    +0.000 A 
ATOM     26  C   UNL     1      48.884   6.634  14.802  0.00  0.00    +0.000 A 
BRANCH  24  27
ATOM     27  C   UNL     1      48.041   5.227  18.234  0.00  0.00    +0.000 C 
ATOM     28  N   UNL     1      46.733   5.471  18.549  0.00  0.00    +0.000 N 
ATOM     29  O   UNL     1      48.692   4.405  18.867  0.00  0.00    +0.000 OA
ATOM     30  H   UNL     1      46.245   6.298  18.239  0.00  0.00    +0.000 HD
ATOM     31  H   UNL     1      46.383   5.003  19.374  0.00  0.00    +0.000 HD
ENDBRANCH  24  27
ENDBRANCH  19  21
ENDBRANCH  18  19
ENDBRANCH   1  18
TORSDOF 6
ENDMDL
MODEL 8
REMARK VINA RESULT:    -6.202      4.823      7.302
REMARK INTER + INTRA:          -9.224
REMARK INTER:                  -8.277
REMARK INTRA:                  -0.947
REMARK UNBOUND:                -0.847
REMARK  Name = 
REMARK  10 active torsions:
REMARK  status: ('A' for Active; 'I' for Inactive)
REMARK    1  A    between atoms: C_1  and  C_2
REMARK    2  A    between atoms: N_4  and  C_5
REMARK    3  A    between atoms: C_9  and  C_10
REMARK    4  A    between atoms: C_10  and  C_11
REMARK    5  A    between atoms: C_10  and  C_12
REMARK    6  A    between atoms: C_10  and  C_13
REMARK    7  A    between atoms: C_13  and  N_14
REMARK    8  A    between atoms: N_14  and  C_15
REMARK    9  A    between atoms: C_18  and  C_19
REMARK   10  A    between atoms: C_26  and  C_27
REMARK                            x       y       z     vdW  Elec       q    Type
REMARK                         _______ _______ _______ _____ _____    ______ ____
ROOT
ATOM      1  C   UNL     1      48.145   3.751  17.069  0.00  0.00    +0.000 C 
ATOM      2  C   UNL     1      47.193   2.769  17.786  0.00  0.00    +0.000 C 
ATOM      3  C   UNL     1      47.914   5.154  17.683  0.00  0.00    +0.000 C 
ENDROOT
BRANCH   1   8
ATOM      4  C   UNL     1      51.949   3.827  17.879  0.00  0.00    +0.000 A 
ATOM      5  C   UNL     1      52.263   2.471  17.741  0.00  0.00    +0.000 A 
ATOM      6  C   UNL     1      51.306   1.534  17.357  0.00  0.00    +0.000 A 
ATOM      7  C   UNL     1      49.990   1.929  17.125  0.00  0.00    +0.000 A 
ATOM      8  C   UNL     1      49.609   3.272  17.253  0.00  0.00    +0.000 A 
ATOM      9  C   UNL     1      50.623   4.199  17.595  0.00  0.00    +0.000 A 
BRANCH   4  13
ATOM     10  C   UNL     1      52.771   6.984  16.005  0.00  0.00    +0.000 C 
ATOM     11  C   UNL     1      53.857   6.692  17.040  0.00  0.00    +0.000 C 
ATOM     12  C   UNL     1      53.996   5.194  17.387  0.00  0.00    +0.000 C 
ATOM     13  N   UNL     1      52.914   4.736  18.267  0.00  0.00    +0.000 N 
ATOM     14  C   UNL     1      52.709   5.584  19.454  0.00  0.00    +0.000 C 
ATOM     15  C   UNL     1      52.575   7.067  19.035  0.00  0.00    +0.000 C 
ATOM     16  C   UNL     1      52.539   7.972  20.261  0.00  0.00    +0.000 C 
ATOM     17  O   UNL     1      53.681   7.498  18.221  0.00  0.00    +0.000 OA
ENDBRANCH   4  13
ENDBRANCH   1   8
BRANCH   1  18
ATOM     18  C   UNL     1      47.816   3.790  15.535  0.00  0.00    +0.000 C 
BRANCH  18  19
ATOM     19  N   UNL     1      47.010   4.958  15.144  0.00  0.00    +0.000 N 
ATOM     20  H   UNL     1      47.512   5.833  15.273  0.00  0.00    +0.000 HD
BRANCH  19  21
ATOM     21  C   UNL     1      46.384   4.951  13.888  0.00  0.00    +0.000 A 
ATOM     22  C   UNL     1      46.317   6.069  13.050  0.00  0.00    +0.000 A 
ATOM     23  C   UNL     1      45.735   5.990  11.778  0.00  0.00    +0.000 A 
ATOM     24  C   UNL     1      45.240   4.774  11.302  0.00  0.00    +0.000 A 
ATOM     25  C   UNL     1      45.329   3.638  12.109  0.00  0.00    +0.000 A 
ATOM     26  C   UNL     1      45.915   3.729  13.379  0.00  0.00    +0.000 A 
BRANCH  24  27
ATOM     27  C   UNL     1      44.623   4.749   9.949  0.00  0.00    +0.000 C 
ATOM     28  N   UNL     1      45.456   4.856   8.871  0.00  0.00    +0.000 N 
ATOM     29  O   UNL     1      43.411   4.671   9.796  0.00  0.00    +0.000 OA
ATOM     30  H   UNL     1      46.410   5.176   8.950  0.00  0.00    +0.000 HD
ATOM     31  H   UNL     1      45.004   4.953   7.972  0.00  0.00    +0.000 HD
ENDBRANCH  24  27
ENDBRANCH  19  21
ENDBRANCH  18  19
ENDBRANCH   1  18
TORSDOF 6
ENDMDL
MODEL 9
REMARK VINA RESULT:    -6.064      3.011      7.470
REMARK INTER + INTRA:          -9.038
REMARK INTER:                  -8.125
REMARK INTRA:                  -0.913
REMARK UNBOUND:                -0.847
REMARK  Name = 
REMARK  10 active torsions:
REMARK  status: ('A' for Active; 'I' for Inactive)
REMARK    1  A    between atoms: C_1  and  C_2
REMARK    2  A    between atoms: N_4  and  C_5
REMARK    3  A    between atoms: C_9  and  C_10
REMARK    4  A    between atoms: C_10  and  C_11
REMARK    5  A    between atoms: C_10  and  C_12
REMARK    6  A    between atoms: C_10  and  C_13
REMARK    7  A    between atoms: C_13  and  N_14
REMARK    8  A    between atoms: N_14  and  C_15
REMARK    9  A    between atoms: C_18  and  C_19
REMARK   10  A    between atoms: C_26  and  C_27
REMARK                            x       y       z     vdW  Elec       q    Type
REMARK                         _______ _______ _______ _____ _____    ______ ____
ROOT
ATOM      1  C   UNL     1      47.648   8.429  12.848  0.00  0.00    +0.000 C 
ATOM      2  C   UNL     1      46.344   9.057  12.308  0.00  0.00    +0.000 C 
ATOM      3  C   UNL     1      48.263   9.432  13.855  0.00  0.00    +0.000 C 
ENDROOT
BRANCH   1   8
ATOM      4  C   UNL     1      45.937   5.003  13.529  0.00  0.00    +0.000 A 
ATOM      5  C   UNL     1      46.745   4.519  14.563  0.00  0.00    +0.000 A 
ATOM      6  C   UNL     1      47.799   5.270  15.080  0.00  0.00    +0.000 A 
ATOM      7  C   UNL     1      48.092   6.526  14.553  0.00  0.00    +0.000 A 
ATOM      8  C   UNL     1      47.323   7.066  13.512  0.00  0.00    +0.000 A 
ATOM      9  C   UNL     1      46.231   6.292  13.051  0.00  0.00    +0.000 A 
BRANCH   4  13
ATOM     10  C   UNL     1      43.206   6.316  11.299  0.00  0.00    +0.000 C 
ATOM     11  C   UNL     1      42.829   4.934  11.830  0.00  0.00    +0.000 C 
ATOM     12  C   UNL     1      43.485   4.590  13.184  0.00  0.00    +0.000 C 
ATOM     13  N   UNL     1      44.902   4.238  13.029  0.00  0.00    +0.000 N 
ATOM     14  C   UNL     1      45.156   3.222  11.992  0.00  0.00    +0.000 C 
ATOM     15  C   UNL     1      44.475   3.630  10.666  0.00  0.00    +0.000 C 
ATOM     16  C   UNL     1      44.580   2.509   9.638  0.00  0.00    +0.000 C 
ATOM     17  O   UNL     1      43.075   3.913  10.844  0.00  0.00    +0.000 OA
ENDBRANCH   4  13
ENDBRANCH   1   8
BRANCH   1  18
ATOM     18  C   UNL     1      48.653   8.189  11.667  0.00  0.00    +0.000 C 
BRANCH  18  19
ATOM     19  N   UNL     1      50.064   8.296  12.076  0.00  0.00    +0.000 N 
ATOM     20  H   UNL     1      50.335   7.558  12.719  0.00  0.00    +0.000 HD
BRANCH  19  21
ATOM     21  C   UNL     1      51.042   8.439  11.079  0.00  0.00    +0.000 A 
ATOM     22  C   UNL     1      51.663   9.655  10.775  0.00  0.00    +0.000 A 
ATOM     23  C   UNL     1      52.679   9.730   9.813  0.00  0.00    +0.000 A 
ATOM     24  C   UNL     1      53.122   8.577   9.161  0.00  0.00    +0.000 A 
ATOM     25  C   UNL     1      52.539   7.348   9.476  0.00  0.00    +0.000 A 
ATOM     26  C   UNL     1      51.525   7.285  10.442  0.00  0.00    +0.000 A 
BRANCH  24  27
ATOM     27  C   UNL     1      54.195   8.716   8.141  0.00  0.00    +0.000 C 
ATOM     28  N   UNL     1      54.537   9.980   7.749  0.00  0.00    +0.000 N 
ATOM     29  O   UNL     1      54.736   7.740   7.639  0.00  0.00    +0.000 OA
ATOM     30  H   UNL     1      53.955  10.784   7.937  0.00  0.00    +0.000 HD
ATOM     31  H   UNL     1      55.183  10.043   6.974  0.00  0.00    +0.000 HD
ENDBRANCH  24  27
ENDBRANCH  19  21
ENDBRANCH  18  19
ENDBRANCH   1  18
TORSDOF 6
ENDMDL
