MODEL 1
REMARK VINA RESULT:    -8.445      0.000      0.000
REMARK INTER + INTRA:         -11.758
REMARK INTER:                 -11.160
REMARK INTRA:                  -0.598
REMARK UNBOUND:                -0.598
REMARK  Name = 
REMARK  8 active torsions:
REMARK  status: ('A' for Active; 'I' for Inactive)
REMARK    1  A    between atoms: C_1  and  O_2
REMARK    2  A    between atoms: O_2  and  C_3
REMARK    3  A    between atoms: C_6  and  C_7
REMARK    4  A    between atoms: C_7  and  C_8
REMARK    5  A    between atoms: C_7  and  N_9
REMARK    6  A    between atoms: N_9  and  C_10
REMARK    7  A    between atoms: CA_13  and  C_14
REMARK    8  A    between atoms: C_14  and  OXT_16
REMARK                            x       y       z     vdW  Elec       q    Type
REMARK                         _______ _______ _______ _____ _____    ______ ____
ROOT
ATOM      1  N   UNL     1      43.751   4.701   9.825  0.00  0.00    +0.000 N 
ATOM      2  H   UNL     1      43.993   5.668   9.604  0.00  0.00    +0.000 HD
ENDROOT
BRANCH   1   3
ATOM      3  C   UNL     1      44.566   3.827   9.089  0.00  0.00    +0.000 A 
ATOM      4  C   UNL     1      45.506   4.233   8.141  0.00  0.00    +0.000 A 
ATOM      5  C   UNL     1      46.362   3.302   7.535  0.00  0.00    +0.000 A 
ATOM      6  CA  UNL     1      46.269   1.970   7.911  0.00  0.00    +0.000 A 
ATOM      7  N   UNL     1      45.393   1.507   8.837  0.00  0.00    +0.000 NA
ATOM      8  C   UNL     1      44.589   2.455   9.402  0.00  0.00    +0.000 A 
BRANCH   6   9
ATOM      9  C   UNL     1      47.191   0.964   7.293  0.00  0.00    +0.000 C 
ATOM     10  O   UNL     1      48.055   1.224   6.475  0.00  0.00    +0.000 OA
BRANCH   9  11
ATOM     11  OXT UNL     1      46.942  -0.281   7.772  0.00  0.00    +0.000 OA
ATOM     12  HXT UNL     1      47.727  -0.603   8.269  0.00  0.00    +0.000 HD
ENDBRANCH   9  11
ENDBRANCH   6   9
ENDBRANCH   1   3
BRANCH   1  13
ATOM     13  C   UNL     1      43.566   4.558  11.290  0.00  0.00    +0.000 C 
ATOM     14  C   UNL     1      42.435   5.445  11.821  0.00  0.00    +0.000 C 
BRANCH  13  18
ATOM     15  C   UNL     1      47.167   5.554  13.455  0.00  0.00    +0.000 A 
ATOM     16  C   UNL     1      46.760   6.378  12.413  0.00  0.00    +0.000 A 
ATOM     17  C   UNL     1      45.608   6.062  11.689  0.00  0.00    +0.000 A 
ATOM     18  C   UNL     1      44.867   4.922  12.024  0.00  0.00    +0.000 A 
ATOM     19  N   UNL     1      45.260   4.101  13.029  0.00  0.00    +0.000 NA
ATOM     20  C   UNL     1      46.381   4.436  13.715  0.00  0.00    +0.000 A 
BRANCH  15  22
ATOM     21  C   UNL     1      48.718   7.061  14.431  0.00  0.00    +0.000 C 
ATOM     22  O   UNL     1      48.260   5.725  14.252  0.00  0.00    +0.000 OA
ENDBRANCH  15  22
ENDBRANCH  13  18
ENDBRANCH   1  13
TORSDOF 6
ENDMDL
MODEL 2
REMARK VINA RESULT:    -6.660      1.403      6.317
REMARK INTER + INTRA:          -9.400
REMARK INTER:                  -9.612
REMARK INTRA:                   0.212
REMARK UNBOUND:                -0.598
REMARK  Name = 
REMARK  8 active torsions:
REMARK  status: ('A' for Active; 'I' for Inactive)
REMARK    1  A    between atoms: C_1  and  O_2
REMARK    2  A    between atoms: O_2  and  C_3
REMARK    3  A    between atoms: C_6  and  C_7
REMARK    4  A    between atoms: C_7  and  C_8
REMARK    5  A    between atoms: C_7  and  N_9
REMARK    6  A    between atoms: N_9  and  C_10
REMARK    7  A    between atoms: CA_13  and  C_14
REMARK    8  A    between atoms: C_14  and  OXT_16
REMARK                            x       y       z     vdW  Elec       q    Type
REMARK                         _______ _______ _______ _____ _____    ______ ____
ROOT
ATOM      1  N   UNL     1      44.704   5.857  10.794  0.00  0.00    +0.000 N 
ATOM      2  H   UNL     1      44.131   6.672  11.018  0.00  0.00    +0.000 HD
ENDROOT
BRANCH   1   3
ATOM      3  C   UNL     1      45.519   5.532  11.889  0.00  0.00    +0.000 A 
ATOM      4  C   UNL     1      46.763   6.107  12.147  0.00  0.00    +0.000 A 
ATOM      5  C   UNL     1      47.460   5.812  13.327  0.00  0.00    +0.000 A 
ATOM      6  CA  UNL     1      46.879   4.950  14.245  0.00  0.00    +0.000 A 
ATOM      7  N   UNL     1      45.666   4.368  14.069  0.00  0.00    +0.000 NA
ATOM      8  C   UNL     1      45.027   4.696  12.909  0.00  0.00    +0.000 A 
BRANCH   6   9
ATOM      9  C   UNL     1      47.596   4.640  15.523  0.00  0.00    +0.000 C 
ATOM     10  O   UNL     1      48.568   5.246  15.938  0.00  0.00    +0.000 OA
BRANCH   9  11
ATOM     11  OXT UNL     1      47.015   3.597  16.166  0.00  0.00    +0.000 OA
ATOM     12  HXT UNL     1      46.541   3.033  15.513  0.00  0.00    +0.000 HD
ENDBRANCH   9  11
ENDBRANCH   6   9
ENDBRANCH   1   3
BRANCH   1  13
ATOM     13  C   UNL     1      43.874   4.841  10.102  0.00  0.00    +0.000 C 
ATOM     14  C   UNL     1      43.046   4.003  11.083  0.00  0.00    +0.000 C 
BRANCH  13  18
ATOM     15  C   UNL     1      46.356   2.253   7.696  0.00  0.00    +0.000 A 
ATOM     16  C   UNL     1      45.580   1.692   8.704  0.00  0.00    +0.000 A 
ATOM     17  C   UNL     1      44.784   2.516   9.504  0.00  0.00    +0.000 A 
ATOM     18  C   UNL     1      44.769   3.898   9.280  0.00  0.00    +0.000 A 
ATOM     19  N   UNL     1      45.531   4.460   8.311  0.00  0.00    +0.000 NA
ATOM     20  C   UNL     1      46.291   3.634   7.548  0.00  0.00    +0.000 A 
BRANCH  15  22
ATOM     21  C   UNL     1      47.737   2.348   5.769  0.00  0.00    +0.000 C 
ATOM     22  O   UNL     1      47.179   1.589   6.836  0.00  0.00    +0.000 OA
ENDBRANCH  15  22
ENDBRANCH  13  18
ENDBRANCH   1  13
TORSDOF 6
ENDMDL
MODEL 3
REMARK VINA RESULT:    -6.639      1.618      1.920
REMARK INTER + INTRA:          -9.371
REMARK INTER:                  -8.821
REMARK INTRA:                  -0.550
REMARK UNBOUND:                -0.598
REMARK  Name = 
REMARK  8 active torsions:
REMARK  status: ('A' for Active; 'I' for Inactive)
REMARK    1  A    between atoms: C_1  and  O_2
REMARK    2  A    between atoms: O_2  and  C_3
REMARK    3  A    between atoms: C_6  and  C_7
REMARK    4  A    between atoms: C_7  and  C_8
REMARK    5  A    between atoms: C_7  and  N_9
REMARK    6  A    between atoms: N_9  and  C_10
REMARK    7  A    between atoms: CA_13  and  C_14
REMARK    8  A    between atoms: C_14  and  OXT_16
REMARK                            x       y       z     vdW  Elec       q    Type
REMARK                         _______ _______ _______ _____ _____    ______ ____
ROOT
ATOM      1  N   UNL     1      44.060   4.181  10.669  0.00  0.00    +0.000 N 
ATOM      2  H   UNL     1      43.724   5.123  10.465  0.00  0.00    +0.000 HD
ENDROOT
BRANCH   1   3
ATOM      3  C   UNL     1      44.927   3.754   9.651  0.00  0.00    +0.000 A 
ATOM      4  C   UNL     1      45.147   2.420   9.308  0.00  0.00    +0.000 A 
ATOM      5  C   UNL     1      45.938   2.085   8.200  0.00  0.00    +0.000 A 
ATOM      6  CA  UNL     1      46.484   3.107   7.439  0.00  0.00    +0.000 A 
ATOM      7  N   UNL     1      46.299   4.424   7.702  0.00  0.00    +0.000 NA
ATOM      8  C   UNL     1      45.514   4.696   8.785  0.00  0.00    +0.000 A 
BRANCH   6   9
ATOM      9  C   UNL     1      47.313   2.770   6.237  0.00  0.00    +0.000 C 
ATOM     10  O   UNL     1      46.888   2.706   5.097  0.00  0.00    +0.000 OA
BRANCH   9  11
ATOM     11  OXT UNL     1      48.605   2.551   6.584  0.00  0.00    +0.000 OA
ATOM     12  HXT UNL     1      49.095   2.187   5.812  0.00  0.00    +0.000 HD
ENDBRANCH   9  11
ENDBRANCH   6   9
ENDBRANCH   1   3
BRANCH   1  13
ATOM     13  C   UNL     1      44.425   4.083  12.103  0.00  0.00    +0.000 C 
ATOM     14  C   UNL     1      43.210   4.243  13.023  0.00  0.00    +0.000 C 
BRANCH  13  18
ATOM     15  C   UNL     1      47.341   7.069  13.212  0.00  0.00    +0.000 A 
ATOM     16  C   UNL     1      46.223   7.460  12.483  0.00  0.00    +0.000 A 
ATOM     17  C   UNL     1      45.278   6.504  12.100  0.00  0.00    +0.000 A 
ATOM     18  C   UNL     1      45.460   5.163  12.460  0.00  0.00    +0.000 A 
ATOM     19  N   UNL     1      46.552   4.766  13.158  0.00  0.00    +0.000 NA
ATOM     20  C   UNL     1      47.450   5.718  13.518  0.00  0.00    +0.000 A 
BRANCH  15  22
ATOM     21  C   UNL     1      49.314   8.282  12.698  0.00  0.00    +0.000 C 
ATOM     22  O   UNL     1      48.346   7.875  13.658  0.00  0.00    +0.000 OA
ENDBRANCH  15  22
ENDBRANCH  13  18
ENDBRANCH   1  13
TORSDOF 6
ENDMDL
MODEL 4
REMARK VINA RESULT:    -6.491      1.610      6.553
REMARK INTER + INTRA:          -9.176
REMARK INTER:                  -8.850
REMARK INTRA:                  -0.326
REMARK UNBOUND:                -0.598
REMARK  Name = 
REMARK  8 active torsions:
REMARK  status: ('A' for Active; 'I' for Inactive)
REMARK    1  A    between atoms: C_1  and  O_2
REMARK    2  A    between atoms: O_2  and  C_3
REMARK    3  A    between atoms: C_6  and  C_7
REMARK    4  A    between atoms: C_7  and  C_8
REMARK    5  A    between atoms: C_7  and  N_9
REMARK    6  A    between atoms: N_9  and  C_10
REMARK    7  A    between atoms: CA_13  and  C_14
REMARK    8  A    between atoms: C_14  and  OXT_16
REMARK                            x       y       z     vdW  Elec       q    Type
REMARK                         _______ _______ _______ _____ _____    ______ ____
ROOT
ATOM      1  N   UNL     1      43.865   5.153  10.297  0.00  0.00    +0.000 N 
ATOM      2  H   UNL     1      42.937   5.534  10.489  0.00  0.00    +0.000 HD
ENDROOT
BRANCH   1   3
ATOM      3  C   UNL     1      44.816   5.783  11.114  0.00  0.00    +0.000 A 
ATOM      4  C   UNL     1      46.147   5.997  10.756  0.00  0.00    +0.000 A 
ATOM      5  C   UNL     1      47.002   6.739  11.583  0.00  0.00    +0.000 A 
ATOM      6  CA  UNL     1      46.493   7.275  12.757  0.00  0.00    +0.000 A 
ATOM      7  N   UNL     1      45.207   7.123  13.159  0.00  0.00    +0.000 NA
ATOM      8  C   UNL     1      44.415   6.399  12.314  0.00  0.00    +0.000 A 
BRANCH   6   9
ATOM      9  C   UNL     1      47.384   8.092  13.642  0.00  0.00    +0.000 C 
ATOM     10  O   UNL     1      48.594   7.973  13.708  0.00  0.00    +0.000 OA
BRANCH   9  11
ATOM     11  OXT UNL     1      46.664   8.990  14.359  0.00  0.00    +0.000 OA
ATOM     12  HXT UNL     1      46.037   9.458  13.763  0.00  0.00    +0.000 HD
ENDBRANCH   9  11
ENDBRANCH   6   9
ENDBRANCH   1   3
BRANCH   1  13
ATOM     13  C   UNL     1      43.782   3.676  10.182  0.00  0.00    +0.000 C 
ATOM     14  C   UNL     1      44.073   2.974  11.513  0.00  0.00    +0.000 C 
BRANCH  13  18
ATOM     15  C   UNL     1      46.645   2.201   7.305  0.00  0.00    +0.000 A 
ATOM     16  C   UNL     1      46.247   3.532   7.236  0.00  0.00    +0.000 A 
ATOM     17  C   UNL     1      45.308   4.022   8.147  0.00  0.00    +0.000 A 
ATOM     18  C   UNL     1      44.781   3.172   9.127  0.00  0.00    +0.000 A 
ATOM     19  N   UNL     1      45.149   1.869   9.198  0.00  0.00    +0.000 NA
ATOM     20  C   UNL     1      46.065   1.424   8.301  0.00  0.00    +0.000 A 
BRANCH  15  22
ATOM     21  C   UNL     1      47.919   2.261   5.305  0.00  0.00    +0.000 C 
ATOM     22  O   UNL     1      47.546   1.576   6.496  0.00  0.00    +0.000 OA
ENDBRANCH  15  22
ENDBRANCH  13  18
ENDBRANCH   1  13
TORSDOF 6
ENDMDL
MODEL 5
REMARK VINA RESULT:    -6.271      1.695      6.432
REMARK INTER + INTRA:          -8.886
REMARK INTER:                  -8.292
REMARK INTRA:                  -0.594
REMARK UNBOUND:                -0.598
REMARK  Name = 
REMARK  8 active torsions:
REMARK  status: ('A' for Active; 'I' for Inactive)
REMARK    1  A    between atoms: C_1  and  O_2
REMARK    2  A    between atoms: O_2  and  C_3
REMARK    3  A    between atoms: C_6  and  C_7
REMARK    4  A    between atoms: C_7  and  C_8
REMARK    5  A    between atoms: C_7  and  N_9
REMARK    6  A    between atoms: N_9  and  C_10
REMARK    7  A    between atoms: CA_13  and  C_14
REMARK    8  A    between atoms: C_14  and  OXT_16
REMARK                            x       y       z     vdW  Elec       q    Type
REMARK                         _______ _______ _______ _____ _____    ______ ____
ROOT
ATOM      1  N   UNL     1      45.066   4.971  12.352  0.00  0.00    +0.000 N 
ATOM      2  H   UNL     1      45.168   3.979  12.569  0.00  0.00    +0.000 HD
ENDROOT
BRANCH   1   3
ATOM      3  C   UNL     1      46.287   5.631  12.556  0.00  0.00    +0.000 A 
ATOM      4  C   UNL     1      46.703   6.760  11.850  0.00  0.00    +0.000 A 
ATOM      5  C   UNL     1      47.886   7.428  12.197  0.00  0.00    +0.000 A 
ATOM      6  CA  UNL     1      48.626   6.956  13.271  0.00  0.00    +0.000 A 
ATOM      7  N   UNL     1      48.274   5.877  14.013  0.00  0.00    +0.000 NA
ATOM      8  C   UNL     1      47.111   5.269  13.639  0.00  0.00    +0.000 A 
BRANCH   6   9
ATOM      9  C   UNL     1      49.880   7.671  13.673  0.00  0.00    +0.000 C 
ATOM     10  O   UNL     1      50.273   8.713  13.181  0.00  0.00    +0.000 OA
BRANCH   9  11
ATOM     11  OXT UNL     1      50.521   7.006  14.666  0.00  0.00    +0.000 OA
ATOM     12  HXT UNL     1      50.092   6.131  14.804  0.00  0.00    +0.000 HD
ENDBRANCH   9  11
ENDBRANCH   6   9
ENDBRANCH   1   3
BRANCH   1  13
ATOM     13  C   UNL     1      44.288   5.128  11.099  0.00  0.00    +0.000 C 
ATOM     14  C   UNL     1      42.812   4.757  11.283  0.00  0.00    +0.000 C 
BRANCH  13  18
ATOM     15  C   UNL     1      46.002   2.568   8.073  0.00  0.00    +0.000 A 
ATOM     16  C   UNL     1      46.179   3.944   7.969  0.00  0.00    +0.000 A 
ATOM     17  C   UNL     1      45.616   4.788   8.929  0.00  0.00    +0.000 A 
ATOM     18  C   UNL     1      44.885   4.244   9.992  0.00  0.00    +0.000 A 
ATOM     19  N   UNL     1      44.694   2.906  10.099  0.00  0.00    +0.000 NA
ATOM     20  C   UNL     1      45.255   2.111   9.153  0.00  0.00    +0.000 A 
BRANCH  15  22
ATOM     21  C   UNL     1      47.531   2.017   6.345  0.00  0.00    +0.000 C 
ATOM     22  O   UNL     1      46.485   1.618   7.224  0.00  0.00    +0.000 OA
ENDBRANCH  15  22
ENDBRANCH  13  18
ENDBRANCH   1  13
TORSDOF 6
ENDMDL
MODEL 6
REMARK VINA RESULT:    -5.947      1.825      6.881
REMARK INTER + INTRA:          -8.457
REMARK INTER:                  -7.937
REMARK INTRA:                  -0.521
REMARK UNBOUND:                -0.598
REMARK  Name = 
REMARK  8 active torsions:
REMARK  status: ('A' for Active; 'I' for Inactive)
REMARK    1  A    between atoms: C_1  and  O_2
REMARK    2  A    between atoms: O_2  and  C_3
REMARK    3  A    between atoms: C_6  and  C_7
REMARK    4  A    between atoms: C_7  and  C_8
REMARK    5  A    between atoms: C_7  and  N_9
REMARK    6  A    between atoms: N_9  and  C_10
REMARK    7  A    between atoms: CA_13  and  C_14
REMARK    8  A    between atoms: C_14  and  OXT_16
REMARK                            x       y       z     vdW  Elec       q    Type
REMARK                         _______ _______ _______ _____ _____    ______ ____
ROOT
ATOM      1  N   UNL     1      45.794   3.305  12.872  0.00  0.00    +0.000 N 
ATOM      2  H   UNL     1      46.353   2.618  12.364  0.00  0.00    +0.000 HD
ENDROOT
BRANCH   1   3
ATOM      3  C   UNL     1      46.639   4.233  13.501  0.00  0.00    +0.000 A 
ATOM      4  C   UNL     1      46.915   5.509  13.009  0.00  0.00    +0.000 A 
ATOM      5  C   UNL     1      47.676   6.417  13.759  0.00  0.00    +0.000 A 
ATOM      6  CA  UNL     1      48.134   6.029  15.009  0.00  0.00    +0.000 A 
ATOM      7  N   UNL     1      47.890   4.813  15.557  0.00  0.00    +0.000 NA
ATOM      8  C   UNL     1      47.138   3.970  14.790  0.00  0.00    +0.000 A 
BRANCH   6   9
ATOM      9  C   UNL     1      48.928   6.994  15.836  0.00  0.00    +0.000 C 
ATOM     10  O   UNL     1      48.979   8.195  15.643  0.00  0.00    +0.000 OA
BRANCH   9  11
ATOM     11  OXT UNL     1      49.581   6.352  16.837  0.00  0.00    +0.000 OA
ATOM     12  HXT UNL     1      49.080   5.545  17.091  0.00  0.00    +0.000 HD
ENDBRANCH   9  11
ENDBRANCH   6   9
ENDBRANCH   1   3
BRANCH   1  13
ATOM     13  C   UNL     1      44.645   3.728  12.036  0.00  0.00    +0.000 C 
ATOM     14  C   UNL     1      43.405   2.859  12.272  0.00  0.00    +0.000 C 
BRANCH  13  18
ATOM     15  C   UNL     1      45.770   3.437   7.876  0.00  0.00    +0.000 A 
ATOM     16  C   UNL     1      45.734   4.691   8.477  0.00  0.00    +0.000 A 
ATOM     17  C   UNL     1      45.355   4.806   9.817  0.00  0.00    +0.000 A 
ATOM     18  C   UNL     1      45.021   3.658  10.547  0.00  0.00    +0.000 A 
ATOM     19  N   UNL     1      45.039   2.431   9.971  0.00  0.00    +0.000 NA
ATOM     20  C   UNL     1      45.414   2.351   8.669  0.00  0.00    +0.000 A 
BRANCH  15  22
ATOM     21  C   UNL     1      47.081   2.132   6.392  0.00  0.00    +0.000 C 
ATOM     22  O   UNL     1      46.117   3.160   6.588  0.00  0.00    +0.000 OA
ENDBRANCH  15  22
ENDBRANCH  13  18
ENDBRANCH   1  13
TORSDOF 6
ENDMDL
MODEL 7
REMARK VINA RESULT:    -5.871      3.049      3.891
REMARK INTER + INTRA:          -8.356
REMARK INTER:                  -7.864
REMARK INTRA:                  -0.492
REMARK UNBOUND:                -0.598
REMARK  Name = 
REMARK  8 active torsions:
REMARK  status: ('A' for Active; 'I' for Inactive)
REMARK    1  A    between atoms: C_1  and  O_2
REMARK    2  A    between atoms: O_2  and  C_3
REMARK    3  A    between atoms: C_6  and  C_7
REMARK    4  A    between atoms: C_7  and  C_8
REMARK    5  A    between atoms: C_7  and  N_9
REMARK    6  A    between atoms: N_9  and  C_10
REMARK    7  A    between atoms: CA_13  and  C_14
REMARK    8  A    between atoms: C_14  and  OXT_16
REMARK                            x       y       z     vdW  Elec       q    Type
REMARK                         _______ _______ _______ _____ _____    ______ ____
ROOT
ATOM      1  N   UNL     1      44.435   5.289  10.452  0.00  0.00    +0.000 N 
ATOM      2  H   UNL     1      43.738   5.857   9.968  0.00  0.00    +0.000 HD
ENDROOT
BRANCH   1   3
ATOM      3  C   UNL     1      44.998   4.364   9.560  0.00  0.00    +0.000 A 
ATOM      4  C   UNL     1      45.867   4.697   8.520  0.00  0.00    +0.000 A 
ATOM      5  C   UNL     1      46.478   3.699   7.748  0.00  0.00    +0.000 A 
ATOM      6  CA  UNL     1      46.216   2.371   8.049  0.00  0.00    +0.000 A 
ATOM      7  N   UNL     1      45.398   1.974   9.054  0.00  0.00    +0.000 NA
ATOM      8  C   UNL     1      44.836   2.983   9.781  0.00  0.00    +0.000 A 
BRANCH   6   9
ATOM      9  C   UNL     1      46.878   1.290   7.251  0.00  0.00    +0.000 C 
ATOM     10  O   UNL     1      47.491   1.468   6.213  0.00  0.00    +0.000 OA
BRANCH   9  11
ATOM     11  OXT UNL     1      46.711   0.080   7.840  0.00  0.00    +0.000 OA
ATOM     12  HXT UNL     1      47.586  -0.360   7.941  0.00  0.00    +0.000 HD
ENDBRANCH   9  11
ENDBRANCH   6   9
ENDBRANCH   1   3
BRANCH   1  13
ATOM     13  C   UNL     1      45.271   6.157  11.316  0.00  0.00    +0.000 C 
ATOM     14  C   UNL     1      45.376   5.622  12.748  0.00  0.00    +0.000 C 
BRANCH  13  18
ATOM     15  C   UNL     1      43.593  10.136  11.328  0.00  0.00    +0.000 A 
ATOM     16  C   UNL     1      44.826   9.925  11.937  0.00  0.00    +0.000 A 
ATOM     17  C   UNL     1      45.375   8.641  11.958  0.00  0.00    +0.000 A 
ATOM     18  C   UNL     1      44.686   7.579  11.361  0.00  0.00    +0.000 A 
ATOM     19  N   UNL     1      43.477   7.767  10.776  0.00  0.00    +0.000 NA
ATOM     20  C   UNL     1      42.971   9.026  10.768  0.00  0.00    +0.000 A 
BRANCH  15  22
ATOM     21  C   UNL     1      42.143  11.514  10.052  0.00  0.00    +0.000 C 
ATOM     22  O   UNL     1      42.928  11.322  11.224  0.00  0.00    +0.000 OA
ENDBRANCH  15  22
ENDBRANCH  13  18
ENDBRANCH   1  13
TORSDOF 6
ENDMDL
MODEL 8
REMARK VINA RESULT:    -5.845      1.597      2.286
REMARK INTER + INTRA:          -8.323
REMARK INTER:                  -8.828
REMARK INTRA:                   0.505
REMARK UNBOUND:                -0.598
REMARK  Name = 
REMARK  8 active torsions:
REMARK  status: ('A' for Active; 'I' for Inactive)
REMARK    1  A    between atoms: C_1  and  O_2
REMARK    2  A    between atoms: O_2  and  C_3
REMARK    3  A    between atoms: C_6  and  C_7
REMARK    4  A    between atoms: C_7  and  C_8
REMARK    5  A    between atoms: C_7  and  N_9
REMARK    6  A    between atoms: N_9  and  C_10
REMARK    7  A    between atoms: CA_13  and  C_14
REMARK    8  A    between atoms: C_14  and  OXT_16
REMARK                            x       y       z     vdW  Elec       q    Type
REMARK                         _______ _______ _______ _____ _____    ______ ____
ROOT
ATOM      1  N   UNL     1      44.174   3.848  10.403  0.00  0.00    +0.000 N 
ATOM      2  H   UNL     1      43.220   3.858  10.040  0.00  0.00    +0.000 HD
ENDROOT
BRANCH   1   3
ATOM      3  C   UNL     1      45.062   3.445   9.394  0.00  0.00    +0.000 A 
ATOM      4  C   UNL     1      45.445   2.124   9.159  0.00  0.00    +0.000 A 
ATOM      5  C   UNL     1      46.245   1.793   8.056  0.00  0.00    +0.000 A 
ATOM      6  CA  UNL     1      46.635   2.804   7.190  0.00  0.00    +0.000 A 
ATOM      7  N   UNL     1      46.286   4.106   7.346  0.00  0.00    +0.000 NA
ATOM      8  C   UNL     1      45.501   4.372   8.430  0.00  0.00    +0.000 A 
BRANCH   6   9
ATOM      9  C   UNL     1      47.469   2.468   5.993  0.00  0.00    +0.000 C 
ATOM     10  O   UNL     1      47.217   2.812   4.852  0.00  0.00    +0.000 OA
BRANCH   9  11
ATOM     11  OXT UNL     1      48.552   1.732   6.346  0.00  0.00    +0.000 OA
ATOM     12  HXT UNL     1      48.307   1.117   7.074  0.00  0.00    +0.000 HD
ENDBRANCH   9  11
ENDBRANCH   6   9
ENDBRANCH   1   3
BRANCH   1  13
ATOM     13  C   UNL     1      44.409   5.065  11.217  0.00  0.00    +0.000 C 
ATOM     14  C   UNL     1      45.005   6.210  10.389  0.00  0.00    +0.000 C 
BRANCH  13  18
ATOM     15  C   UNL     1      47.156   4.265  14.452  0.00  0.00    +0.000 A 
ATOM     16  C   UNL     1      46.685   3.201  13.691  0.00  0.00    +0.000 A 
ATOM     17  C   UNL     1      45.782   3.439  12.651  0.00  0.00    +0.000 A 
ATOM     18  C   UNL     1      45.364   4.747  12.379  0.00  0.00    +0.000 A 
ATOM     19  N   UNL     1      45.804   5.793  13.122  0.00  0.00    +0.000 NA
ATOM     20  C   UNL     1      46.683   5.530  14.122  0.00  0.00    +0.000 A 
BRANCH  15  22
ATOM     21  C   UNL     1      47.548   3.636  16.705  0.00  0.00    +0.000 C 
ATOM     22  O   UNL     1      48.035   4.198  15.491  0.00  0.00    +0.000 OA
ENDBRANCH  15  22
ENDBRANCH  13  18
ENDBRANCH   1  13
TORSDOF 6
ENDMDL
MODEL 9
REMARK VINA RESULT:    -5.830      2.378      6.729
REMARK INTER + INTRA:          -8.303
REMARK INTER:                  -8.124
REMARK INTRA:                  -0.179
REMARK UNBOUND:                -0.598
REMARK  Name = 
REMARK  8 active torsions:
REMARK  status: ('A' for Active; 'I' for Inactive)
REMARK    1  A    between atoms: C_1  and  O_2
REMARK    2  A    between atoms: O_2  and  C_3
REMARK    3  A    between atoms: C_6  and  C_7
REMARK    4  A    between atoms: C_7  and  C_8
REMARK    5  A    between atoms: C_7  and  N_9
REMARK    6  A    between atoms: N_9  and  C_10
REMARK    7  A    between atoms: CA_13  and  C_14
REMARK    8  A    between atoms: C_14  and  OXT_16
REMARK                            x       y       z     vdW  Elec       q    Type
REMARK                         _______ _______ _______ _____ _____    ______ ____
ROOT
ATOM      1  N   UNL     1      46.779   6.151  12.404  0.00  0.00    +0.000 N 
ATOM      2  H   UNL     1      47.077   7.124  12.490  0.00  0.00    +0.000 HD
ENDROOT
BRANCH   1   3
ATOM      3  C   UNL     1      47.158   5.434  13.549  0.00  0.00    +0.000 A 
ATOM      4  C   UNL     1      47.506   6.017  14.768  0.00  0.00    +0.000 A 
ATOM      5  C   UNL     1      47.758   5.224  15.896  0.00  0.00    +0.000 A 
ATOM      6  CA  UNL     1      47.636   3.848  15.783  0.00  0.00    +0.000 A 
ATOM      7  N   UNL     1      47.285   3.214  14.637  0.00  0.00    +0.000 NA
ATOM      8  C   UNL     1      47.042   4.031  13.571  0.00  0.00    +0.000 A 
BRANCH   6   9
ATOM      9  C   UNL     1      47.878   2.985  16.984  0.00  0.00    +0.000 C 
ATOM     10  O   UNL     1      48.963   2.541  17.313  0.00  0.00    +0.000 OA
BRANCH   9  11
ATOM     11  OXT UNL     1      46.725   2.767  17.665  0.00  0.00    +0.000 OA
ATOM     12  HXT UNL     1      46.861   2.979  18.616  0.00  0.00    +0.000 HD
ENDBRANCH   9  11
ENDBRANCH   6   9
ENDBRANCH   1   3
BRANCH   1  13
ATOM     13  C   UNL     1      45.397   6.101  11.866  0.00  0.00    +0.000 C 
ATOM     14  C   UNL     1      44.394   5.567  12.894  0.00  0.00    +0.000 C 
BRANCH  13  18
ATOM     15  C   UNL     1      45.253   3.684   8.290  0.00  0.00    +0.000 A 
ATOM     16  C   UNL     1      44.527   3.280   9.405  0.00  0.00    +0.000 A 
ATOM     17  C   UNL     1      44.576   4.040  10.576  0.00  0.00    +0.000 A 
ATOM     18  C   UNL     1      45.349   5.206  10.617  0.00  0.00    +0.000 A 
ATOM     19  N   UNL     1      46.073   5.605   9.543  0.00  0.00    +0.000 NA
ATOM     20  C   UNL     1      46.003   4.848   8.418  0.00  0.00    +0.000 A 
BRANCH  15  22
ATOM     21  C   UNL     1      46.566   3.064   6.415  0.00  0.00    +0.000 C 
ATOM     22  O   UNL     1      45.309   3.057   7.081  0.00  0.00    +0.000 OA
ENDBRANCH  15  22
ENDBRANCH  13  18
ENDBRANCH   1  13
TORSDOF 6
ENDMDL
