MODEL 1
REMARK VINA RESULT:    -8.399      0.000      0.000
REMARK INTER + INTRA:         -11.789
REMARK INTER:                 -10.854
REMARK INTRA:                  -0.935
REMARK UNBOUND:                -0.935
REMARK  Name = 
REMARK  5 active torsions:
REMARK  status: ('A' for Active; 'I' for Inactive)
REMARK    1  A    between atoms: C_2  and  C_4
REMARK    2  A    between atoms: C_7  and  O_8
REMARK    3  A    between atoms: O_8  and  C_9
REMARK    4  A    between atoms: C_9  and  C_10
REMARK    5  A    between atoms: C_13  and  C_14
REMARK                            x       y       z     vdW  Elec       q    Type
REMARK                         _______ _______ _______ _____ _____    ______ ____
ROOT
ATOM      1  C   UNL     1      43.454   4.557  11.265  0.00  0.00    +0.000 C 
ENDROOT
BRANCH   1   2
ATOM      2  C   UNL     1      44.697   5.074  11.942  0.00  0.00    +0.000 A 
ATOM      3  C   UNL     1      45.187   6.351  11.655  0.00  0.00    +0.000 A 
ATOM      4  C   UNL     1      46.349   6.822  12.276  0.00  0.00    +0.000 A 
ATOM      5  C   UNL     1      47.059   6.040  13.204  0.00  0.00    +0.000 A 
ATOM      6  C   UNL     1      46.554   4.755  13.475  0.00  0.00    +0.000 A 
ATOM      7  C   UNL     1      45.399   4.273  12.846  0.00  0.00    +0.000 A 
BRANCH   5   8
ATOM      8  C   UNL     1      48.290   6.538  13.856  0.00  0.00    +0.000 A 
ATOM      9  C   UNL     1      48.633   6.196  15.171  0.00  0.00    +0.000 A 
ATOM     10  N   UNL     1      49.740   6.624  15.835  0.00  0.00    +0.000 NA
ATOM     11  C   UNL     1      50.570   7.439  15.149  0.00  0.00    +0.000 A 
ATOM     12  C   UNL     1      50.337   7.834  13.846  0.00  0.00    +0.000 A 
ATOM     13  F   UNL     1      51.199   8.639  13.213  0.00  0.00    +0.000 F 
ATOM     14  C   UNL     1      49.193   7.388  13.197  0.00  0.00    +0.000 A 
ENDBRANCH   5   8
ENDBRANCH   1   2
BRANCH   1  15
ATOM     15  O   UNL     1      43.612   4.700   9.856  0.00  0.00    +0.000 OA
BRANCH  15  19
ATOM     16  C   UNL     1      46.307   2.239   7.836  0.00  0.00    +0.000 A 
ATOM     17  C   UNL     1      45.425   1.653   8.749  0.00  0.00    +0.000 A 
ATOM     18  C   UNL     1      44.507   2.444   9.448  0.00  0.00    +0.000 A 
ATOM     19  C   UNL     1      44.465   3.824   9.242  0.00  0.00    +0.000 A 
ATOM     20  C   UNL     1      45.361   4.408   8.341  0.00  0.00    +0.000 A 
ATOM     21  C   UNL     1      46.283   3.624   7.646  0.00  0.00    +0.000 A 
BRANCH  16  23
ATOM     22  N   UNL     1      48.393   2.083   6.593  0.00  0.00    +0.000 N 
ATOM     23  C   UNL     1      47.292   1.430   7.073  0.00  0.00    +0.000 C 
ATOM     24  O   UNL     1      47.150   0.225   6.912  0.00  0.00    +0.000 OA
ATOM     25  H   UNL     1      49.109   1.500   6.180  0.00  0.00    +0.000 HD
ATOM     26  H   UNL     1      48.668   2.994   6.929  0.00  0.00    +0.000 HD
ENDBRANCH  16  23
ENDBRANCH  15  19
ENDBRANCH   1  15
TORSDOF 5
ENDMDL
MODEL 2
REMARK VINA RESULT:    -8.349      1.446      1.922
REMARK INTER + INTRA:         -11.724
REMARK INTER:                 -10.791
REMARK INTRA:                  -0.932
REMARK UNBOUND:                -0.935
REMARK  Name = 
REMARK  5 active torsions:
REMARK  status: ('A' for Active; 'I' for Inactive)
REMARK    1  A    between atoms: C_2  and  C_4
REMARK    2  A    between atoms: C_7  and  O_8
REMARK    3  A    between atoms: O_8  and  C_9
REMARK    4  A    between atoms: C_9  and  C_10
REMARK    5  A    between atoms: C_13  and  C_14
REMARK                            x       y       z     vdW  Elec       q    Type
REMARK                         _______ _______ _______ _____ _____    ______ ____
ROOT
ATOM      1  C   UNL     1      43.541   3.322  11.526  0.00  0.00    +0.000 C 
ENDROOT
BRANCH   1   2
ATOM      2  C   UNL     1      44.689   4.031  12.198  0.00  0.00    +0.000 A 
ATOM      3  C   UNL     1      45.740   3.307  12.766  0.00  0.00    +0.000 A 
ATOM      4  C   UNL     1      46.797   3.968  13.402  0.00  0.00    +0.000 A 
ATOM      5  C   UNL     1      46.842   5.371  13.491  0.00  0.00    +0.000 A 
ATOM      6  C   UNL     1      45.772   6.082  12.918  0.00  0.00    +0.000 A 
ATOM      7  C   UNL     1      44.705   5.425  12.292  0.00  0.00    +0.000 A 
BRANCH   5   8
ATOM      8  C   UNL     1      47.958   6.068  14.167  0.00  0.00    +0.000 A 
ATOM      9  C   UNL     1      48.800   6.964  13.495  0.00  0.00    +0.000 A 
ATOM     10  N   UNL     1      49.848   7.630  14.050  0.00  0.00    +0.000 NA
ATOM     11  C   UNL     1      50.074   7.402  15.362  0.00  0.00    +0.000 A 
ATOM     12  C   UNL     1      49.303   6.548  16.125  0.00  0.00    +0.000 A 
ATOM     13  F   UNL     1      49.569   6.366  17.424  0.00  0.00    +0.000 F 
ATOM     14  C   UNL     1      48.244   5.875  15.528  0.00  0.00    +0.000 A 
ENDBRANCH   5   8
ENDBRANCH   1   2
BRANCH   1  15
ATOM     15  O   UNL     1      43.471   3.755  10.170  0.00  0.00    +0.000 OA
BRANCH  15  19
ATOM     16  C   UNL     1      46.462   2.603   7.499  0.00  0.00    +0.000 A 
ATOM     17  C   UNL     1      45.886   1.626   8.317  0.00  0.00    +0.000 A 
ATOM     18  C   UNL     1      44.882   1.972   9.228  0.00  0.00    +0.000 A 
ATOM     19  C   UNL     1      44.447   3.295   9.328  0.00  0.00    +0.000 A 
ATOM     20  C   UNL     1      45.036   4.272   8.520  0.00  0.00    +0.000 A 
ATOM     21  C   UNL     1      46.043   3.932   7.615  0.00  0.00    +0.000 A 
BRANCH  16  23
ATOM     22  N   UNL     1      47.566   3.014   5.370  0.00  0.00    +0.000 N 
ATOM     23  C   UNL     1      47.526   2.271   6.518  0.00  0.00    +0.000 C 
ATOM     24  O   UNL     1      48.357   1.401   6.738  0.00  0.00    +0.000 OA
ATOM     25  H   UNL     1      48.363   2.858   4.769  0.00  0.00    +0.000 HD
ATOM     26  H   UNL     1      47.077   3.892   5.280  0.00  0.00    +0.000 HD
ENDBRANCH  16  23
ENDBRANCH  15  19
ENDBRANCH   1  15
TORSDOF 5
ENDMDL
MODEL 3
REMARK VINA RESULT:    -7.221      1.693      2.363
REMARK INTER + INTRA:         -10.266
REMARK INTER:                  -9.394
REMARK INTRA:                  -0.872
REMARK UNBOUND:                -0.935
REMARK  Name = 
REMARK  5 active torsions:
REMARK  status: ('A' for Active; 'I' for Inactive)
REMARK    1  A    between atoms: C_2  and  C_4
REMARK    2  A    between atoms: C_7  and  O_8
REMARK    3  A    between atoms: O_8  and  C_9
REMARK    4  A    between atoms: C_9  and  C_10
REMARK    5  A    between atoms: C_13  and  C_14
REMARK                            x       y       z     vdW  Elec       q    Type
REMARK                         _______ _______ _______ _____ _____    ______ ____
ROOT
ATOM      1  C   UNL     1      43.810   4.549  11.723  0.00  0.00    +0.000 C 
ENDROOT
BRANCH   1   2
ATOM      2  C   UNL     1      44.911   5.514  12.081  0.00  0.00    +0.000 A 
ATOM      3  C   UNL     1      45.985   5.107  12.877  0.00  0.00    +0.000 A 
ATOM      4  C   UNL     1      46.998   6.009  13.219  0.00  0.00    +0.000 A 
ATOM      5  C   UNL     1      46.977   7.345  12.778  0.00  0.00    +0.000 A 
ATOM      6  C   UNL     1      45.884   7.737  11.984  0.00  0.00    +0.000 A 
ATOM      7  C   UNL     1      44.861   6.841  11.649  0.00  0.00    +0.000 A 
BRANCH   5   8
ATOM      8  C   UNL     1      48.046   8.299  13.145  0.00  0.00    +0.000 A 
ATOM      9  C   UNL     1      48.753   9.037  12.186  0.00  0.00    +0.000 A 
ATOM     10  N   UNL     1      49.752   9.921  12.450  0.00  0.00    +0.000 NA
ATOM     11  C   UNL     1      50.069  10.095  13.752  0.00  0.00    +0.000 A 
ATOM     12  C   UNL     1      49.433   9.428  14.780  0.00  0.00    +0.000 A 
ATOM     13  F   UNL     1      49.784   9.645  16.054  0.00  0.00    +0.000 F 
ATOM     14  C   UNL     1      48.422   8.524  14.479  0.00  0.00    +0.000 A 
ENDBRANCH   5   8
ENDBRANCH   1   2
BRANCH   1  15
ATOM     15  O   UNL     1      43.592   4.611  10.316  0.00  0.00    +0.000 OA
BRANCH  15  19
ATOM     16  C   UNL     1      46.085   2.147   8.054  0.00  0.00    +0.000 A 
ATOM     17  C   UNL     1      46.153   3.529   7.853  0.00  0.00    +0.000 A 
ATOM     18  C   UNL     1      45.332   4.389   8.590  0.00  0.00    +0.000 A 
ATOM     19  C   UNL     1      44.438   3.876   9.531  0.00  0.00    +0.000 A 
ATOM     20  C   UNL     1      44.361   2.492   9.718  0.00  0.00    +0.000 A 
ATOM     21  C   UNL     1      45.173   1.630   8.979  0.00  0.00    +0.000 A 
BRANCH  16  23
ATOM     22  N   UNL     1      46.856  -0.120   7.623  0.00  0.00    +0.000 N 
ATOM     23  C   UNL     1      46.944   1.204   7.293  0.00  0.00    +0.000 C 
ATOM     24  O   UNL     1      47.670   1.583   6.385  0.00  0.00    +0.000 OA
ATOM     25  H   UNL     1      47.355  -0.761   7.021  0.00  0.00    +0.000 HD
ATOM     26  H   UNL     1      46.091  -0.490   8.167  0.00  0.00    +0.000 HD
ENDBRANCH  16  23
ENDBRANCH  15  19
ENDBRANCH   1  15
TORSDOF 5
ENDMDL
MODEL 4
REMARK VINA RESULT:    -6.588      1.823      2.532
REMARK INTER + INTRA:          -9.449
REMARK INTER:                  -8.752
REMARK INTRA:                  -0.697
REMARK UNBOUND:                -0.935
REMARK  Name = 
REMARK  5 active torsions:
REMARK  status: ('A' for Active; 'I' for Inactive)
REMARK    1  A    between atoms: C_2  and  C_4
REMARK    2  A    between atoms: C_7  and  O_8
REMARK    3  A    between atoms: O_8  and  C_9
REMARK    4  A    between atoms: C_9  and  C_10
REMARK    5  A    between atoms: C_13  and  C_14
REMARK                            x       y       z     vdW  Elec       q    Type
REMARK                         _______ _______ _______ _____ _____    ______ ____
ROOT
ATOM      1  C   UNL     1      43.791   5.214  12.734  0.00  0.00    +0.000 C 
ENDROOT
BRANCH   1   2
ATOM      2  C   UNL     1      45.083   5.980  12.605  0.00  0.00    +0.000 A 
ATOM      3  C   UNL     1      46.311   5.345  12.807  0.00  0.00    +0.000 A 
ATOM      4  C   UNL     1      47.508   6.063  12.700  0.00  0.00    +0.000 A 
ATOM      5  C   UNL     1      47.521   7.434  12.385  0.00  0.00    +0.000 A 
ATOM      6  C   UNL     1      46.273   8.055  12.191  0.00  0.00    +0.000 A 
ATOM      7  C   UNL     1      45.073   7.345  12.311  0.00  0.00    +0.000 A 
BRANCH   5   8
ATOM      8  C   UNL     1      48.786   8.192  12.276  0.00  0.00    +0.000 A 
ATOM      9  C   UNL     1      48.926   9.494  12.776  0.00  0.00    +0.000 A 
ATOM     10  N   UNL     1      50.053  10.251  12.702  0.00  0.00    +0.000 NA
ATOM     11  C   UNL     1      51.119   9.679  12.102  0.00  0.00    +0.000 A 
ATOM     12  C   UNL     1      51.098   8.400  11.582  0.00  0.00    +0.000 A 
ATOM     13  F   UNL     1      52.188   7.881  11.002  0.00  0.00    +0.000 F 
ATOM     14  C   UNL     1      49.929   7.653  11.664  0.00  0.00    +0.000 A 
ENDBRANCH   5   8
ENDBRANCH   1   2
BRANCH   1  15
ATOM     15  O   UNL     1      43.239   5.032  11.434  0.00  0.00    +0.000 OA
BRANCH  15  19
ATOM     16  C   UNL     1      45.520   2.757   8.785  0.00  0.00    +0.000 A 
ATOM     17  C   UNL     1      45.598   4.150   8.704  0.00  0.00    +0.000 A 
ATOM     18  C   UNL     1      44.847   4.949   9.573  0.00  0.00    +0.000 A 
ATOM     19  C   UNL     1      44.014   4.362  10.527  0.00  0.00    +0.000 A 
ATOM     20  C   UNL     1      43.926   2.968  10.593  0.00  0.00    +0.000 A 
ATOM     21  C   UNL     1      44.668   2.167   9.723  0.00  0.00    +0.000 A 
BRANCH  16  23
ATOM     22  N   UNL     1      47.075   2.493   6.931  0.00  0.00    +0.000 N 
ATOM     23  C   UNL     1      46.307   1.878   7.882  0.00  0.00    +0.000 C 
ATOM     24  O   UNL     1      46.303   0.661   8.001  0.00  0.00    +0.000 OA
ATOM     25  H   UNL     1      47.693   1.891   6.404  0.00  0.00    +0.000 HD
ATOM     26  H   UNL     1      47.305   3.474   6.977  0.00  0.00    +0.000 HD
ENDBRANCH  16  23
ENDBRANCH  15  19
ENDBRANCH   1  15
TORSDOF 5
ENDMDL
MODEL 5
REMARK VINA RESULT:    -6.345      5.206      6.902
REMARK INTER + INTRA:          -9.134
REMARK INTER:                  -8.505
REMARK INTRA:                  -0.630
REMARK UNBOUND:                -0.935
REMARK  Name = 
REMARK  5 active torsions:
REMARK  status: ('A' for Active; 'I' for Inactive)
REMARK    1  A    between atoms: C_2  and  C_4
REMARK    2  A    between atoms: C_7  and  O_8
REMARK    3  A    between atoms: O_8  and  C_9
REMARK    4  A    between atoms: C_9  and  C_10
REMARK    5  A    between atoms: C_13  and  C_14
REMARK                            x       y       z     vdW  Elec       q    Type
REMARK                         _______ _______ _______ _____ _____    ______ ____
ROOT
ATOM      1  C   UNL     1      47.408   4.396  16.167  0.00  0.00    +0.000 C 
ENDROOT
BRANCH   1   2
ATOM      2  C   UNL     1      48.708   3.802  16.643  0.00  0.00    +0.000 A 
ATOM      3  C   UNL     1      48.950   2.431  16.528  0.00  0.00    +0.000 A 
ATOM      4  C   UNL     1      50.153   1.880  16.983  0.00  0.00    +0.000 A 
ATOM      5  C   UNL     1      51.155   2.677  17.566  0.00  0.00    +0.000 A 
ATOM      6  C   UNL     1      50.890   4.054  17.679  0.00  0.00    +0.000 A 
ATOM      7  C   UNL     1      49.683   4.608  17.236  0.00  0.00    +0.000 A 
BRANCH   5   8
ATOM      8  C   UNL     1      52.425   2.093  18.051  0.00  0.00    +0.000 A 
ATOM      9  C   UNL     1      53.322   2.810  18.853  0.00  0.00    +0.000 A 
ATOM     10  N   UNL     1      54.508   2.341  19.325  0.00  0.00    +0.000 NA
ATOM     11  C   UNL     1      54.825   1.072  18.989  0.00  0.00    +0.000 A 
ATOM     12  C   UNL     1      54.013   0.270  18.212  0.00  0.00    +0.000 A 
ATOM     13  F   UNL     1      54.375  -0.984  17.916  0.00  0.00    +0.000 F 
ATOM     14  C   UNL     1      52.811   0.780  17.737  0.00  0.00    +0.000 A 
ENDBRANCH   5   8
ENDBRANCH   1   2
BRANCH   1  15
ATOM     15  O   UNL     1      47.655   5.132  14.973  0.00  0.00    +0.000 OA
BRANCH  15  19
ATOM     16  C   UNL     1      45.002   4.324  11.856  0.00  0.00    +0.000 A 
ATOM     17  C   UNL     1      45.199   5.655  12.235  0.00  0.00    +0.000 A 
ATOM     18  C   UNL     1      46.078   5.968  13.277  0.00  0.00    +0.000 A 
ATOM     19  C   UNL     1      46.766   4.954  13.948  0.00  0.00    +0.000 A 
ATOM     20  C   UNL     1      46.554   3.623  13.577  0.00  0.00    +0.000 A 
ATOM     21  C   UNL     1      45.672   3.306  12.542  0.00  0.00    +0.000 A 
BRANCH  16  23
ATOM     22  N   UNL     1      44.053   4.784   9.664  0.00  0.00    +0.000 N 
ATOM     23  C   UNL     1      44.080   3.955  10.752  0.00  0.00    +0.000 C 
ATOM     24  O   UNL     1      43.402   2.938  10.789  0.00  0.00    +0.000 OA
ATOM     25  H   UNL     1      43.512   4.459   8.873  0.00  0.00    +0.000 HD
ATOM     26  H   UNL     1      44.776   5.465   9.487  0.00  0.00    +0.000 HD
ENDBRANCH  16  23
ENDBRANCH  15  19
ENDBRANCH   1  15
TORSDOF 5
ENDMDL
MODEL 6
REMARK VINA RESULT:    -5.950      5.220      8.784
REMARK INTER + INTRA:          -8.624
REMARK INTER:                  -8.031
REMARK INTRA:                  -0.593
REMARK UNBOUND:                -0.935
REMARK  Name = 
REMARK  5 active torsions:
REMARK  status: ('A' for Active; 'I' for Inactive)
REMARK    1  A    between atoms: C_2  and  C_4
REMARK    2  A    between atoms: C_7  and  O_8
REMARK    3  A    between atoms: O_8  and  C_9
REMARK    4  A    between atoms: C_9  and  C_10
REMARK    5  A    between atoms: C_13  and  C_14
REMARK                            x       y       z     vdW  Elec       q    Type
REMARK                         _______ _______ _______ _____ _____    ______ ____
ROOT
ATOM      1  C   UNL     1      49.343   6.067  16.727  0.00  0.00    +0.000 C 
ENDROOT
BRANCH   1   2
ATOM      2  C   UNL     1      48.381   5.731  15.616  0.00  0.00    +0.000 A 
ATOM      3  C   UNL     1      47.517   4.640  15.727  0.00  0.00    +0.000 A 
ATOM      4  C   UNL     1      46.635   4.322  14.688  0.00  0.00    +0.000 A 
ATOM      5  C   UNL     1      46.583   5.083  13.506  0.00  0.00    +0.000 A 
ATOM      6  C   UNL     1      47.466   6.175  13.411  0.00  0.00    +0.000 A 
ATOM      7  C   UNL     1      48.359   6.489  14.443  0.00  0.00    +0.000 A 
BRANCH   5   8
ATOM      8  C   UNL     1      45.653   4.744  12.407  0.00  0.00    +0.000 A 
ATOM      9  C   UNL     1      45.597   5.484  11.217  0.00  0.00    +0.000 A 
ATOM     10  N   UNL     1      44.763   5.235  10.173  0.00  0.00    +0.000 NA
ATOM     11  C   UNL     1      43.933   4.178  10.309  0.00  0.00    +0.000 A 
ATOM     12  C   UNL     1      43.909   3.375  11.431  0.00  0.00    +0.000 A 
ATOM     13  F   UNL     1      43.069   2.335  11.508  0.00  0.00    +0.000 F 
ATOM     14  C   UNL     1      44.767   3.658  12.486  0.00  0.00    +0.000 A 
ENDBRANCH   5   8
ENDBRANCH   1   2
BRANCH   1  15
ATOM     15  O   UNL     1      49.273   5.043  17.714  0.00  0.00    +0.000 OA
BRANCH  15  19
ATOM     16  C   UNL     1      52.305   2.178  17.809  0.00  0.00    +0.000 A 
ATOM     17  C   UNL     1      52.622   3.496  18.155  0.00  0.00    +0.000 A 
ATOM     18  C   UNL     1      51.634   4.486  18.133  0.00  0.00    +0.000 A 
ATOM     19  C   UNL     1      50.325   4.168  17.766  0.00  0.00    +0.000 A 
ATOM     20  C   UNL     1      50.016   2.853  17.404  0.00  0.00    +0.000 A 
ATOM     21  C   UNL     1      51.000   1.863  17.418  0.00  0.00    +0.000 A 
BRANCH  16  23
ATOM     22  N   UNL     1      54.067   0.964  18.967  0.00  0.00    +0.000 N 
ATOM     23  C   UNL     1      53.327   1.100  17.825  0.00  0.00    +0.000 C 
ATOM     24  O   UNL     1      53.478   0.341  16.878  0.00  0.00    +0.000 OA
ATOM     25  H   UNL     1      54.673   0.155  19.008  0.00  0.00    +0.000 HD
ATOM     26  H   UNL     1      53.792   1.387  19.841  0.00  0.00    +0.000 HD
ENDBRANCH  16  23
ENDBRANCH  15  19
ENDBRANCH   1  15
TORSDOF 5
ENDMDL
MODEL 7
REMARK VINA RESULT:    -5.886      4.284      8.524
REMARK INTER + INTRA:          -8.541
REMARK INTER:                  -7.641
REMARK INTRA:                  -0.900
REMARK UNBOUND:                -0.935
REMARK  Name = 
REMARK  5 active torsions:
REMARK  status: ('A' for Active; 'I' for Inactive)
REMARK    1  A    between atoms: C_2  and  C_4
REMARK    2  A    between atoms: C_7  and  O_8
REMARK    3  A    between atoms: O_8  and  C_9
REMARK    4  A    between atoms: C_9  and  C_10
REMARK    5  A    between atoms: C_13  and  C_14
REMARK                            x       y       z     vdW  Elec       q    Type
REMARK                         _______ _______ _______ _____ _____    ______ ____
ROOT
ATOM      1  C   UNL     1      48.315   9.918  13.658  0.00  0.00    +0.000 C 
ENDROOT
BRANCH   1   2
ATOM      2  C   UNL     1      47.593   8.778  12.986  0.00  0.00    +0.000 A 
ATOM      3  C   UNL     1      48.257   7.948  12.080  0.00  0.00    +0.000 A 
ATOM      4  C   UNL     1      47.579   6.900  11.448  0.00  0.00    +0.000 A 
ATOM      5  C   UNL     1      46.219   6.642  11.700  0.00  0.00    +0.000 A 
ATOM      6  C   UNL     1      45.567   7.493  12.611  0.00  0.00    +0.000 A 
ATOM      7  C   UNL     1      46.237   8.552  13.236  0.00  0.00    +0.000 A 
BRANCH   5   8
ATOM      8  C   UNL     1      45.503   5.536  11.027  0.00  0.00    +0.000 A 
ATOM      9  C   UNL     1      44.630   4.681  11.714  0.00  0.00    +0.000 A 
ATOM     10  N   UNL     1      43.949   3.641  11.164  0.00  0.00    +0.000 NA
ATOM     11  C   UNL     1      44.135   3.438   9.842  0.00  0.00    +0.000 A 
ATOM     12  C   UNL     1      44.962   4.223   9.064  0.00  0.00    +0.000 A 
ATOM     13  F   UNL     1      45.103   3.979   7.756  0.00  0.00    +0.000 F 
ATOM     14  C   UNL     1      45.653   5.273   9.656  0.00  0.00    +0.000 A 
ENDBRANCH   5   8
ENDBRANCH   1   2
BRANCH   1  15
ATOM     15  O   UNL     1      49.363   9.382  14.459  0.00  0.00    +0.000 OA
BRANCH  15  19
ATOM     16  C   UNL     1      48.303   7.063  17.761  0.00  0.00    +0.000 A 
ATOM     17  C   UNL     1      48.007   8.429  17.784  0.00  0.00    +0.000 A 
ATOM     18  C   UNL     1      48.348   9.242  16.697  0.00  0.00    +0.000 A 
ATOM     19  C   UNL     1      48.988   8.696  15.582  0.00  0.00    +0.000 A 
ATOM     20  C   UNL     1      49.297   7.332  15.571  0.00  0.00    +0.000 A 
ATOM     21  C   UNL     1      48.964   6.519  16.656  0.00  0.00    +0.000 A 
BRANCH  16  23
ATOM     22  N   UNL     1      46.721   5.574  18.857  0.00  0.00    +0.000 N 
ATOM     23  C   UNL     1      47.952   6.170  18.894  0.00  0.00    +0.000 C 
ATOM     24  O   UNL     1      48.737   5.942  19.804  0.00  0.00    +0.000 OA
ATOM     25  H   UNL     1      46.543   4.879  19.570  0.00  0.00    +0.000 HD
ATOM     26  H   UNL     1      46.171   5.528  18.012  0.00  0.00    +0.000 HD
ENDBRANCH  16  23
ENDBRANCH  15  19
ENDBRANCH   1  15
TORSDOF 5
ENDMDL
MODEL 8
REMARK VINA RESULT:    -5.482      4.493      8.137
REMARK INTER + INTRA:          -8.019
REMARK INTER:                  -7.117
REMARK INTRA:                  -0.902
REMARK UNBOUND:                -0.935
REMARK  Name = 
REMARK  5 active torsions:
REMARK  status: ('A' for Active; 'I' for Inactive)
REMARK    1  A    between atoms: C_2  and  C_4
REMARK    2  A    between atoms: C_7  and  O_8
REMARK    3  A    between atoms: O_8  and  C_9
REMARK    4  A    between atoms: C_9  and  C_10
REMARK    5  A    between atoms: C_13  and  C_14
REMARK                            x       y       z     vdW  Elec       q    Type
REMARK                         _______ _______ _______ _____ _____    ______ ____
ROOT
ATOM      1  C   UNL     1      48.458   9.950  12.979  0.00  0.00    +0.000 C 
ENDROOT
BRANCH   1   2
ATOM      2  C   UNL     1      47.577   8.762  12.690  0.00  0.00    +0.000 A 
ATOM      3  C   UNL     1      48.066   7.672  11.965  0.00  0.00    +0.000 A 
ATOM      4  C   UNL     1      47.240   6.577  11.686  0.00  0.00    +0.000 A 
ATOM      5  C   UNL     1      45.903   6.531  12.122  0.00  0.00    +0.000 A 
ATOM      6  C   UNL     1      45.429   7.641  12.844  0.00  0.00    +0.000 A 
ATOM      7  C   UNL     1      46.247   8.745  13.114  0.00  0.00    +0.000 A 
BRANCH   5   8
ATOM      8  C   UNL     1      45.031   5.374  11.822  0.00  0.00    +0.000 A 
ATOM      9  C   UNL     1      44.193   4.798  12.786  0.00  0.00    +0.000 A 
ATOM     10  N   UNL     1      43.375   3.730  12.584  0.00  0.00    +0.000 NA
ATOM     11  C   UNL     1      43.378   3.202  11.341  0.00  0.00    +0.000 A 
ATOM     12  C   UNL     1      44.156   3.694  10.311  0.00  0.00    +0.000 A 
ATOM     13  F   UNL     1      44.114   3.133   9.097  0.00  0.00    +0.000 F 
ATOM     14  C   UNL     1      44.989   4.780  10.550  0.00  0.00    +0.000 A 
ENDBRANCH   5   8
ENDBRANCH   1   2
BRANCH   1  15
ATOM     15  O   UNL     1      48.674  10.024  14.385  0.00  0.00    +0.000 OA
BRANCH  15  19
ATOM     16  C   UNL     1      50.512   6.801  16.293  0.00  0.00    +0.000 A 
ATOM     17  C   UNL     1      51.240   7.511  15.333  0.00  0.00    +0.000 A 
ATOM     18  C   UNL     1      50.659   8.596  14.669  0.00  0.00    +0.000 A 
ATOM     19  C   UNL     1      49.348   8.980  14.958  0.00  0.00    +0.000 A 
ATOM     20  C   UNL     1      48.618   8.257  15.907  0.00  0.00    +0.000 A 
ATOM     21  C   UNL     1      49.192   7.169  16.567  0.00  0.00    +0.000 A 
BRANCH  16  23
ATOM     22  N   UNL     1      52.463   5.559  17.048  0.00  0.00    +0.000 N 
ATOM     23  C   UNL     1      51.099   5.647  17.021  0.00  0.00    +0.000 C 
ATOM     24  O   UNL     1      50.400   4.830  17.605  0.00  0.00    +0.000 OA
ATOM     25  H   UNL     1      52.849   4.839  17.643  0.00  0.00    +0.000 HD
ATOM     26  H   UNL     1      53.058   6.339  16.813  0.00  0.00    +0.000 HD
ENDBRANCH  16  23
ENDBRANCH  15  19
ENDBRANCH   1  15
TORSDOF 5
ENDMDL
