MODEL 1
REMARK VINA RESULT:    -9.408      0.000      0.000
REMARK INTER + INTRA:         -12.814
REMARK INTER:                 -12.158
REMARK INTRA:                  -0.655
REMARK UNBOUND:                -0.655
REMARK  Name = 
REMARK  5 active torsions:
REMARK  status: ('A' for Active; 'I' for Inactive)
REMARK    1  A    between atoms: C_2  and  C_4
REMARK    2  A    between atoms: C_7  and  N_8
REMARK    3  A    between atoms: N_8  and  C_9
REMARK    4  A    between atoms: C_9  and  C_10
REMARK    5  A    between atoms: C_14  and  C_15
REMARK                            x       y       z     vdW  Elec       q    Type
REMARK                         _______ _______ _______ _____ _____    ______ ____
ROOT
ATOM      1  C   UNL     1      43.902   4.941  11.355  0.00  0.00    +0.000 C 
ATOM      2  C   UNL     1      43.040   3.982  12.152  0.00  0.00    +0.000 C 
ATOM      3  C   UNL     1      42.694   5.434  12.131  0.00  0.00    +0.000 C 
ENDROOT
BRANCH   1   4
ATOM      4  C   UNL     1      45.295   5.328  11.838  0.00  0.00    +0.000 A 
ATOM      5  C   UNL     1      45.924   6.490  11.370  0.00  0.00    +0.000 A 
ATOM      6  C   UNL     1      47.044   7.013  12.009  0.00  0.00    +0.000 A 
ATOM      7  C   UNL     1      47.553   6.382  13.144  0.00  0.00    +0.000 A 
ATOM      8  C   UNL     1      46.992   5.189  13.631  0.00  0.00    +0.000 A 
ATOM      9  C   UNL     1      45.887   4.661  12.934  0.00  0.00    +0.000 A 
BRANCH   8  10
ATOM     10  C   UNL     1      47.473   4.596  14.893  0.00  0.00    +0.000 A 
ATOM     11  C   UNL     1      47.896   5.342  15.992  0.00  0.00    +0.000 A 
ATOM     12  N   UNL     1      48.401   4.789  17.126  0.00  0.00    +0.000 NA
ATOM     13  C   UNL     1      48.471   3.440  17.125  0.00  0.00    +0.000 A 
ATOM     14  C   UNL     1      48.048   2.682  16.048  0.00  0.00    +0.000 A 
ATOM     15  N   UNL     1      47.540   3.237  14.925  0.00  0.00    +0.000 NA
ENDBRANCH   8  10
ENDBRANCH   1   4
BRANCH   1  16
ATOM     16  N   UNL     1      43.850   4.902   9.876  0.00  0.00    +0.000 N 
ATOM     17  H   UNL     1      42.937   4.954   9.440  0.00  0.00    +0.000 HD
BRANCH  16  21
ATOM     18  C   UNL     1      46.344   2.324   7.834  0.00  0.00    +0.000 A 
ATOM     19  C   UNL     1      46.398   3.686   7.601  0.00  0.00    +0.000 A 
ATOM     20  N   UNL     1      45.600   4.571   8.255  0.00  0.00    +0.000 NA
ATOM     21  C   UNL     1      44.738   4.063   9.166  0.00  0.00    +0.000 A 
ATOM     22  C   UNL     1      44.684   2.678   9.369  0.00  0.00    +0.000 A 
ATOM     23  N   UNL     1      45.477   1.774   8.729  0.00  0.00    +0.000 NA
BRANCH  18  25
ATOM     24  N   UNL     1      48.349   2.006   6.513  0.00  0.00    +0.000 N 
ATOM     25  C   UNL     1      47.260   1.411   7.096  0.00  0.00    +0.000 C 
ATOM     26  O   UNL     1      47.065   0.207   7.021  0.00  0.00    +0.000 OA
ATOM     27  H   UNL     1      49.024   1.432   6.034  0.00  0.00    +0.000 HD
ATOM     28  H   UNL     1      48.510   2.998   6.636  0.00  0.00    +0.000 HD
ENDBRANCH  18  25
ENDBRANCH  16  21
ENDBRANCH   1  16
TORSDOF 5
ENDMDL
MODEL 2
REMARK VINA RESULT:    -8.519      2.290      3.668
REMARK INTER + INTRA:         -11.665
REMARK INTER:                 -11.132
REMARK INTRA:                  -0.533
REMARK UNBOUND:                -0.655
REMARK  Name = 
REMARK  5 active torsions:
REMARK  status: ('A' for Active; 'I' for Inactive)
REMARK    1  A    between atoms: C_2  and  C_4
REMARK    2  A    between atoms: C_7  and  N_8
REMARK    3  A    between atoms: N_8  and  C_9
REMARK    4  A    between atoms: C_9  and  C_10
REMARK    5  A    between atoms: C_14  and  C_15
REMARK                            x       y       z     vdW  Elec       q    Type
REMARK                         _______ _______ _______ _____ _____    ______ ____
ROOT
ATOM      1  C   UNL     1      43.890   4.960  11.267  0.00  0.00    +0.000 C 
ATOM      2  C   UNL     1      43.021   3.790  11.681  0.00  0.00    +0.000 C 
ATOM      3  C   UNL     1      42.493   5.179  11.817  0.00  0.00    +0.000 C 
ENDROOT
BRANCH   1   4
ATOM      4  C   UNL     1      45.088   5.382  12.111  0.00  0.00    +0.000 A 
ATOM      5  C   UNL     1      45.760   4.457  12.922  0.00  0.00    +0.000 A 
ATOM      6  C   UNL     1      47.014   4.742  13.456  0.00  0.00    +0.000 A 
ATOM      7  C   UNL     1      47.625   5.965  13.179  0.00  0.00    +0.000 A 
ATOM      8  C   UNL     1      46.978   6.948  12.411  0.00  0.00    +0.000 A 
ATOM      9  C   UNL     1      45.690   6.645  11.923  0.00  0.00    +0.000 A 
BRANCH   8  10
ATOM     10  C   UNL     1      47.681   8.188  12.037  0.00  0.00    +0.000 A 
ATOM     11  C   UNL     1      49.034   8.246  11.705  0.00  0.00    +0.000 A 
ATOM     12  N   UNL     1      49.691   9.403  11.427  0.00  0.00    +0.000 NA
ATOM     13  C   UNL     1      48.936  10.521  11.492  0.00  0.00    +0.000 A 
ATOM     14  C   UNL     1      47.591  10.484  11.810  0.00  0.00    +0.000 A 
ATOM     15  N   UNL     1      46.940   9.330  12.079  0.00  0.00    +0.000 NA
ENDBRANCH   8  10
ENDBRANCH   1   4
BRANCH   1  16
ATOM     16  N   UNL     1      44.151   5.196   9.829  0.00  0.00    +0.000 N 
ATOM     17  H   UNL     1      43.382   5.536   9.266  0.00  0.00    +0.000 HD
BRANCH  16  21
ATOM     18  C   UNL     1      46.491   2.487   7.774  0.00  0.00    +0.000 A 
ATOM     19  C   UNL     1      46.638   3.846   7.561  0.00  0.00    +0.000 A 
ATOM     20  N   UNL     1      45.893   4.773   8.221  0.00  0.00    +0.000 NA
ATOM     21  C   UNL     1      44.990   4.309   9.116  0.00  0.00    +0.000 A 
ATOM     22  C   UNL     1      44.843   2.929   9.297  0.00  0.00    +0.000 A 
ATOM     23  N   UNL     1      45.581   1.984   8.652  0.00  0.00    +0.000 NA
BRANCH  18  25
ATOM     24  N   UNL     1      48.424   2.075   6.373  0.00  0.00    +0.000 N 
ATOM     25  C   UNL     1      47.353   1.526   7.031  0.00  0.00    +0.000 C 
ATOM     26  O   UNL     1      47.132   0.325   7.016  0.00  0.00    +0.000 OA
ATOM     27  H   UNL     1      49.064   1.467   5.887  0.00  0.00    +0.000 HD
ATOM     28  H   UNL     1      48.610   3.067   6.448  0.00  0.00    +0.000 HD
ENDBRANCH  18  25
ENDBRANCH  16  21
ENDBRANCH   1  16
TORSDOF 5
ENDMDL
MODEL 3
REMARK VINA RESULT:    -8.470      1.812      2.443
REMARK INTER + INTRA:         -11.601
REMARK INTER:                 -11.026
REMARK INTRA:                  -0.575
REMARK UNBOUND:                -0.655
REMARK  Name = 
REMARK  5 active torsions:
REMARK  status: ('A' for Active; 'I' for Inactive)
REMARK    1  A    between atoms: C_2  and  C_4
REMARK    2  A    between atoms: C_7  and  N_8
REMARK    3  A    between atoms: N_8  and  C_9
REMARK    4  A    between atoms: C_9  and  C_10
REMARK    5  A    between atoms: C_14  and  C_15
REMARK                            x       y       z     vdW  Elec       q    Type
REMARK                         _______ _______ _______ _____ _____    ______ ____
ROOT
ATOM      1  C   UNL     1      44.146   5.076  11.408  0.00  0.00    +0.000 C 
ATOM      2  C   UNL     1      44.322   3.914  12.364  0.00  0.00    +0.000 C 
ATOM      3  C   UNL     1      43.098   4.763  12.460  0.00  0.00    +0.000 C 
ENDROOT
BRANCH   1   4
ATOM      4  C   UNL     1      44.981   6.344  11.555  0.00  0.00    +0.000 A 
ATOM      5  C   UNL     1      44.420   7.608  11.326  0.00  0.00    +0.000 A 
ATOM      6  C   UNL     1      45.065   8.770  11.739  0.00  0.00    +0.000 A 
ATOM      7  C   UNL     1      46.289   8.686  12.403  0.00  0.00    +0.000 A 
ATOM      8  C   UNL     1      46.920   7.449  12.618  0.00  0.00    +0.000 A 
ATOM      9  C   UNL     1      46.262   6.295  12.147  0.00  0.00    +0.000 A 
BRANCH   8  10
ATOM     10  C   UNL     1      48.158   7.370  13.416  0.00  0.00    +0.000 A 
ATOM     11  C   UNL     1      48.307   6.562  14.543  0.00  0.00    +0.000 A 
ATOM     12  N   UNL     1      49.428   6.545  15.311  0.00  0.00    +0.000 NA
ATOM     13  C   UNL     1      50.412   7.377  14.910  0.00  0.00    +0.000 A 
ATOM     14  C   UNL     1      50.288   8.179  13.790  0.00  0.00    +0.000 A 
ATOM     15  N   UNL     1      49.174   8.188  13.024  0.00  0.00    +0.000 NA
ENDBRANCH   8  10
ENDBRANCH   1   4
BRANCH   1  16
ATOM     16  N   UNL     1      43.850   4.804   9.983  0.00  0.00    +0.000 N 
ATOM     17  H   UNL     1      42.891   4.589   9.739  0.00  0.00    +0.000 HD
BRANCH  16  21
ATOM     18  C   UNL     1      46.470   2.562   7.715  0.00  0.00    +0.000 A 
ATOM     19  C   UNL     1      46.464   3.943   7.623  0.00  0.00    +0.000 A 
ATOM     20  N   UNL     1      45.623   4.719   8.356  0.00  0.00    +0.000 NA
ATOM     21  C   UNL     1      44.780   4.082   9.201  0.00  0.00    +0.000 A 
ATOM     22  C   UNL     1      44.787   2.683   9.259  0.00  0.00    +0.000 A 
ATOM     23  N   UNL     1      45.623   1.886   8.539  0.00  0.00    +0.000 NA
BRANCH  18  25
ATOM     24  N   UNL     1      48.533   2.454   6.449  0.00  0.00    +0.000 N 
ATOM     25  C   UNL     1      47.431   1.771   6.897  0.00  0.00    +0.000 C 
ATOM     26  O   UNL     1      47.260   0.587   6.648  0.00  0.00    +0.000 OA
ATOM     27  H   UNL     1      49.236   1.959   5.925  0.00  0.00    +0.000 HD
ATOM     28  H   UNL     1      48.672   3.421   6.716  0.00  0.00    +0.000 HD
ENDBRANCH  18  25
ENDBRANCH  16  21
ENDBRANCH   1  16
TORSDOF 5
ENDMDL
MODEL 4
REMARK VINA RESULT:    -7.031      2.621      7.247
REMARK INTER + INTRA:          -9.742
REMARK INTER:                 -10.099
REMARK INTRA:                   0.357
REMARK UNBOUND:                -0.655
REMARK  Name = 
REMARK  5 active torsions:
REMARK  status: ('A' for Active; 'I' for Inactive)
REMARK    1  A    between atoms: C_2  and  C_4
REMARK    2  A    between atoms: C_7  and  N_8
REMARK    3  A    between atoms: N_8  and  C_9
REMARK    4  A    between atoms: C_9  and  C_10
REMARK    5  A    between atoms: C_14  and  C_15
REMARK                            x       y       z     vdW  Elec       q    Type
REMARK                         _______ _______ _______ _____ _____    ______ ____
ROOT
ATOM      1  C   UNL     1      46.394   7.310  12.428  0.00  0.00    +0.000 C 
ATOM      2  C   UNL     1      46.462   8.727  11.896  0.00  0.00    +0.000 C 
ATOM      3  C   UNL     1      45.832   8.473  13.225  0.00  0.00    +0.000 C 
ENDROOT
BRANCH   1   4
ATOM      4  C   UNL     1      45.428   6.294  11.828  0.00  0.00    +0.000 A 
ATOM      5  C   UNL     1      44.042   6.442  11.976  0.00  0.00    +0.000 A 
ATOM      6  C   UNL     1      43.150   5.710  11.197  0.00  0.00    +0.000 A 
ATOM      7  C   UNL     1      43.635   4.816  10.242  0.00  0.00    +0.000 A 
ATOM      8  C   UNL     1      45.013   4.593  10.082  0.00  0.00    +0.000 A 
ATOM      9  C   UNL     1      45.888   5.317  10.918  0.00  0.00    +0.000 A 
BRANCH   8  10
ATOM     10  C   UNL     1      45.511   3.728   8.997  0.00  0.00    +0.000 A 
ATOM     11  C   UNL     1      45.520   2.335   9.053  0.00  0.00    +0.000 A 
ATOM     12  N   UNL     1      46.042   1.548   8.077  0.00  0.00    +0.000 NA
ATOM     13  C   UNL     1      46.564   2.210   7.022  0.00  0.00    +0.000 A 
ATOM     14  C   UNL     1      46.555   3.590   6.943  0.00  0.00    +0.000 A 
ATOM     15  N   UNL     1      46.029   4.370   7.913  0.00  0.00    +0.000 NA
ENDBRANCH   8  10
ENDBRANCH   1   4
BRANCH   1  16
ATOM     16  N   UNL     1      47.636   6.648  12.886  0.00  0.00    +0.000 N 
ATOM     17  H   UNL     1      48.246   6.261  12.177  0.00  0.00    +0.000 HD
BRANCH  16  21
ATOM     18  C   UNL     1      47.538   4.250  16.244  0.00  0.00    +0.000 A 
ATOM     19  C   UNL     1      48.313   5.396  16.221  0.00  0.00    +0.000 A 
ATOM     20  N   UNL     1      48.369   6.217  15.140  0.00  0.00    +0.000 NA
ATOM     21  C   UNL     1      47.620   5.871  14.067  0.00  0.00    +0.000 A 
ATOM     22  C   UNL     1      46.863   4.694  14.104  0.00  0.00    +0.000 A 
ATOM     23  N   UNL     1      46.788   3.859  15.178  0.00  0.00    +0.000 NA
BRANCH  18  25
ATOM     24  N   UNL     1      48.581   3.539  18.312  0.00  0.00    +0.000 N 
ATOM     25  C   UNL     1      47.507   3.403  17.470  0.00  0.00    +0.000 C 
ATOM     26  O   UNL     1      46.582   2.646  17.719  0.00  0.00    +0.000 OA
ATOM     27  H   UNL     1      48.594   3.020  19.175  0.00  0.00    +0.000 HD
ATOM     28  H   UNL     1      49.306   4.212  18.103  0.00  0.00    +0.000 HD
ENDBRANCH  18  25
ENDBRANCH  16  21
ENDBRANCH   1  16
TORSDOF 5
ENDMDL
MODEL 5
REMARK VINA RESULT:    -6.934      1.892      2.928
REMARK INTER + INTRA:          -9.617
REMARK INTER:                  -9.942
REMARK INTRA:                   0.325
REMARK UNBOUND:                -0.655
REMARK  Name = 
REMARK  5 active torsions:
REMARK  status: ('A' for Active; 'I' for Inactive)
REMARK    1  A    between atoms: C_2  and  C_4
REMARK    2  A    between atoms: C_7  and  N_8
REMARK    3  A    between atoms: N_8  and  C_9
REMARK    4  A    between atoms: C_9  and  C_10
REMARK    5  A    between atoms: C_14  and  C_15
REMARK                            x       y       z     vdW  Elec       q    Type
REMARK                         _______ _______ _______ _____ _____    ______ ____
ROOT
ATOM      1  C   UNL     1      43.737   4.875  11.284  0.00  0.00    +0.000 C 
ATOM      2  C   UNL     1      42.548   5.738  11.656  0.00  0.00    +0.000 C 
ATOM      3  C   UNL     1      43.554   6.256  10.683  0.00  0.00    +0.000 C 
ENDROOT
BRANCH   1   4
ATOM      4  C   UNL     1      44.877   4.646  12.270  0.00  0.00    +0.000 A 
ATOM      5  C   UNL     1      45.234   3.352  12.673  0.00  0.00    +0.000 A 
ATOM      6  C   UNL     1      46.440   3.103  13.322  0.00  0.00    +0.000 A 
ATOM      7  C   UNL     1      47.322   4.155  13.575  0.00  0.00    +0.000 A 
ATOM      8  C   UNL     1      46.996   5.479  13.236  0.00  0.00    +0.000 A 
ATOM      9  C   UNL     1      45.747   5.702  12.620  0.00  0.00    +0.000 A 
BRANCH   8  10
ATOM     10  C   UNL     1      47.983   6.560  13.410  0.00  0.00    +0.000 A 
ATOM     11  C   UNL     1      48.212   7.564  12.469  0.00  0.00    +0.000 A 
ATOM     12  N   UNL     1      49.171   8.518  12.607  0.00  0.00    +0.000 NA
ATOM     13  C   UNL     1      49.906   8.434  13.737  0.00  0.00    +0.000 A 
ATOM     14  C   UNL     1      49.688   7.452  14.686  0.00  0.00    +0.000 A 
ATOM     15  N   UNL     1      48.729   6.509  14.548  0.00  0.00    +0.000 NA
ENDBRANCH   8  10
ENDBRANCH   1   4
BRANCH   1  16
ATOM     16  N   UNL     1      43.527   3.679  10.437  0.00  0.00    +0.000 N 
ATOM     17  H   UNL     1      43.098   2.870  10.870  0.00  0.00    +0.000 HD
BRANCH  16  21
ATOM     18  C   UNL     1      46.422   2.795   7.631  0.00  0.00    +0.000 A 
ATOM     19  C   UNL     1      45.877   1.795   8.418  0.00  0.00    +0.000 A 
ATOM     20  N   UNL     1      44.918   2.042   9.349  0.00  0.00    +0.000 NA
ATOM     21  C   UNL     1      44.501   3.322   9.476  0.00  0.00    +0.000 A 
ATOM     22  C   UNL     1      45.084   4.321   8.686  0.00  0.00    +0.000 A 
ATOM     23  N   UNL     1      46.042   4.097   7.744  0.00  0.00    +0.000 NA
BRANCH  18  25
ATOM     24  N   UNL     1      47.422   3.192   5.460  0.00  0.00    +0.000 N 
ATOM     25  C   UNL     1      47.457   2.454   6.616  0.00  0.00    +0.000 C 
ATOM     26  O   UNL     1      48.293   1.583   6.800  0.00  0.00    +0.000 OA
ATOM     27  H   UNL     1      48.123   3.032   4.755  0.00  0.00    +0.000 HD
ATOM     28  H   UNL     1      46.749   3.941   5.359  0.00  0.00    +0.000 HD
ENDBRANCH  18  25
ENDBRANCH  16  21
ENDBRANCH   1  16
TORSDOF 5
ENDMDL
MODEL 6
REMARK VINA RESULT:    -6.680      2.874      7.516
REMARK INTER + INTRA:          -9.287
REMARK INTER:                  -9.261
REMARK INTRA:                  -0.026
REMARK UNBOUND:                -0.655
REMARK  Name = 
REMARK  5 active torsions:
REMARK  status: ('A' for Active; 'I' for Inactive)
REMARK    1  A    between atoms: C_2  and  C_4
REMARK    2  A    between atoms: C_7  and  N_8
REMARK    3  A    between atoms: N_8  and  C_9
REMARK    4  A    between atoms: C_9  and  C_10
REMARK    5  A    between atoms: C_14  and  C_15
REMARK                            x       y       z     vdW  Elec       q    Type
REMARK                         _______ _______ _______ _____ _____    ______ ____
ROOT
ATOM      1  C   UNL     1      48.602   7.642  12.908  0.00  0.00    +0.000 C 
ATOM      2  C   UNL     1      49.692   7.026  12.054  0.00  0.00    +0.000 C 
ATOM      3  C   UNL     1      49.449   8.496  11.983  0.00  0.00    +0.000 C 
ENDROOT
BRANCH   1   4
ATOM      4  C   UNL     1      47.130   7.429  12.572  0.00  0.00    +0.000 A 
ATOM      5  C   UNL     1      46.201   8.469  12.712  0.00  0.00    +0.000 A 
ATOM      6  C   UNL     1      44.936   8.390  12.137  0.00  0.00    +0.000 A 
ATOM      7  C   UNL     1      44.579   7.262  11.398  0.00  0.00    +0.000 A 
ATOM      8  C   UNL     1      45.452   6.169  11.264  0.00  0.00    +0.000 A 
ATOM      9  C   UNL     1      46.709   6.262  11.896  0.00  0.00    +0.000 A 
BRANCH   8  10
ATOM     10  C   UNL     1      45.102   5.034  10.390  0.00  0.00    +0.000 A 
ATOM     11  C   UNL     1      44.343   3.940  10.802  0.00  0.00    +0.000 A 
ATOM     12  N   UNL     1      44.082   2.867  10.010  0.00  0.00    +0.000 NA
ATOM     13  C   UNL     1      44.614   2.924   8.771  0.00  0.00    +0.000 A 
ATOM     14  C   UNL     1      45.362   4.004   8.340  0.00  0.00    +0.000 A 
ATOM     15  N   UNL     1      45.614   5.073   9.128  0.00  0.00    +0.000 NA
ENDBRANCH   8  10
ENDBRANCH   1   4
BRANCH   1  16
ATOM     16  N   UNL     1      48.799   7.741  14.372  0.00  0.00    +0.000 N 
ATOM     17  H   UNL     1      49.609   8.251  14.700  0.00  0.00    +0.000 HD
BRANCH  16  21
ATOM     18  C   UNL     1      47.905   4.609  16.909  0.00  0.00    +0.000 A 
ATOM     19  C   UNL     1      47.578   4.542  15.566  0.00  0.00    +0.000 A 
ATOM     20  N   UNL     1      47.859   5.547  14.695  0.00  0.00    +0.000 NA
ATOM     21  C   UNL     1      48.490   6.634  15.196  0.00  0.00    +0.000 A 
ATOM     22  C   UNL     1      48.790   6.690  16.563  0.00  0.00    +0.000 A 
ATOM     23  N   UNL     1      48.522   5.694  17.452  0.00  0.00    +0.000 NA
BRANCH  18  25
ATOM     24  N   UNL     1      48.357   3.360  18.934  0.00  0.00    +0.000 N 
ATOM     25  C   UNL     1      47.585   3.464  17.805  0.00  0.00    +0.000 C 
ATOM     26  O   UNL     1      46.686   2.673  17.562  0.00  0.00    +0.000 OA
ATOM     27  H   UNL     1      48.158   2.628  19.597  0.00  0.00    +0.000 HD
ATOM     28  H   UNL     1      49.059   4.060  19.133  0.00  0.00    +0.000 HD
ENDBRANCH  18  25
ENDBRANCH  16  21
ENDBRANCH   1  16
TORSDOF 5
ENDMDL
MODEL 7
REMARK VINA RESULT:    -6.527      4.112      6.363
REMARK INTER + INTRA:          -9.090
REMARK INTER:                  -8.308
REMARK INTRA:                  -0.783
REMARK UNBOUND:                -0.655
REMARK  Name = 
REMARK  5 active torsions:
REMARK  status: ('A' for Active; 'I' for Inactive)
REMARK    1  A    between atoms: C_2  and  C_4
REMARK    2  A    between atoms: C_7  and  N_8
REMARK    3  A    between atoms: N_8  and  C_9
REMARK    4  A    between atoms: C_9  and  C_10
REMARK    5  A    between atoms: C_14  and  C_15
REMARK                            x       y       z     vdW  Elec       q    Type
REMARK                         _______ _______ _______ _____ _____    ______ ____
ROOT
ATOM      1  C   UNL     1      48.986   7.571  15.404  0.00  0.00    +0.000 C 
ATOM      2  C   UNL     1      48.259   8.900  15.430  0.00  0.00    +0.000 C 
ATOM      3  C   UNL     1      49.741   8.878  15.257  0.00  0.00    +0.000 C 
ENDROOT
BRANCH   1   4
ATOM      4  C   UNL     1      49.169   6.754  16.679  0.00  0.00    +0.000 A 
ATOM      5  C   UNL     1      48.290   6.900  17.761  0.00  0.00    +0.000 A 
ATOM      6  C   UNL     1      48.257   5.969  18.795  0.00  0.00    +0.000 A 
ATOM      7  C   UNL     1      49.104   4.861  18.759  0.00  0.00    +0.000 A 
ATOM      8  C   UNL     1      50.038   4.688  17.723  0.00  0.00    +0.000 A 
ATOM      9  C   UNL     1      50.077   5.673  16.715  0.00  0.00    +0.000 A 
BRANCH   8  10
ATOM     10  C   UNL     1      50.847   3.459  17.643  0.00  0.00    +0.000 A 
ATOM     11  C   UNL     1      50.356   2.230  17.206  0.00  0.00    +0.000 A 
ATOM     12  N   UNL     1      51.090   1.087  17.198  0.00  0.00    +0.000 NA
ATOM     13  C   UNL     1      52.356   1.214  17.651  0.00  0.00    +0.000 A 
ATOM     14  C   UNL     1      52.865   2.426  18.080  0.00  0.00    +0.000 A 
ATOM     15  N   UNL     1      52.133   3.562  18.080  0.00  0.00    +0.000 NA
ENDBRANCH   8  10
ENDBRANCH   1   4
BRANCH   1  16
ATOM     16  N   UNL     1      48.831   6.684  14.229  0.00  0.00    +0.000 N 
ATOM     17  H   UNL     1      49.377   6.903  13.405  0.00  0.00    +0.000 HD
BRANCH  16  21
ATOM     18  C   UNL     1      45.121   5.065  13.420  0.00  0.00    +0.000 A 
ATOM     19  C   UNL     1      45.466   6.313  12.931  0.00  0.00    +0.000 A 
ATOM     20  N   UNL     1      46.678   6.880  13.168  0.00  0.00    +0.000 NA
ATOM     21  C   UNL     1      47.556   6.164  13.907  0.00  0.00    +0.000 A 
ATOM     22  C   UNL     1      47.177   4.914  14.411  0.00  0.00    +0.000 A 
ATOM     23  N   UNL     1      45.971   4.325  14.183  0.00  0.00    +0.000 NA
BRANCH  18  25
ATOM     24  N   UNL     1      42.751   5.396  13.046  0.00  0.00    +0.000 N 
ATOM     25  C   UNL     1      43.782   4.494  13.107  0.00  0.00    +0.000 C 
ATOM     26  O   UNL     1      43.609   3.301  12.905  0.00  0.00    +0.000 OA
ATOM     27  H   UNL     1      41.830   5.071  12.799  0.00  0.00    +0.000 HD
ATOM     28  H   UNL     1      42.935   6.384  13.167  0.00  0.00    +0.000 HD
ENDBRANCH  18  25
ENDBRANCH  16  21
ENDBRANCH   1  16
TORSDOF 5
ENDMDL
