MODEL 1
REMARK VINA RESULT:    -8.828      0.000      0.000
REMARK INTER + INTRA:         -12.212
REMARK INTER:                 -11.409
REMARK INTRA:                  -0.803
REMARK UNBOUND:                -0.803
REMARK  Name = 
REMARK  5 active torsions:
REMARK  status: ('A' for Active; 'I' for Inactive)
REMARK    1  A    between atoms: C_2  and  C_4
REMARK    2  A    between atoms: C_7  and  C_8
REMARK    3  A    between atoms: C_8  and  C_9
REMARK    4  A    between atoms: C_9  and  C_10
REMARK    5  A    between atoms: C_13  and  C_14
REMARK                            x       y       z     vdW  Elec       q    Type
REMARK                         _______ _______ _______ _____ _____    ______ ____
ROOT
ATOM      1  C   UNL     1      44.129   4.710  11.774  0.00  0.00    +0.000 C 
ATOM      2  C   UNL     1      43.470   3.694  12.701  0.00  0.00    +0.000 C 
ATOM      3  C   UNL     1      43.151   5.146  12.872  0.00  0.00    +0.000 C 
ENDROOT
BRANCH   1   4
ATOM      4  C   UNL     1      45.551   5.177  12.069  0.00  0.00    +0.000 A 
ATOM      5  C   UNL     1      46.067   6.318  11.432  0.00  0.00    +0.000 A 
ATOM      6  C   UNL     1      47.238   6.906  11.885  0.00  0.00    +0.000 A 
ATOM      7  C   UNL     1      47.891   6.301  12.946  0.00  0.00    +0.000 A 
ATOM      8  N   UNL     1      47.504   5.121  13.512  0.00  0.00    +0.000 NA
ATOM      9  C   UNL     1      46.352   4.591  13.049  0.00  0.00    +0.000 A 
BRANCH   7  10
ATOM     10  C   UNL     1      49.033   7.004  13.600  0.00  0.00    +0.000 C 
ATOM     11  N   UNL     1      50.065   7.326  12.763  0.00  0.00    +0.000 N 
ATOM     12  O   UNL     1      49.063   7.252  14.797  0.00  0.00    +0.000 OA
ATOM     13  H   UNL     1      50.002   7.080  11.782  0.00  0.00    +0.000 HD
ATOM     14  H   UNL     1      50.887   7.778  13.136  0.00  0.00    +0.000 HD
ENDBRANCH   7  10
ENDBRANCH   1   4
BRANCH   1  15
ATOM     15  C   UNL     1      43.798   4.749  10.290  0.00  0.00    +0.000 C 
BRANCH  15  19
ATOM     16  C   UNL     1      46.347   2.297   7.827  0.00  0.00    +0.000 A 
ATOM     17  C   UNL     1      46.329   3.684   7.647  0.00  0.00    +0.000 A 
ATOM     18  C   UNL     1      45.461   4.477   8.404  0.00  0.00    +0.000 A 
ATOM     19  C   UNL     1      44.610   3.891   9.352  0.00  0.00    +0.000 A 
ATOM     20  C   UNL     1      44.611   2.495   9.498  0.00  0.00    +0.000 A 
ATOM     21  C   UNL     1      45.467   1.701   8.734  0.00  0.00    +0.000 A 
BRANCH  16  23
ATOM     22  N   UNL     1      48.410   2.042   6.570  0.00  0.00    +0.000 N 
ATOM     23  C   UNL     1      47.304   1.431   7.093  0.00  0.00    +0.000 C 
ATOM     24  O   UNL     1      47.145   0.222   7.003  0.00  0.00    +0.000 OA
ATOM     25  H   UNL     1      49.119   1.429   6.190  0.00  0.00    +0.000 HD
ATOM     26  H   UNL     1      48.701   2.961   6.871  0.00  0.00    +0.000 HD
ENDBRANCH  16  23
ENDBRANCH  15  19
ENDBRANCH   1  15
TORSDOF 5
ENDMDL
MODEL 2
REMARK VINA RESULT:    -7.893      1.877      2.325
REMARK INTER + INTRA:         -11.004
REMARK INTER:                 -11.072
REMARK INTRA:                   0.068
REMARK UNBOUND:                -0.803
REMARK  Name = 
REMARK  5 active torsions:
REMARK  status: ('A' for Active; 'I' for Inactive)
REMARK    1  A    between atoms: C_2  and  C_4
REMARK    2  A    between atoms: C_7  and  C_8
REMARK    3  A    between atoms: C_8  and  C_9
REMARK    4  A    between atoms: C_9  and  C_10
REMARK    5  A    between atoms: C_13  and  C_14
REMARK                            x       y       z     vdW  Elec       q    Type
REMARK                         _______ _______ _______ _____ _____    ______ ____
ROOT
ATOM      1  C   UNL     1      43.768   4.749  11.321  0.00  0.00    +0.000 C 
ATOM      2  C   UNL     1      42.537   5.523  11.781  0.00  0.00    +0.000 C 
ATOM      3  C   UNL     1      43.504   6.185  10.850  0.00  0.00    +0.000 C 
ENDROOT
BRANCH   1   4
ATOM      4  C   UNL     1      44.986   4.672  12.236  0.00  0.00    +0.000 A 
ATOM      5  C   UNL     1      45.592   5.848  12.708  0.00  0.00    +0.000 A 
ATOM      6  C   UNL     1      46.514   5.798  13.742  0.00  0.00    +0.000 A 
ATOM      7  C   UNL     1      46.842   4.550  14.248  0.00  0.00    +0.000 A 
ATOM      8  N   UNL     1      46.384   3.371  13.737  0.00  0.00    +0.000 NA
ATOM      9  C   UNL     1      45.478   3.469  12.741  0.00  0.00    +0.000 A 
BRANCH   7  10
ATOM     10  C   UNL     1      47.664   4.458  15.489  0.00  0.00    +0.000 C 
ATOM     11  N   UNL     1      47.369   3.395  16.297  0.00  0.00    +0.000 N 
ATOM     12  O   UNL     1      48.519   5.282  15.783  0.00  0.00    +0.000 OA
ATOM     13  H   UNL     1      46.637   2.751  16.020  0.00  0.00    +0.000 HD
ATOM     14  H   UNL     1      47.863   3.280  17.170  0.00  0.00    +0.000 HD
ENDBRANCH   7  10
ENDBRANCH   1   4
BRANCH   1  15
ATOM     15  C   UNL     1      43.636   3.531  10.419  0.00  0.00    +0.000 C 
BRANCH  15  19
ATOM     16  C   UNL     1      46.617   2.668   7.427  0.00  0.00    +0.000 A 
ATOM     17  C   UNL     1      46.061   1.627   8.179  0.00  0.00    +0.000 A 
ATOM     18  C   UNL     1      45.137   1.909   9.189  0.00  0.00    +0.000 A 
ATOM     19  C   UNL     1      44.756   3.232   9.452  0.00  0.00    +0.000 A 
ATOM     20  C   UNL     1      45.346   4.271   8.717  0.00  0.00    +0.000 A 
ATOM     21  C   UNL     1      46.278   3.993   7.716  0.00  0.00    +0.000 A 
BRANCH  16  23
ATOM     22  N   UNL     1      47.322   3.095   5.142  0.00  0.00    +0.000 N 
ATOM     23  C   UNL     1      47.547   2.403   6.300  0.00  0.00    +0.000 C 
ATOM     24  O   UNL     1      48.500   1.645   6.413  0.00  0.00    +0.000 OA
ATOM     25  H   UNL     1      48.034   3.010   4.429  0.00  0.00    +0.000 HD
ATOM     26  H   UNL     1      46.736   3.917   5.120  0.00  0.00    +0.000 HD
ENDBRANCH  16  23
ENDBRANCH  15  19
ENDBRANCH   1  15
TORSDOF 5
ENDMDL
MODEL 3
REMARK VINA RESULT:    -7.531      1.914      2.129
REMARK INTER + INTRA:         -10.536
REMARK INTER:                  -9.753
REMARK INTRA:                  -0.783
REMARK UNBOUND:                -0.803
REMARK  Name = 
REMARK  5 active torsions:
REMARK  status: ('A' for Active; 'I' for Inactive)
REMARK    1  A    between atoms: C_2  and  C_4
REMARK    2  A    between atoms: C_7  and  C_8
REMARK    3  A    between atoms: C_8  and  C_9
REMARK    4  A    between atoms: C_9  and  C_10
REMARK    5  A    between atoms: C_13  and  C_14
REMARK                            x       y       z     vdW  Elec       q    Type
REMARK                         _______ _______ _______ _____ _____    ______ ____
ROOT
ATOM      1  C   UNL     1      44.858   4.832  11.812  0.00  0.00    +0.000 C 
ATOM      2  C   UNL     1      45.355   3.559  12.489  0.00  0.00    +0.000 C 
ATOM      3  C   UNL     1      44.172   4.271  13.064  0.00  0.00    +0.000 C 
ENDROOT
BRANCH   1   4
ATOM      4  C   UNL     1      45.561   6.154  12.100  0.00  0.00    +0.000 A 
ATOM      5  C   UNL     1      46.964   6.217  12.133  0.00  0.00    +0.000 A 
ATOM      6  C   UNL     1      47.614   7.441  12.121  0.00  0.00    +0.000 A 
ATOM      7  C   UNL     1      46.829   8.583  12.122  0.00  0.00    +0.000 A 
ATOM      8  N   UNL     1      45.468   8.578  12.224  0.00  0.00    +0.000 NA
ATOM      9  C   UNL     1      44.878   7.364  12.220  0.00  0.00    +0.000 A 
BRANCH   7  10
ATOM     10  C   UNL     1      47.470   9.912  11.901  0.00  0.00    +0.000 C 
ATOM     11  N   UNL     1      48.837   9.894  11.875  0.00  0.00    +0.000 N 
ATOM     12  O   UNL     1      46.830  10.947  11.780  0.00  0.00    +0.000 OA
ATOM     13  H   UNL     1      49.323   9.012  12.001  0.00  0.00    +0.000 HD
ATOM     14  H   UNL     1      49.346  10.758  11.758  0.00  0.00    +0.000 HD
ENDBRANCH   7  10
ENDBRANCH   1   4
BRANCH   1  15
ATOM     15  C   UNL     1      44.236   4.790  10.424  0.00  0.00    +0.000 C 
BRANCH  15  19
ATOM     16  C   UNL     1      46.644   2.773   7.473  0.00  0.00    +0.000 A 
ATOM     17  C   UNL     1      46.648   4.170   7.540  0.00  0.00    +0.000 A 
ATOM     18  C   UNL     1      45.825   4.830   8.457  0.00  0.00    +0.000 A 
ATOM     19  C   UNL     1      44.997   4.099   9.319  0.00  0.00    +0.000 A 
ATOM     20  C   UNL     1      44.973   2.699   9.219  0.00  0.00    +0.000 A 
ATOM     21  C   UNL     1      45.784   2.039   8.295  0.00  0.00    +0.000 A 
BRANCH  16  23
ATOM     22  N   UNL     1      48.170   2.767   5.584  0.00  0.00    +0.000 N 
ATOM     23  C   UNL     1      47.555   2.035   6.562  0.00  0.00    +0.000 C 
ATOM     24  O   UNL     1      47.791   0.844   6.706  0.00  0.00    +0.000 OA
ATOM     25  H   UNL     1      48.887   2.288   5.055  0.00  0.00    +0.000 HD
ATOM     26  H   UNL     1      48.216   3.775   5.624  0.00  0.00    +0.000 HD
ENDBRANCH  16  23
ENDBRANCH  15  19
ENDBRANCH   1  15
TORSDOF 5
ENDMDL
MODEL 4
REMARK VINA RESULT:    -7.526      2.207      6.803
REMARK INTER + INTRA:         -10.529
REMARK INTER:                 -10.040
REMARK INTRA:                  -0.489
REMARK UNBOUND:                -0.803
REMARK  Name = 
REMARK  5 active torsions:
REMARK  status: ('A' for Active; 'I' for Inactive)
REMARK    1  A    between atoms: C_2  and  C_4
REMARK    2  A    between atoms: C_7  and  C_8
REMARK    3  A    between atoms: C_8  and  C_9
REMARK    4  A    between atoms: C_9  and  C_10
REMARK    5  A    between atoms: C_13  and  C_14
REMARK                            x       y       z     vdW  Elec       q    Type
REMARK                         _______ _______ _______ _____ _____    ______ ____
ROOT
ATOM      1  C   UNL     1      44.483   4.574  11.010  0.00  0.00    +0.000 C 
ATOM      2  C   UNL     1      43.295   5.522  10.874  0.00  0.00    +0.000 C 
ATOM      3  C   UNL     1      43.058   4.126  11.360  0.00  0.00    +0.000 C 
ENDROOT
BRANCH   1   4
ATOM      4  C   UNL     1      45.012   3.857   9.773  0.00  0.00    +0.000 A 
ATOM      5  C   UNL     1      45.636   4.585   8.746  0.00  0.00    +0.000 A 
ATOM      6  C   UNL     1      46.355   3.931   7.758  0.00  0.00    +0.000 A 
ATOM      7  C   UNL     1      46.392   2.547   7.801  0.00  0.00    +0.000 A 
ATOM      8  N   UNL     1      45.695   1.789   8.698  0.00  0.00    +0.000 NA
ATOM      9  C   UNL     1      45.019   2.468   9.649  0.00  0.00    +0.000 A 
BRANCH   7  10
ATOM     10  C   UNL     1      47.316   1.810   6.891  0.00  0.00    +0.000 C 
ATOM     11  N   UNL     1      48.364   2.548   6.415  0.00  0.00    +0.000 N 
ATOM     12  O   UNL     1      47.140   0.644   6.567  0.00  0.00    +0.000 OA
ATOM     13  H   UNL     1      48.454   3.518   6.697  0.00  0.00    +0.000 HD
ATOM     14  H   UNL     1      49.018   2.129   5.770  0.00  0.00    +0.000 HD
ENDBRANCH   7  10
ENDBRANCH   1   4
BRANCH   1  15
ATOM     15  C   UNL     1      45.564   4.819  12.052  0.00  0.00    +0.000 C 
BRANCH  15  19
ATOM     16  C   UNL     1      46.883   8.915  12.306  0.00  0.00    +0.000 A 
ATOM     17  C   UNL     1      47.723   7.945  11.746  0.00  0.00    +0.000 A 
ATOM     18  C   UNL     1      47.322   6.607  11.714  0.00  0.00    +0.000 A 
ATOM     19  C   UNL     1      46.077   6.227  12.235  0.00  0.00    +0.000 A 
ATOM     20  C   UNL     1      45.259   7.201  12.827  0.00  0.00    +0.000 A 
ATOM     21  C   UNL     1      45.663   8.536  12.871  0.00  0.00    +0.000 A 
BRANCH  16  23
ATOM     22  N   UNL     1      46.219  11.244  12.121  0.00  0.00    +0.000 N 
ATOM     23  C   UNL     1      47.244  10.355  12.293  0.00  0.00    +0.000 C 
ATOM     24  O   UNL     1      48.390  10.737  12.482  0.00  0.00    +0.000 OA
ATOM     25  H   UNL     1      46.451  12.220  12.248  0.00  0.00    +0.000 HD
ATOM     26  H   UNL     1      45.254  10.973  12.251  0.00  0.00    +0.000 HD
ENDBRANCH  16  23
ENDBRANCH  15  19
ENDBRANCH   1  15
TORSDOF 5
ENDMDL
MODEL 5
REMARK VINA RESULT:    -7.158      1.353      6.536
REMARK INTER + INTRA:         -10.053
REMARK INTER:                  -9.489
REMARK INTRA:                  -0.564
REMARK UNBOUND:                -0.803
REMARK  Name = 
REMARK  5 active torsions:
REMARK  status: ('A' for Active; 'I' for Inactive)
REMARK    1  A    between atoms: C_2  and  C_4
REMARK    2  A    between atoms: C_7  and  C_8
REMARK    3  A    between atoms: C_8  and  C_9
REMARK    4  A    between atoms: C_9  and  C_10
REMARK    5  A    between atoms: C_13  and  C_14
REMARK                            x       y       z     vdW  Elec       q    Type
REMARK                         _______ _______ _______ _____ _____    ______ ____
ROOT
ATOM      1  C   UNL     1      44.399   4.496  11.221  0.00  0.00    +0.000 C 
ATOM      2  C   UNL     1      43.554   5.766  11.176  0.00  0.00    +0.000 C 
ATOM      3  C   UNL     1      42.870   4.445  11.341  0.00  0.00    +0.000 C 
ENDROOT
BRANCH   1   4
ATOM      4  C   UNL     1      44.882   3.873   9.915  0.00  0.00    +0.000 A 
ATOM      5  C   UNL     1      45.382   4.688   8.885  0.00  0.00    +0.000 A 
ATOM      6  C   UNL     1      46.068   4.130   7.818  0.00  0.00    +0.000 A 
ATOM      7  C   UNL     1      46.196   2.751   7.788  0.00  0.00    +0.000 A 
ATOM      8  N   UNL     1      45.616   1.908   8.691  0.00  0.00    +0.000 NA
ATOM      9  C   UNL     1      44.969   2.495   9.720  0.00  0.00    +0.000 A 
BRANCH   7  10
ATOM     10  C   UNL     1      47.097   2.122   6.780  0.00  0.00    +0.000 C 
ATOM     11  N   UNL     1      47.356   2.891   5.680  0.00  0.00    +0.000 N 
ATOM     12  O   UNL     1      47.550   0.993   6.907  0.00  0.00    +0.000 OA
ATOM     13  H   UNL     1      46.939   3.813   5.611  0.00  0.00    +0.000 HD
ATOM     14  H   UNL     1      47.934   2.524   4.939  0.00  0.00    +0.000 HD
ENDBRANCH   7  10
ENDBRANCH   1   4
BRANCH   1  15
ATOM     15  C   UNL     1      45.342   4.222  12.382  0.00  0.00    +0.000 C 
BRANCH  15  19
ATOM     16  C   UNL     1      48.467   7.048  13.290  0.00  0.00    +0.000 A 
ATOM     17  C   UNL     1      48.039   6.144  14.268  0.00  0.00    +0.000 A 
ATOM     18  C   UNL     1      46.987   5.265  13.996  0.00  0.00    +0.000 A 
ATOM     19  C   UNL     1      46.359   5.278  12.743  0.00  0.00    +0.000 A 
ATOM     20  C   UNL     1      46.771   6.214  11.783  0.00  0.00    +0.000 A 
ATOM     21  C   UNL     1      47.813   7.101  12.057  0.00  0.00    +0.000 A 
BRANCH  16  23
ATOM     22  N   UNL     1      50.731   7.736  12.739  0.00  0.00    +0.000 N 
ATOM     23  C   UNL     1      49.627   7.948  13.518  0.00  0.00    +0.000 C 
ATOM     24  O   UNL     1      49.584   8.868  14.322  0.00  0.00    +0.000 OA
ATOM     25  H   UNL     1      51.461   8.432  12.805  0.00  0.00    +0.000 HD
ATOM     26  H   UNL     1      50.686   7.185  11.893  0.00  0.00    +0.000 HD
ENDBRANCH  16  23
ENDBRANCH  15  19
ENDBRANCH   1  15
TORSDOF 5
ENDMDL
MODEL 6
REMARK VINA RESULT:    -6.121      3.094      4.921
REMARK INTER + INTRA:          -8.713
REMARK INTER:                  -8.574
REMARK INTRA:                  -0.139
REMARK UNBOUND:                -0.803
REMARK  Name = 
REMARK  5 active torsions:
REMARK  status: ('A' for Active; 'I' for Inactive)
REMARK    1  A    between atoms: C_2  and  C_4
REMARK    2  A    between atoms: C_7  and  C_8
REMARK    3  A    between atoms: C_8  and  C_9
REMARK    4  A    between atoms: C_9  and  C_10
REMARK    5  A    between atoms: C_13  and  C_14
REMARK                            x       y       z     vdW  Elec       q    Type
REMARK                         _______ _______ _______ _____ _____    ______ ____
ROOT
ATOM      1  C   UNL     1      47.927   7.633  13.176  0.00  0.00    +0.000 C 
ATOM      2  C   UNL     1      48.960   8.754  13.148  0.00  0.00    +0.000 C 
ATOM      3  C   UNL     1      49.083   7.630  12.168  0.00  0.00    +0.000 C 
ENDROOT
BRANCH   1   4
ATOM      4  C   UNL     1      48.069   6.511  14.200  0.00  0.00    +0.000 A 
ATOM      5  C   UNL     1      48.596   6.780  15.475  0.00  0.00    +0.000 A 
ATOM      6  C   UNL     1      48.480   5.847  16.494  0.00  0.00    +0.000 A 
ATOM      7  C   UNL     1      47.873   4.639  16.191  0.00  0.00    +0.000 A 
ATOM      8  N   UNL     1      47.466   4.277  14.940  0.00  0.00    +0.000 NA
ATOM      9  C   UNL     1      47.586   5.221  13.982  0.00  0.00    +0.000 A 
BRANCH   7  10
ATOM     10  C   UNL     1      47.539   3.691  17.294  0.00  0.00    +0.000 C 
ATOM     11  N   UNL     1      48.532   3.510  18.216  0.00  0.00    +0.000 N 
ATOM     12  O   UNL     1      46.473   3.096  17.358  0.00  0.00    +0.000 OA
ATOM     13  H   UNL     1      49.407   4.011  18.107  0.00  0.00    +0.000 HD
ATOM     14  H   UNL     1      48.393   2.862  18.978  0.00  0.00    +0.000 HD
ENDBRANCH   7  10
ENDBRANCH   1   4
BRANCH   1  15
ATOM     15  C   UNL     1      46.478   7.892  12.792  0.00  0.00    +0.000 C 
BRANCH  15  19
ATOM     16  C   UNL     1      44.427   4.485  11.129  0.00  0.00    +0.000 A 
ATOM     17  C   UNL     1      45.433   5.121  10.393  0.00  0.00    +0.000 A 
ATOM     18  C   UNL     1      46.061   6.260  10.904  0.00  0.00    +0.000 A 
ATOM     19  C   UNL     1      45.693   6.770  12.157  0.00  0.00    +0.000 A 
ATOM     20  C   UNL     1      44.658   6.147  12.870  0.00  0.00    +0.000 A 
ATOM     21  C   UNL     1      44.021   5.016  12.356  0.00  0.00    +0.000 A 
BRANCH  16  23
ATOM     22  N   UNL     1      44.150   2.795   9.406  0.00  0.00    +0.000 N 
ATOM     23  C   UNL     1      43.788   3.233  10.650  0.00  0.00    +0.000 C 
ATOM     24  O   UNL     1      43.017   2.592  11.350  0.00  0.00    +0.000 OA
ATOM     25  H   UNL     1      43.815   1.878   9.144  0.00  0.00    +0.000 HD
ATOM     26  H   UNL     1      44.978   3.140   8.942  0.00  0.00    +0.000 HD
ENDBRANCH  16  23
ENDBRANCH  15  19
ENDBRANCH   1  15
TORSDOF 5
ENDMDL
MODEL 7
REMARK VINA RESULT:    -5.988      3.304      7.066
REMARK INTER + INTRA:          -8.541
REMARK INTER:                  -8.532
REMARK INTRA:                  -0.009
REMARK UNBOUND:                -0.803
REMARK  Name = 
REMARK  5 active torsions:
REMARK  status: ('A' for Active; 'I' for Inactive)
REMARK    1  A    between atoms: C_2  and  C_4
REMARK    2  A    between atoms: C_7  and  C_8
REMARK    3  A    between atoms: C_8  and  C_9
REMARK    4  A    between atoms: C_9  and  C_10
REMARK    5  A    between atoms: C_13  and  C_14
REMARK                            x       y       z     vdW  Elec       q    Type
REMARK                         _______ _______ _______ _____ _____    ______ ____
ROOT
ATOM      1  C   UNL     1      46.505   7.670  12.390  0.00  0.00    +0.000 C 
ATOM      2  C   UNL     1      46.322   9.090  11.864  0.00  0.00    +0.000 C 
ATOM      3  C   UNL     1      45.685   8.710  13.164  0.00  0.00    +0.000 C 
ENDROOT
BRANCH   1   4
ATOM      4  C   UNL     1      45.624   6.552  11.843  0.00  0.00    +0.000 A 
ATOM      5  C   UNL     1      45.950   5.924  10.629  0.00  0.00    +0.000 A 
ATOM      6  C   UNL     1      45.328   4.741  10.260  0.00  0.00    +0.000 A 
ATOM      7  C   UNL     1      44.352   4.240  11.106  0.00  0.00    +0.000 A 
ATOM      8  N   UNL     1      43.905   4.878  12.226  0.00  0.00    +0.000 NA
ATOM      9  C   UNL     1      44.549   6.019  12.554  0.00  0.00    +0.000 A 
BRANCH   7  10
ATOM     10  C   UNL     1      43.804   2.874  10.861  0.00  0.00    +0.000 C 
ATOM     11  N   UNL     1      44.388   2.196   9.827  0.00  0.00    +0.000 N 
ATOM     12  O   UNL     1      42.882   2.401  11.512  0.00  0.00    +0.000 OA
ATOM     13  H   UNL     1      45.134   2.640   9.303  0.00  0.00    +0.000 HD
ATOM     14  H   UNL     1      44.052   1.277   9.580  0.00  0.00    +0.000 HD
ENDBRANCH   7  10
ENDBRANCH   1   4
BRANCH   1  15
ATOM     15  C   UNL     1      47.869   7.172  12.842  0.00  0.00    +0.000 C 
BRANCH  15  19
ATOM     16  C   UNL     1      47.806   4.763  16.416  0.00  0.00    +0.000 A 
ATOM     17  C   UNL     1      48.567   5.937  16.379  0.00  0.00    +0.000 A 
ATOM     18  C   UNL     1      48.636   6.690  15.204  0.00  0.00    +0.000 A 
ATOM     19  C   UNL     1      47.940   6.280  14.058  0.00  0.00    +0.000 A 
ATOM     20  C   UNL     1      47.210   5.082  14.095  0.00  0.00    +0.000 A 
ATOM     21  C   UNL     1      47.151   4.323  15.263  0.00  0.00    +0.000 A 
BRANCH  16  23
ATOM     22  N   UNL     1      47.518   4.686  18.827  0.00  0.00    +0.000 N 
ATOM     23  C   UNL     1      47.652   3.976  17.666  0.00  0.00    +0.000 C 
ATOM     24  O   UNL     1      47.593   2.754  17.658  0.00  0.00    +0.000 OA
ATOM     25  H   UNL     1      47.280   4.149  19.650  0.00  0.00    +0.000 HD
ATOM     26  H   UNL     1      47.279   5.667  18.824  0.00  0.00    +0.000 HD
ENDBRANCH  16  23
ENDBRANCH  15  19
ENDBRANCH   1  15
TORSDOF 5
ENDMDL
MODEL 8
REMARK VINA RESULT:    -5.907      3.995      7.298
REMARK INTER + INTRA:          -8.437
REMARK INTER:                  -7.787
REMARK INTRA:                  -0.650
REMARK UNBOUND:                -0.803
REMARK  Name = 
REMARK  5 active torsions:
REMARK  status: ('A' for Active; 'I' for Inactive)
REMARK    1  A    between atoms: C_2  and  C_4
REMARK    2  A    between atoms: C_7  and  C_8
REMARK    3  A    between atoms: C_8  and  C_9
REMARK    4  A    between atoms: C_9  and  C_10
REMARK    5  A    between atoms: C_13  and  C_14
REMARK                            x       y       z     vdW  Elec       q    Type
REMARK                         _______ _______ _______ _____ _____    ______ ____
ROOT
ATOM      1  C   UNL     1      48.152   7.845  12.654  0.00  0.00    +0.000 C 
ATOM      2  C   UNL     1      49.429   7.537  11.878  0.00  0.00    +0.000 C 
ATOM      3  C   UNL     1      48.807   8.891  11.743  0.00  0.00    +0.000 C 
ENDROOT
BRANCH   1   4
ATOM      4  C   UNL     1      46.810   7.377  12.101  0.00  0.00    +0.000 A 
ATOM      5  C   UNL     1      46.751   6.286  11.217  0.00  0.00    +0.000 A 
ATOM      6  C   UNL     1      45.537   5.683  10.925  0.00  0.00    +0.000 A 
ATOM      7  C   UNL     1      44.398   6.226  11.496  0.00  0.00    +0.000 A 
ATOM      8  N   UNL     1      44.386   7.362  12.252  0.00  0.00    +0.000 NA
ATOM      9  C   UNL     1      45.591   7.907  12.522  0.00  0.00    +0.000 A 
BRANCH   7  10
ATOM     10  C   UNL     1      43.103   5.495  11.381  0.00  0.00    +0.000 C 
ATOM     11  N   UNL     1      42.003   6.209  11.770  0.00  0.00    +0.000 N 
ATOM     12  O   UNL     1      43.025   4.336  10.997  0.00  0.00    +0.000 OA
ATOM     13  H   UNL     1      42.122   7.160  12.101  0.00  0.00    +0.000 HD
ATOM     14  H   UNL     1      41.092   5.774  11.748  0.00  0.00    +0.000 HD
ENDBRANCH   7  10
ENDBRANCH   1   4
BRANCH   1  15
ATOM     15  C   UNL     1      48.160   7.931  14.173  0.00  0.00    +0.000 C 
BRANCH  15  19
ATOM     16  C   UNL     1      48.229   4.369  16.600  0.00  0.00    +0.000 A 
ATOM     17  C   UNL     1      49.064   5.446  16.917  0.00  0.00    +0.000 A 
ATOM     18  C   UNL     1      49.087   6.579  16.100  0.00  0.00    +0.000 A 
ATOM     19  C   UNL     1      48.270   6.649  14.962  0.00  0.00    +0.000 A 
ATOM     20  C   UNL     1      47.463   5.550  14.633  0.00  0.00    +0.000 A 
ATOM     21  C   UNL     1      47.448   4.412  15.441  0.00  0.00    +0.000 A 
BRANCH  16  23
ATOM     22  N   UNL     1      46.866   2.715  17.743  0.00  0.00    +0.000 N 
ATOM     23  C   UNL     1      48.125   3.179  17.482  0.00  0.00    +0.000 C 
ATOM     24  O   UNL     1      49.115   2.605  17.913  0.00  0.00    +0.000 OA
ATOM     25  H   UNL     1      46.810   1.832  18.231  0.00  0.00    +0.000 HD
ATOM     26  H   UNL     1      46.072   2.988  17.181  0.00  0.00    +0.000 HD
ENDBRANCH  16  23
ENDBRANCH  15  19
ENDBRANCH   1  15
TORSDOF 5
ENDMDL
