MODEL 1
REMARK VINA RESULT:    -8.544      0.000      0.000
REMARK INTER + INTRA:         -13.198
REMARK INTER:                 -12.040
REMARK INTRA:                  -1.158
REMARK UNBOUND:                -1.158
REMARK  Name = 
REMARK  8 active torsions:
REMARK  status: ('A' for Active; 'I' for Inactive)
REMARK    1  A    between atoms: C_1  and  C_2
REMARK    2  A    between atoms: C_2  and  C_3
REMARK    3  A    between atoms: C_3  and  N_4
REMARK    4  A    between atoms: C_3  and  C_17
REMARK    5  A    between atoms: C_5  and  C_7
REMARK    6  A    between atoms: C_20  and  O_21
REMARK    7  A    between atoms: O_21  and  C_22
REMARK    8  A    between atoms: C_22  and  C_23
REMARK                            x       y       z     vdW  Elec       q    Type
REMARK                         _______ _______ _______ _____ _____    ______ ____
ROOT
ATOM      1  C   UNL     1      46.567   7.773  12.776  0.00  0.00    +0.000 C 
ENDROOT
BRANCH   1   2
ATOM      2  C   UNL     1      45.926   6.590  12.063  0.00  0.00    +0.000 A 
ATOM      3  C   UNL     1      46.219   6.301  10.723  0.00  0.00    +0.000 A 
ATOM      4  C   UNL     1      45.674   5.166  10.110  0.00  0.00    +0.000 A 
ATOM      5  C   UNL     1      44.851   4.299  10.831  0.00  0.00    +0.000 A 
ATOM      6  C   UNL     1      44.506   4.615  12.143  0.00  0.00    +0.000 A 
ATOM      7  C   UNL     1      45.048   5.740  12.755  0.00  0.00    +0.000 A 
BRANCH   5   8
ATOM      8  O   UNL     1      44.452   3.160  10.181  0.00  0.00    +0.000 OA
BRANCH   8   9
ATOM      9  C   UNL     1      44.358   3.299   8.755  0.00  0.00    +0.000 C 
BRANCH   9  10
ATOM     10  C   UNL     1      45.526   2.661   8.043  0.00  0.00    +0.000 A 
ATOM     11  C   UNL     1      46.195   3.317   7.014  0.00  0.00    +0.000 A 
ATOM     12  C   UNL     1      47.246   2.665   6.376  0.00  0.00    +0.000 A 
ATOM     13  C   UNL     1      47.592   1.377   6.767  0.00  0.00    +0.000 A 
ATOM     14  C   UNL     1      46.865   0.787   7.784  0.00  0.00    +0.000 A 
ATOM     15  N   UNL     1      45.843   1.393   8.424  0.00  0.00    +0.000 NA
ENDBRANCH   9  10
ENDBRANCH   8   9
ENDBRANCH   5   8
ENDBRANCH   1   2
BRANCH   1  16
ATOM     16  N   UNL     1      47.140   7.287  14.023  0.00  0.00    +0.000 N 
ATOM     17  C   UNL     1      48.394   6.766  14.166  0.00  0.00    +0.000 C 
ATOM     18  O   UNL     1      49.189   6.685  13.232  0.00  0.00    +0.000 OA
ATOM     19  H   UNL     1      46.512   7.265  14.818  0.00  0.00    +0.000 HD
BRANCH  17  20
ATOM     20  C   UNL     1      48.753   6.343  15.530  0.00  0.00    +0.000 A 
ATOM     21  C   UNL     1      49.692   7.060  16.260  0.00  0.00    +0.000 A 
ATOM     22  S   UNL     1      49.986   6.416  17.814  0.00  0.00    +0.000 S 
ATOM     23  C   UNL     1      48.907   5.128  17.549  0.00  0.00    +0.000 A 
ATOM     24  N   UNL     1      48.723   4.159  18.489  0.00  0.00    +0.000 NA
ATOM     25  C   UNL     1      47.908   3.221  18.136  0.00  0.00    +0.000 A 
ATOM     26  N   UNL     1      47.244   3.172  16.940  0.00  0.00    +0.000 N 
ATOM     27  C   UNL     1      47.323   4.178  16.010  0.00  0.00    +0.000 A 
ATOM     28  O   UNL     1      46.575   4.195  15.040  0.00  0.00    +0.000 OA
ATOM     29  C   UNL     1      48.290   5.217  16.315  0.00  0.00    +0.000 A 
ATOM     30  H   UNL     1      46.575   2.441  16.742  0.00  0.00    +0.000 HD
ENDBRANCH  17  20
ENDBRANCH   1  16
BRANCH   1  32
ATOM     31  C   UNL     1      45.325   9.828  11.883  0.00  0.00    +0.000 C 
ATOM     32  C   UNL     1      45.540   8.888  13.063  0.00  0.00    +0.000 C 
ENDBRANCH   1  32
TORSDOF 7
ENDMDL
MODEL 2
REMARK VINA RESULT:    -8.107      1.852      2.363
REMARK INTER + INTRA:         -12.582
REMARK INTER:                 -11.423
REMARK INTRA:                  -1.160
REMARK UNBOUND:                -1.158
REMARK  Name = 
REMARK  8 active torsions:
REMARK  status: ('A' for Active; 'I' for Inactive)
REMARK    1  A    between atoms: C_1  and  C_2
REMARK    2  A    between atoms: C_2  and  C_3
REMARK    3  A    between atoms: C_3  and  N_4
REMARK    4  A    between atoms: C_3  and  C_17
REMARK    5  A    between atoms: C_5  and  C_7
REMARK    6  A    between atoms: C_20  and  O_21
REMARK    7  A    between atoms: O_21  and  C_22
REMARK    8  A    between atoms: C_22  and  C_23
REMARK                            x       y       z     vdW  Elec       q    Type
REMARK                         _______ _______ _______ _____ _____    ______ ____
ROOT
ATOM      1  C   UNL     1      48.433   6.674  13.427  0.00  0.00    +0.000 C 
ENDROOT
BRANCH   1   2
ATOM      2  C   UNL     1      47.215   5.969  12.845  0.00  0.00    +0.000 A 
ATOM      3  C   UNL     1      46.482   6.530  11.790  0.00  0.00    +0.000 A 
ATOM      4  C   UNL     1      45.410   5.830  11.224  0.00  0.00    +0.000 A 
ATOM      5  C   UNL     1      45.072   4.558  11.689  0.00  0.00    +0.000 A 
ATOM      6  C   UNL     1      45.756   4.022  12.778  0.00  0.00    +0.000 A 
ATOM      7  C   UNL     1      46.823   4.714  13.340  0.00  0.00    +0.000 A 
BRANCH   5   8
ATOM      8  O   UNL     1      44.080   3.905  11.004  0.00  0.00    +0.000 OA
BRANCH   8   9
ATOM      9  C   UNL     1      44.003   4.250   9.612  0.00  0.00    +0.000 C 
BRANCH   9  10
ATOM     10  C   UNL     1      45.008   3.489   8.782  0.00  0.00    +0.000 A 
ATOM     11  C   UNL     1      45.211   2.124   8.961  0.00  0.00    +0.000 A 
ATOM     12  C   UNL     1      46.174   1.483   8.186  0.00  0.00    +0.000 A 
ATOM     13  C   UNL     1      46.914   2.218   7.268  0.00  0.00    +0.000 A 
ATOM     14  C   UNL     1      46.666   3.574   7.165  0.00  0.00    +0.000 A 
ATOM     15  N   UNL     1      45.740   4.224   7.900  0.00  0.00    +0.000 NA
ENDBRANCH   9  10
ENDBRANCH   8   9
ENDBRANCH   5   8
ENDBRANCH   1   2
BRANCH   1  16
ATOM     16  N   UNL     1      48.266   6.737  14.872  0.00  0.00    +0.000 N 
ATOM     17  C   UNL     1      49.282   6.746  15.785  0.00  0.00    +0.000 C 
ATOM     18  O   UNL     1      50.467   6.730  15.460  0.00  0.00    +0.000 OA
ATOM     19  H   UNL     1      47.312   6.685  15.208  0.00  0.00    +0.000 HD
BRANCH  17  20
ATOM     20  C   UNL     1      48.865   6.818  17.195  0.00  0.00    +0.000 A 
ATOM     21  C   UNL     1      48.441   8.024  17.738  0.00  0.00    +0.000 A 
ATOM     22  S   UNL     1      48.007   7.917  19.387  0.00  0.00    +0.000 S 
ATOM     23  C   UNL     1      48.416   6.266  19.447  0.00  0.00    +0.000 A 
ATOM     24  N   UNL     1      48.323   5.560  20.609  0.00  0.00    +0.000 NA
ATOM     25  C   UNL     1      48.706   4.330  20.519  0.00  0.00    +0.000 A 
ATOM     26  N   UNL     1      49.153   3.734  19.369  0.00  0.00    +0.000 N 
ATOM     27  C   UNL     1      49.164   4.379  18.159  0.00  0.00    +0.000 A 
ATOM     28  O   UNL     1      49.388   3.765  17.123  0.00  0.00    +0.000 OA
ATOM     29  C   UNL     1      48.826   5.790  18.216  0.00  0.00    +0.000 A 
ATOM     30  H   UNL     1      49.386   2.752  19.347  0.00  0.00    +0.000 HD
ENDBRANCH  17  20
ENDBRANCH   1  16
BRANCH   1  32
ATOM     31  C   UNL     1      49.712   8.197  11.813  0.00  0.00    +0.000 C 
ATOM     32  C   UNL     1      48.600   8.094  12.848  0.00  0.00    +0.000 C 
ENDBRANCH   1  32
TORSDOF 7
ENDMDL
MODEL 3
REMARK VINA RESULT:    -8.054      1.893      2.340
REMARK INTER + INTRA:         -12.507
REMARK INTER:                 -11.312
REMARK INTRA:                  -1.196
REMARK UNBOUND:                -1.158
REMARK  Name = 
REMARK  8 active torsions:
REMARK  status: ('A' for Active; 'I' for Inactive)
REMARK    1  A    between atoms: C_1  and  C_2
REMARK    2  A    between atoms: C_2  and  C_3
REMARK    3  A    between atoms: C_3  and  N_4
REMARK    4  A    between atoms: C_3  and  C_17
REMARK    5  A    between atoms: C_5  and  C_7
REMARK    6  A    between atoms: C_20  and  O_21
REMARK    7  A    between atoms: O_21  and  C_22
REMARK    8  A    between atoms: C_22  and  C_23
REMARK                            x       y       z     vdW  Elec       q    Type
REMARK                         _______ _______ _______ _____ _____    ______ ____
ROOT
ATOM      1  C   UNL     1      47.424   6.721  13.417  0.00  0.00    +0.000 C 
ENDROOT
BRANCH   1   2
ATOM      2  C   UNL     1      46.525   5.772  12.635  0.00  0.00    +0.000 A 
ATOM      3  C   UNL     1      46.008   6.125  11.381  0.00  0.00    +0.000 A 
ATOM      4  C   UNL     1      45.244   5.208  10.649  0.00  0.00    +0.000 A 
ATOM      5  C   UNL     1      45.007   3.926  11.149  0.00  0.00    +0.000 A 
ATOM      6  C   UNL     1      45.465   3.592  12.421  0.00  0.00    +0.000 A 
ATOM      7  C   UNL     1      46.226   4.500  13.149  0.00  0.00    +0.000 A 
BRANCH   5   8
ATOM      8  O   UNL     1      44.342   3.064  10.317  0.00  0.00    +0.000 OA
BRANCH   8   9
ATOM      9  C   UNL     1      44.415   3.416   8.926  0.00  0.00    +0.000 C 
BRANCH   9  10
ATOM     10  C   UNL     1      45.575   2.745   8.231  0.00  0.00    +0.000 A 
ATOM     11  C   UNL     1      46.389   3.441   7.342  0.00  0.00    +0.000 A 
ATOM     12  C   UNL     1      47.424   2.761   6.709  0.00  0.00    +0.000 A 
ATOM     13  C   UNL     1      47.612   1.408   6.965  0.00  0.00    +0.000 A 
ATOM     14  C   UNL     1      46.748   0.784   7.845  0.00  0.00    +0.000 A 
ATOM     15  N   UNL     1      45.736   1.415   8.476  0.00  0.00    +0.000 NA
ENDBRANCH   9  10
ENDBRANCH   8   9
ENDBRANCH   5   8
ENDBRANCH   1   2
BRANCH   1  16
ATOM     16  N   UNL     1      47.558   6.198  14.769  0.00  0.00    +0.000 N 
ATOM     17  C   UNL     1      48.699   6.227  15.518  0.00  0.00    +0.000 C 
ATOM     18  O   UNL     1      49.743   6.738  15.117  0.00  0.00    +0.000 OA
ATOM     19  H   UNL     1      46.752   5.704  15.132  0.00  0.00    +0.000 HD
BRANCH  17  20
ATOM     20  C   UNL     1      48.589   5.638  16.863  0.00  0.00    +0.000 A 
ATOM     21  C   UNL     1      48.742   4.270  17.042  0.00  0.00    +0.000 A 
ATOM     22  S   UNL     1      48.572   3.769  18.666  0.00  0.00    +0.000 S 
ATOM     23  C   UNL     1      48.240   5.356  19.182  0.00  0.00    +0.000 A 
ATOM     24  N   UNL     1      47.948   5.625  20.485  0.00  0.00    +0.000 NA
ATOM     25  C   UNL     1      47.674   6.864  20.725  0.00  0.00    +0.000 A 
ATOM     26  N   UNL     1      47.687   7.863  19.788  0.00  0.00    +0.000 N 
ATOM     27  C   UNL     1      48.075   7.652  18.490  0.00  0.00    +0.000 A 
ATOM     28  O   UNL     1      48.257   8.595  17.728  0.00  0.00    +0.000 OA
ATOM     29  C   UNL     1      48.311   6.263  18.141  0.00  0.00    +0.000 A 
ATOM     30  H   UNL     1      47.519   8.825  20.047  0.00  0.00    +0.000 HD
ENDBRANCH  17  20
ENDBRANCH   1  16
BRANCH   1  32
ATOM     31  C   UNL     1      47.909   9.235  13.335  0.00  0.00    +0.000 C 
ATOM     32  C   UNL     1      46.846   8.151  13.455  0.00  0.00    +0.000 C 
ENDBRANCH   1  32
TORSDOF 7
ENDMDL
MODEL 4
REMARK VINA RESULT:    -7.498      2.472      4.435
REMARK INTER + INTRA:         -11.724
REMARK INTER:                 -10.388
REMARK INTRA:                  -1.336
REMARK UNBOUND:                -1.158
REMARK  Name = 
REMARK  8 active torsions:
REMARK  status: ('A' for Active; 'I' for Inactive)
REMARK    1  A    between atoms: C_1  and  C_2
REMARK    2  A    between atoms: C_2  and  C_3
REMARK    3  A    between atoms: C_3  and  N_4
REMARK    4  A    between atoms: C_3  and  C_17
REMARK    5  A    between atoms: C_5  and  C_7
REMARK    6  A    between atoms: C_20  and  O_21
REMARK    7  A    between atoms: O_21  and  C_22
REMARK    8  A    between atoms: C_22  and  C_23
REMARK                            x       y       z     vdW  Elec       q    Type
REMARK                         _______ _______ _______ _____ _____    ______ ____
ROOT
ATOM      1  C   UNL     1      47.155   5.360  14.644  0.00  0.00    +0.000 C 
ENDROOT
BRANCH   1   2
ATOM      2  C   UNL     1      46.442   4.937  13.367  0.00  0.00    +0.000 A 
ATOM      3  C   UNL     1      45.984   3.624  13.188  0.00  0.00    +0.000 A 
ATOM      4  C   UNL     1      45.267   3.277  12.036  0.00  0.00    +0.000 A 
ATOM      5  C   UNL     1      44.983   4.238  11.064  0.00  0.00    +0.000 A 
ATOM      6  C   UNL     1      45.489   5.528  11.206  0.00  0.00    +0.000 A 
ATOM      7  C   UNL     1      46.199   5.875  12.350  0.00  0.00    +0.000 A 
BRANCH   5   8
ATOM      8  O   UNL     1      44.185   3.833  10.025  0.00  0.00    +0.000 OA
BRANCH   8   9
ATOM      9  C   UNL     1      44.430   2.487   9.587  0.00  0.00    +0.000 C 
BRANCH   9  10
ATOM     10  C   UNL     1      45.467   2.426   8.492  0.00  0.00    +0.000 A 
ATOM     11  C   UNL     1      45.672   3.497   7.626  0.00  0.00    +0.000 A 
ATOM     12  C   UNL     1      46.622   3.370   6.617  0.00  0.00    +0.000 A 
ATOM     13  C   UNL     1      47.329   2.181   6.488  0.00  0.00    +0.000 A 
ATOM     14  C   UNL     1      47.053   1.157   7.375  0.00  0.00    +0.000 A 
ATOM     15  N   UNL     1      46.140   1.249   8.365  0.00  0.00    +0.000 NA
ENDBRANCH   9  10
ENDBRANCH   8   9
ENDBRANCH   5   8
ENDBRANCH   1   2
BRANCH   1  16
ATOM     16  N   UNL     1      48.327   6.136  14.266  0.00  0.00    +0.000 N 
ATOM     17  C   UNL     1      48.941   7.072  15.049  0.00  0.00    +0.000 C 
ATOM     18  O   UNL     1      48.566   7.332  16.190  0.00  0.00    +0.000 OA
ATOM     19  H   UNL     1      48.645   6.018  13.312  0.00  0.00    +0.000 HD
BRANCH  17  20
ATOM     20  C   UNL     1      50.116   7.727  14.449  0.00  0.00    +0.000 A 
ATOM     21  C   UNL     1      51.355   7.646  15.071  0.00  0.00    +0.000 A 
ATOM     22  S   UNL     1      52.594   8.473  14.237  0.00  0.00    +0.000 S 
ATOM     23  C   UNL     1      51.511   9.011  13.040  0.00  0.00    +0.000 A 
ATOM     24  N   UNL     1      51.926   9.824  12.030  0.00  0.00    +0.000 NA
ATOM     25  C   UNL     1      50.989  10.188  11.219  0.00  0.00    +0.000 A 
ATOM     26  N   UNL     1      49.680   9.797  11.312  0.00  0.00    +0.000 N 
ATOM     27  C   UNL     1      49.243   8.899  12.252  0.00  0.00    +0.000 A 
ATOM     28  O   UNL     1      48.113   8.427  12.192  0.00  0.00    +0.000 OA
ATOM     29  C   UNL     1      50.233   8.522  13.244  0.00  0.00    +0.000 A 
ATOM     30  H   UNL     1      49.001  10.070  10.615  0.00  0.00    +0.000 HD
ENDBRANCH  17  20
ENDBRANCH   1  16
BRANCH   1  32
ATOM     31  C   UNL     1      47.029   4.179  16.913  0.00  0.00    +0.000 C 
ATOM     32  C   UNL     1      47.575   4.142  15.492  0.00  0.00    +0.000 C 
ENDBRANCH   1  32
TORSDOF 7
ENDMDL
MODEL 5
REMARK VINA RESULT:    -7.115      3.281      7.795
REMARK INTER + INTRA:         -11.184
REMARK INTER:                  -9.889
REMARK INTRA:                  -1.295
REMARK UNBOUND:                -1.158
REMARK  Name = 
REMARK  8 active torsions:
REMARK  status: ('A' for Active; 'I' for Inactive)
REMARK    1  A    between atoms: C_1  and  C_2
REMARK    2  A    between atoms: C_2  and  C_3
REMARK    3  A    between atoms: C_3  and  N_4
REMARK    4  A    between atoms: C_3  and  C_17
REMARK    5  A    between atoms: C_5  and  C_7
REMARK    6  A    between atoms: C_20  and  O_21
REMARK    7  A    between atoms: O_21  and  C_22
REMARK    8  A    between atoms: C_22  and  C_23
REMARK                            x       y       z     vdW  Elec       q    Type
REMARK                         _______ _______ _______ _____ _____    ______ ____
ROOT
ATOM      1  C   UNL     1      48.287   7.827  12.487  0.00  0.00    +0.000 C 
ENDROOT
BRANCH   1   2
ATOM      2  C   UNL     1      48.799   7.260  13.805  0.00  0.00    +0.000 A 
ATOM      3  C   UNL     1      50.025   7.670  14.347  0.00  0.00    +0.000 A 
ATOM      4  C   UNL     1      50.441   7.189  15.595  0.00  0.00    +0.000 A 
ATOM      5  C   UNL     1      49.631   6.314  16.321  0.00  0.00    +0.000 A 
ATOM      6  C   UNL     1      48.442   5.854  15.759  0.00  0.00    +0.000 A 
ATOM      7  C   UNL     1      48.026   6.332  14.522  0.00  0.00    +0.000 A 
BRANCH   5   8
ATOM      8  O   UNL     1      50.070   5.982  17.577  0.00  0.00    +0.000 OA
BRANCH   8   9
ATOM      9  C   UNL     1      49.574   4.723  18.058  0.00  0.00    +0.000 C 
BRANCH   9  10
ATOM     10  C   UNL     1      50.590   3.617  17.906  0.00  0.00    +0.000 A 
ATOM     11  C   UNL     1      50.247   2.388  17.349  0.00  0.00    +0.000 A 
ATOM     12  C   UNL     1      51.220   1.397  17.263  0.00  0.00    +0.000 A 
ATOM     13  C   UNL     1      52.499   1.649  17.744  0.00  0.00    +0.000 A 
ATOM     14  C   UNL     1      52.755   2.888  18.301  0.00  0.00    +0.000 A 
ATOM     15  N   UNL     1      51.834   3.870  18.398  0.00  0.00    +0.000 NA
ENDBRANCH   9  10
ENDBRANCH   8   9
ENDBRANCH   5   8
ENDBRANCH   1   2
BRANCH   1  16
ATOM     16  N   UNL     1      47.519   6.785  11.821  0.00  0.00    +0.000 N 
ATOM     17  C   UNL     1      46.198   6.870  11.485  0.00  0.00    +0.000 C 
ATOM     18  O   UNL     1      45.522   7.875  11.696  0.00  0.00    +0.000 OA
ATOM     19  H   UNL     1      48.000   5.905  11.679  0.00  0.00    +0.000 HD
BRANCH  17  20
ATOM     20  C   UNL     1      45.638   5.686  10.811  0.00  0.00    +0.000 A 
ATOM     21  C   UNL     1      45.777   5.532   9.438  0.00  0.00    +0.000 A 
ATOM     22  S   UNL     1      45.057   4.105   8.834  0.00  0.00    +0.000 S 
ATOM     23  C   UNL     1      44.492   3.667  10.378  0.00  0.00    +0.000 A 
ATOM     24  N   UNL     1      43.740   2.545  10.559  0.00  0.00    +0.000 NA
ATOM     25  C   UNL     1      43.344   2.359  11.774  0.00  0.00    +0.000 A 
ATOM     26  N   UNL     1      43.649   3.177  12.829  0.00  0.00    +0.000 N 
ATOM     27  C   UNL     1      44.486   4.257  12.708  0.00  0.00    +0.000 A 
ATOM     28  O   UNL     1      44.887   4.854  13.700  0.00  0.00    +0.000 OA
ATOM     29  C   UNL     1      44.892   4.566  11.349  0.00  0.00    +0.000 A 
ATOM     30  H   UNL     1      43.357   2.950  13.769  0.00  0.00    +0.000 HD
ENDBRANCH  17  20
ENDBRANCH   1  16
BRANCH   1  32
ATOM     31  C   UNL     1      49.487   9.808  11.395  0.00  0.00    +0.000 C 
ATOM     32  C   UNL     1      49.443   8.297  11.582  0.00  0.00    +0.000 C 
ENDBRANCH   1  32
TORSDOF 7
ENDMDL
MODEL 6
REMARK VINA RESULT:    -6.964      4.027      6.717
REMARK INTER + INTRA:         -10.971
REMARK INTER:                  -9.466
REMARK INTRA:                  -1.505
REMARK UNBOUND:                -1.158
REMARK  Name = 
REMARK  8 active torsions:
REMARK  status: ('A' for Active; 'I' for Inactive)
REMARK    1  A    between atoms: C_1  and  C_2
REMARK    2  A    between atoms: C_2  and  C_3
REMARK    3  A    between atoms: C_3  and  N_4
REMARK    4  A    between atoms: C_3  and  C_17
REMARK    5  A    between atoms: C_5  and  C_7
REMARK    6  A    between atoms: C_20  and  O_21
REMARK    7  A    between atoms: O_21  and  C_22
REMARK    8  A    between atoms: C_22  and  C_23
REMARK                            x       y       z     vdW  Elec       q    Type
REMARK                         _______ _______ _______ _____ _____    ______ ____
ROOT
ATOM      1  C   UNL     1      49.599   5.077  19.518  0.00  0.00    +0.000 C 
ENDROOT
BRANCH   1   2
ATOM      2  C   UNL     1      48.786   4.701  18.287  0.00  0.00    +0.000 A 
ATOM      3  C   UNL     1      48.632   5.590  17.214  0.00  0.00    +0.000 A 
ATOM      4  C   UNL     1      47.941   5.195  16.063  0.00  0.00    +0.000 A 
ATOM      5  C   UNL     1      47.415   3.905  15.961  0.00  0.00    +0.000 A 
ATOM      6  C   UNL     1      47.510   3.039  17.048  0.00  0.00    +0.000 A 
ATOM      7  C   UNL     1      48.199   3.428  18.191  0.00  0.00    +0.000 A 
BRANCH   5   8
ATOM      8  O   UNL     1      46.850   3.573  14.757  0.00  0.00    +0.000 OA
BRANCH   8   9
ATOM      9  C   UNL     1      46.609   4.694  13.892  0.00  0.00    +0.000 C 
BRANCH   9  10
ATOM     10  C   UNL     1      45.320   4.550  13.121  0.00  0.00    +0.000 A 
ATOM     11  C   UNL     1      44.458   5.629  12.942  0.00  0.00    +0.000 A 
ATOM     12  C   UNL     1      43.269   5.426  12.247  0.00  0.00    +0.000 A 
ATOM     13  C   UNL     1      42.965   4.160  11.764  0.00  0.00    +0.000 A 
ATOM     14  C   UNL     1      43.864   3.137  12.001  0.00  0.00    +0.000 A 
ATOM     15  N   UNL     1      45.025   3.300  12.670  0.00  0.00    +0.000 NA
ENDBRANCH   9  10
ENDBRANCH   8   9
ENDBRANCH   5   8
ENDBRANCH   1   2
BRANCH   1  16
ATOM     16  N   UNL     1      50.807   4.264  19.522  0.00  0.00    +0.000 N 
ATOM     17  C   UNL     1      51.992   4.607  18.937  0.00  0.00    +0.000 C 
ATOM     18  O   UNL     1      52.162   5.678  18.359  0.00  0.00    +0.000 OA
ATOM     19  H   UNL     1      50.714   3.339  19.924  0.00  0.00    +0.000 HD
BRANCH  17  20
ATOM     20  C   UNL     1      53.076   3.620  19.077  0.00  0.00    +0.000 A 
ATOM     21  C   UNL     1      54.205   3.923  19.828  0.00  0.00    +0.000 A 
ATOM     22  S   UNL     1      55.358   2.663  19.869  0.00  0.00    +0.000 S 
ATOM     23  C   UNL     1      54.413   1.686  18.845  0.00  0.00    +0.000 A 
ATOM     24  N   UNL     1      54.853   0.464  18.436  0.00  0.00    +0.000 NA
ATOM     25  C   UNL     1      54.054  -0.149  17.628  0.00  0.00    +0.000 A 
ATOM     26  N   UNL     1      52.845   0.338  17.208  0.00  0.00    +0.000 N 
ATOM     27  C   UNL     1      52.320   1.515  17.676  0.00  0.00    +0.000 A 
ATOM     28  O   UNL     1      51.161   1.828  17.428  0.00  0.00    +0.000 OA
ATOM     29  C   UNL     1      53.211   2.289  18.520  0.00  0.00    +0.000 A 
ATOM     30  H   UNL     1      52.236  -0.212  16.618  0.00  0.00    +0.000 HD
ENDBRANCH  17  20
ENDBRANCH   1  16
BRANCH   1  32
ATOM     31  C   UNL     1      47.689   5.870  21.029  0.00  0.00    +0.000 C 
ATOM     32  C   UNL     1      48.801   4.851  20.818  0.00  0.00    +0.000 C 
ENDBRANCH   1  32
TORSDOF 7
ENDMDL
MODEL 7
REMARK VINA RESULT:    -6.958      4.556      8.484
REMARK INTER + INTRA:         -10.962
REMARK INTER:                 -10.290
REMARK INTRA:                  -0.673
REMARK UNBOUND:                -1.158
REMARK  Name = 
REMARK  8 active torsions:
REMARK  status: ('A' for Active; 'I' for Inactive)
REMARK    1  A    between atoms: C_1  and  C_2
REMARK    2  A    between atoms: C_2  and  C_3
REMARK    3  A    between atoms: C_3  and  N_4
REMARK    4  A    between atoms: C_3  and  C_17
REMARK    5  A    between atoms: C_5  and  C_7
REMARK    6  A    between atoms: C_20  and  O_21
REMARK    7  A    between atoms: O_21  and  C_22
REMARK    8  A    between atoms: C_22  and  C_23
REMARK                            x       y       z     vdW  Elec       q    Type
REMARK                         _______ _______ _______ _____ _____    ______ ____
ROOT
ATOM      1  C   UNL     1      48.487   5.758  17.448  0.00  0.00    +0.000 C 
ENDROOT
BRANCH   1   2
ATOM      2  C   UNL     1      49.360   4.510  17.455  0.00  0.00    +0.000 A 
ATOM      3  C   UNL     1      48.819   3.240  17.210  0.00  0.00    +0.000 A 
ATOM      4  C   UNL     1      49.653   2.117  17.150  0.00  0.00    +0.000 A 
ATOM      5  C   UNL     1      51.034   2.252  17.312  0.00  0.00    +0.000 A 
ATOM      6  C   UNL     1      51.569   3.501  17.618  0.00  0.00    +0.000 A 
ATOM      7  C   UNL     1      50.743   4.618  17.676  0.00  0.00    +0.000 A 
BRANCH   5   8
ATOM      8  O   UNL     1      51.780   1.117  17.130  0.00  0.00    +0.000 OA
BRANCH   8   9
ATOM      9  C   UNL     1      53.154   1.247  17.528  0.00  0.00    +0.000 C 
BRANCH   9  10
ATOM     10  C   UNL     1      53.852  -0.090  17.603  0.00  0.00    +0.000 A 
ATOM     11  C   UNL     1      54.582  -0.588  16.528  0.00  0.00    +0.000 A 
ATOM     12  C   UNL     1      55.179  -1.840  16.647  0.00  0.00    +0.000 A 
ATOM     13  C   UNL     1      55.021  -2.565  17.822  0.00  0.00    +0.000 A 
ATOM     14  C   UNL     1      54.264  -2.009  18.836  0.00  0.00    +0.000 A 
ATOM     15  N   UNL     1      53.674  -0.798  18.753  0.00  0.00    +0.000 NA
ENDBRANCH   9  10
ENDBRANCH   8   9
ENDBRANCH   5   8
ENDBRANCH   1   2
BRANCH   1  16
ATOM     16  N   UNL     1      47.786   5.807  16.173  0.00  0.00    +0.000 N 
ATOM     17  C   UNL     1      48.333   6.197  14.985  0.00  0.00    +0.000 C 
ATOM     18  O   UNL     1      49.512   6.527  14.874  0.00  0.00    +0.000 OA
ATOM     19  H   UNL     1      46.792   5.611  16.209  0.00  0.00    +0.000 HD
BRANCH  17  20
ATOM     20  C   UNL     1      47.424   6.160  13.827  0.00  0.00    +0.000 A 
ATOM     21  C   UNL     1      47.125   7.326  13.135  0.00  0.00    +0.000 A 
ATOM     22  S   UNL     1      46.049   7.091  11.830  0.00  0.00    +0.000 S 
ATOM     23  C   UNL     1      45.906   5.430  12.172  0.00  0.00    +0.000 A 
ATOM     24  N   UNL     1      45.078   4.630  11.442  0.00  0.00    +0.000 NA
ATOM     25  C   UNL     1      45.036   3.402  11.840  0.00  0.00    +0.000 A 
ATOM     26  N   UNL     1      45.761   2.894  12.884  0.00  0.00    +0.000 N 
ATOM     27  C   UNL     1      46.680   3.640  13.577  0.00  0.00    +0.000 A 
ATOM     28  O   UNL     1      47.444   3.111  14.376  0.00  0.00    +0.000 OA
ATOM     29  C   UNL     1      46.708   5.050  13.232  0.00  0.00    +0.000 A 
ATOM     30  H   UNL     1      45.729   1.911  13.114  0.00  0.00    +0.000 HD
ENDBRANCH  17  20
ENDBRANCH   1  16
BRANCH   1  32
ATOM     31  C   UNL     1      49.040   7.749  18.962  0.00  0.00    +0.000 C 
ATOM     32  C   UNL     1      49.323   7.039  17.644  0.00  0.00    +0.000 C 
ENDBRANCH   1  32
TORSDOF 7
ENDMDL
MODEL 8
REMARK VINA RESULT:    -6.736      2.842      7.833
REMARK INTER + INTRA:         -10.649
REMARK INTER:                  -9.356
REMARK INTRA:                  -1.294
REMARK UNBOUND:                -1.158
REMARK  Name = 
REMARK  8 active torsions:
REMARK  status: ('A' for Active; 'I' for Inactive)
REMARK    1  A    between atoms: C_1  and  C_2
REMARK    2  A    between atoms: C_2  and  C_3
REMARK    3  A    between atoms: C_3  and  N_4
REMARK    4  A    between atoms: C_3  and  C_17
REMARK    5  A    between atoms: C_5  and  C_7
REMARK    6  A    between atoms: C_20  and  O_21
REMARK    7  A    between atoms: O_21  and  C_22
REMARK    8  A    between atoms: C_22  and  C_23
REMARK                            x       y       z     vdW  Elec       q    Type
REMARK                         _______ _______ _______ _____ _____    ______ ____
ROOT
ATOM      1  C   UNL     1      47.658   8.245  12.809  0.00  0.00    +0.000 C 
ENDROOT
BRANCH   1   2
ATOM      2  C   UNL     1      48.382   8.079  14.139  0.00  0.00    +0.000 A 
ATOM      3  C   UNL     1      47.988   8.794  15.279  0.00  0.00    +0.000 A 
ATOM      4  C   UNL     1      48.622   8.570  16.507  0.00  0.00    +0.000 A 
ATOM      5  C   UNL     1      49.639   7.619  16.615  0.00  0.00    +0.000 A 
ATOM      6  C   UNL     1      50.077   6.952  15.474  0.00  0.00    +0.000 A 
ATOM      7  C   UNL     1      49.447   7.170  14.254  0.00  0.00    +0.000 A 
BRANCH   5   8
ATOM      8  O   UNL     1      50.125   7.393  17.876  0.00  0.00    +0.000 OA
BRANCH   8   9
ATOM      9  C   UNL     1      49.229   6.664  18.729  0.00  0.00    +0.000 C 
BRANCH   9  10
ATOM     10  C   UNL     1      48.940   5.280  18.199  0.00  0.00    +0.000 A 
ATOM     11  C   UNL     1      49.961   4.358  17.984  0.00  0.00    +0.000 A 
ATOM     12  C   UNL     1      49.635   3.108  17.466  0.00  0.00    +0.000 A 
ATOM     13  C   UNL     1      48.311   2.816  17.163  0.00  0.00    +0.000 A 
ATOM     14  C   UNL     1      47.359   3.794  17.386  0.00  0.00    +0.000 A 
ATOM     15  N   UNL     1      47.642   5.014  17.889  0.00  0.00    +0.000 NA
ENDBRANCH   9  10
ENDBRANCH   8   9
ENDBRANCH   5   8
ENDBRANCH   1   2
BRANCH   1  16
ATOM     16  N   UNL     1      46.771   7.103  12.637  0.00  0.00    +0.000 N 
ATOM     17  C   UNL     1      45.574   7.125  11.981  0.00  0.00    +0.000 C 
ATOM     18  O   UNL     1      45.134   8.135  11.436  0.00  0.00    +0.000 OA
ATOM     19  H   UNL     1      47.044   6.256  13.121  0.00  0.00    +0.000 HD
BRANCH  17  20
ATOM     20  C   UNL     1      44.854   5.841  11.934  0.00  0.00    +0.000 A 
ATOM     21  C   UNL     1      44.078   5.435  13.011  0.00  0.00    +0.000 A 
ATOM     22  S   UNL     1      43.328   3.917  12.781  0.00  0.00    +0.000 S 
ATOM     23  C   UNL     1      44.053   3.726  11.253  0.00  0.00    +0.000 A 
ATOM     24  N   UNL     1      43.860   2.595  10.520  0.00  0.00    +0.000 NA
ATOM     25  C   UNL     1      44.504   2.567   9.400  0.00  0.00    +0.000 A 
ATOM     26  N   UNL     1      45.306   3.576   8.936  0.00  0.00    +0.000 N 
ATOM     27  C   UNL     1      45.444   4.772   9.594  0.00  0.00    +0.000 A 
ATOM     28  O   UNL     1      46.013   5.718   9.063  0.00  0.00    +0.000 OA
ATOM     29  C   UNL     1      44.812   4.827  10.900  0.00  0.00    +0.000 A 
ATOM     30  H   UNL     1      45.740   3.522   8.026  0.00  0.00    +0.000 HD
ENDBRANCH  17  20
ENDBRANCH   1  16
BRANCH   1  32
ATOM     31  C   UNL     1      49.165   9.743  11.379  0.00  0.00    +0.000 C 
ATOM     32  C   UNL     1      48.648   8.332  11.630  0.00  0.00    +0.000 C 
ENDBRANCH   1  32
TORSDOF 7
ENDMDL
MODEL 9
REMARK VINA RESULT:    -6.575      3.432      7.493
REMARK INTER + INTRA:         -10.423
REMARK INTER:                  -8.344
REMARK INTRA:                  -2.079
REMARK UNBOUND:                -1.158
REMARK  Name = 
REMARK  8 active torsions:
REMARK  status: ('A' for Active; 'I' for Inactive)
REMARK    1  A    between atoms: C_1  and  C_2
REMARK    2  A    between atoms: C_2  and  C_3
REMARK    3  A    between atoms: C_3  and  N_4
REMARK    4  A    between atoms: C_3  and  C_17
REMARK    5  A    between atoms: C_5  and  C_7
REMARK    6  A    between atoms: C_20  and  O_21
REMARK    7  A    between atoms: O_21  and  C_22
REMARK    8  A    between atoms: C_22  and  C_23
REMARK                            x       y       z     vdW  Elec       q    Type
REMARK                         _______ _______ _______ _____ _____    ______ ____
ROOT
ATOM      1  C   UNL     1      48.978   8.860  13.432  0.00  0.00    +0.000 C 
ENDROOT
BRANCH   1   2
ATOM      2  C   UNL     1      49.373   8.400  14.829  0.00  0.00    +0.000 A 
ATOM      3  C   UNL     1      48.706   8.873  15.968  0.00  0.00    +0.000 A 
ATOM      4  C   UNL     1      49.039   8.381  17.236  0.00  0.00    +0.000 A 
ATOM      5  C   UNL     1      50.024   7.401  17.378  0.00  0.00    +0.000 A 
ATOM      6  C   UNL     1      50.733   6.974  16.258  0.00  0.00    +0.000 A 
ATOM      7  C   UNL     1      50.402   7.459  14.997  0.00  0.00    +0.000 A 
BRANCH   5   8
ATOM      8  O   UNL     1      50.206   6.903  18.642  0.00  0.00    +0.000 OA
BRANCH   8   9
ATOM      9  C   UNL     1      49.056   6.231  19.180  0.00  0.00    +0.000 C 
BRANCH   9  10
ATOM     10  C   UNL     1      48.719   4.977  18.411  0.00  0.00    +0.000 A 
ATOM     11  C   UNL     1      49.657   3.964  18.229  0.00  0.00    +0.000 A 
ATOM     12  C   UNL     1      49.296   2.845  17.484  0.00  0.00    +0.000 A 
ATOM     13  C   UNL     1      48.024   2.771  16.931  0.00  0.00    +0.000 A 
ATOM     14  C   UNL     1      47.158   3.828  17.141  0.00  0.00    +0.000 A 
ATOM     15  N   UNL     1      47.476   4.926  17.859  0.00  0.00    +0.000 NA
ENDBRANCH   9  10
ENDBRANCH   8   9
ENDBRANCH   5   8
ENDBRANCH   1   2
BRANCH   1  16
ATOM     16  N   UNL     1      47.998   7.917  12.911  0.00  0.00    +0.000 N 
ATOM     17  C   UNL     1      46.643   8.088  12.942  0.00  0.00    +0.000 C 
ATOM     18  O   UNL     1      46.112   9.097  13.400  0.00  0.00    +0.000 OA
ATOM     19  H   UNL     1      48.368   7.034  12.580  0.00  0.00    +0.000 HD
BRANCH  17  20
ATOM     20  C   UNL     1      45.854   6.996  12.349  0.00  0.00    +0.000 A 
ATOM     21  C   UNL     1      44.829   7.279  11.455  0.00  0.00    +0.000 A 
ATOM     22  S   UNL     1      44.019   5.889  10.881  0.00  0.00    +0.000 S 
ATOM     23  C   UNL     1      44.976   4.862  11.843  0.00  0.00    +0.000 A 
ATOM     24  N   UNL     1      44.765   3.516  11.861  0.00  0.00    +0.000 NA
ATOM     25  C   UNL     1      45.535   2.866  12.668  0.00  0.00    +0.000 A 
ATOM     26  N   UNL     1      46.512   3.433  13.442  0.00  0.00    +0.000 N 
ATOM     27  C   UNL     1      46.825   4.767  13.376  0.00  0.00    +0.000 A 
ATOM     28  O   UNL     1      47.822   5.206  13.937  0.00  0.00    +0.000 OA
ATOM     29  C   UNL     1      45.935   5.563  12.551  0.00  0.00    +0.000 A 
ATOM     30  H   UNL     1      47.122   2.866  14.013  0.00  0.00    +0.000 HD
ENDBRANCH  17  20
ENDBRANCH   1  16
BRANCH   1  32
ATOM     31  C   UNL     1      50.162   7.895  11.376  0.00  0.00    +0.000 C 
ATOM     32  C   UNL     1      50.197   8.933  12.491  0.00  0.00    +0.000 C 
ENDBRANCH   1  32
TORSDOF 7
ENDMDL
