MODEL 1
REMARK VINA RESULT:    -7.437      0.000      0.000
REMARK INTER + INTRA:         -10.166
REMARK INTER:                  -9.611
REMARK INTRA:                  -0.555
REMARK UNBOUND:                -0.555
REMARK  Name = 
REMARK  5 active torsions:
REMARK  status: ('A' for Active; 'I' for Inactive)
REMARK    1  A    between atoms: C_2  and  C_18
REMARK    2  A    between atoms: N_3  and  C_4
REMARK    3  A    between atoms: C_4  and  C_5
REMARK    4  A    between atoms: C_8  and  C_9
REMARK    5  A    between atoms: C_9  and  N_10
REMARK                            x       y       z     vdW  Elec       q    Type
REMARK                         _______ _______ _______ _____ _____    ______ ____
ROOT
ATOM      1  O   UNL     1      49.688   6.683  14.280  0.00  0.00    +0.000 OA
ATOM      2  C   UNL     1      48.720   6.839  15.009  0.00  0.00    +0.000 C 
ATOM      3  N   UNL     1      47.534   7.366  14.572  0.00  0.00    +0.000 N 
ATOM      4  H   UNL     1      46.696   7.269  15.124  0.00  0.00    +0.000 HD
ENDROOT
BRANCH   2   5
ATOM      5  C   UNL     1      48.782   6.540  16.435  0.00  0.00    +0.000 A 
ATOM      6  C   UNL     1      49.344   7.368  17.392  0.00  0.00    +0.000 A 
ATOM      7  S   UNL     1      49.584   6.565  18.889  0.00  0.00    +0.000 S 
ATOM      8  C   UNL     1      48.889   5.126  18.295  0.00  0.00    +0.000 A 
ATOM      9  N   UNL     1      48.856   3.980  19.027  0.00  0.00    +0.000 NA
ATOM     10  C   UNL     1      48.268   2.992  18.434  0.00  0.00    +0.000 A 
ATOM     11  N   UNL     1      47.671   3.057  17.198  0.00  0.00    +0.000 N 
ATOM     12  C   UNL     1      47.613   4.217  16.457  0.00  0.00    +0.000 A 
ATOM     13  O   UNL     1      46.885   4.314  15.476  0.00  0.00    +0.000 OA
ATOM     14  C   UNL     1      48.385   5.298  17.024  0.00  0.00    +0.000 A 
ATOM     15  H   UNL     1      47.132   2.282  16.841  0.00  0.00    +0.000 HD
ENDBRANCH   2   5
BRANCH   3  16
ATOM     16  C   UNL     1      47.412   7.758  13.179  0.00  0.00    +0.000 C 
BRANCH  16  17
ATOM     17  C   UNL     1      46.437   6.889  12.427  0.00  0.00    +0.000 A 
ATOM     18  N   UNL     1      45.409   7.491  11.798  0.00  0.00    +0.000 NA
ATOM     19  C   UNL     1      44.528   6.681  11.177  0.00  0.00    +0.000 A 
ATOM     20  C   UNL     1      44.624   5.306  11.174  0.00  0.00    +0.000 A 
ATOM     21  C   UNL     1      45.698   4.795  11.872  0.00  0.00    +0.000 A 
ATOM     22  N   UNL     1      46.607   5.554  12.513  0.00  0.00    +0.000 NA
BRANCH  20  23
ATOM     23  C   UNL     1      43.621   4.427  10.497  0.00  0.00    +0.000 C 
BRANCH  23  24
ATOM     24  N   UNL     1      44.144   3.707   9.316  0.00  0.00    +0.000 NA
ATOM     25  C   UNL     1      45.252   4.455   8.692  0.00  0.00    +0.000 C 
ATOM     26  C   UNL     1      45.950   3.678   7.572  0.00  0.00    +0.000 C 
ATOM     27  C   UNL     1      46.421   2.317   8.064  0.00  0.00    +0.000 C 
ATOM     28  C   UNL     1      45.235   1.552   8.630  0.00  0.00    +0.000 C 
ATOM     29  C   UNL     1      44.549   2.352   9.735  0.00  0.00    +0.000 C 
ENDBRANCH  23  24
ENDBRANCH  20  23
ENDBRANCH  16  17
ENDBRANCH   3  16
TORSDOF 5
ENDMDL
MODEL 2
REMARK VINA RESULT:    -7.374      1.344      1.560
REMARK INTER + INTRA:         -10.084
REMARK INTER:                  -9.781
REMARK INTRA:                  -0.304
REMARK UNBOUND:                -0.555
REMARK  Name = 
REMARK  5 active torsions:
REMARK  status: ('A' for Active; 'I' for Inactive)
REMARK    1  A    between atoms: C_2  and  C_18
REMARK    2  A    between atoms: N_3  and  C_4
REMARK    3  A    between atoms: C_4  and  C_5
REMARK    4  A    between atoms: C_8  and  C_9
REMARK    5  A    between atoms: C_9  and  N_10
REMARK                            x       y       z     vdW  Elec       q    Type
REMARK                         _______ _______ _______ _____ _____    ______ ____
ROOT
ATOM      1  O   UNL     1      50.145   6.276  15.889  0.00  0.00    +0.000 OA
ATOM      2  C   UNL     1      48.981   6.553  16.135  0.00  0.00    +0.000 C 
ATOM      3  N   UNL     1      48.023   6.679  15.165  0.00  0.00    +0.000 N 
ATOM      4  H   UNL     1      47.044   6.678  15.408  0.00  0.00    +0.000 HD
ENDROOT
BRANCH   2   5
ATOM      5  C   UNL     1      48.537   6.849  17.492  0.00  0.00    +0.000 A 
ATOM      6  C   UNL     1      48.302   8.121  17.987  0.00  0.00    +0.000 A 
ATOM      7  S   UNL     1      48.157   8.139  19.696  0.00  0.00    +0.000 S 
ATOM      8  C   UNL     1      48.350   6.447  19.789  0.00  0.00    +0.000 A 
ATOM      9  N   UNL     1      48.426   5.790  20.977  0.00  0.00    +0.000 NA
ATOM     10  C   UNL     1      48.543   4.507  20.863  0.00  0.00    +0.000 A 
ATOM     11  N   UNL     1      48.547   3.818  19.674  0.00  0.00    +0.000 N 
ATOM     12  C   UNL     1      48.393   4.437  18.453  0.00  0.00    +0.000 A 
ATOM     13  O   UNL     1      48.169   3.794  17.433  0.00  0.00    +0.000 OA
ATOM     14  C   UNL     1      48.406   5.878  18.535  0.00  0.00    +0.000 A 
ATOM     15  H   UNL     1      48.528   2.809  19.659  0.00  0.00    +0.000 HD
ENDBRANCH   2   5
BRANCH   3  16
ATOM     16  C   UNL     1      48.398   6.471  13.778  0.00  0.00    +0.000 C 
BRANCH  16  17
ATOM     17  C   UNL     1      47.232   6.027  12.933  0.00  0.00    +0.000 A 
ATOM     18  N   UNL     1      46.803   6.855  11.961  0.00  0.00    +0.000 NA
ATOM     19  C   UNL     1      45.728   6.449  11.258  0.00  0.00    +0.000 A 
ATOM     20  C   UNL     1      45.059   5.267  11.496  0.00  0.00    +0.000 A 
ATOM     21  C   UNL     1      45.565   4.510  12.533  0.00  0.00    +0.000 A 
ATOM     22  N   UNL     1      46.633   4.866  13.270  0.00  0.00    +0.000 NA
BRANCH  20  23
ATOM     23  C   UNL     1      43.853   4.849  10.717  0.00  0.00    +0.000 C 
BRANCH  23  24
ATOM     24  N   UNL     1      44.154   4.008   9.539  0.00  0.00    +0.000 NA
ATOM     25  C   UNL     1      45.344   4.508   8.824  0.00  0.00    +0.000 C 
ATOM     26  C   UNL     1      45.808   3.579   7.699  0.00  0.00    +0.000 C 
ATOM     27  C   UNL     1      46.038   2.167   8.218  0.00  0.00    +0.000 C 
ATOM     28  C   UNL     1      44.765   1.663   8.879  0.00  0.00    +0.000 C 
ATOM     29  C   UNL     1      44.316   2.612   9.988  0.00  0.00    +0.000 C 
ENDBRANCH  23  24
ENDBRANCH  20  23
ENDBRANCH  16  17
ENDBRANCH   3  16
TORSDOF 5
ENDMDL
MODEL 3
REMARK VINA RESULT:    -7.138      2.460      4.078
REMARK INTER + INTRA:          -9.780
REMARK INTER:                  -9.526
REMARK INTRA:                  -0.254
REMARK UNBOUND:                -0.555
REMARK  Name = 
REMARK  5 active torsions:
REMARK  status: ('A' for Active; 'I' for Inactive)
REMARK    1  A    between atoms: C_2  and  C_18
REMARK    2  A    between atoms: N_3  and  C_4
REMARK    3  A    between atoms: C_4  and  C_5
REMARK    4  A    between atoms: C_8  and  C_9
REMARK    5  A    between atoms: C_9  and  N_10
REMARK                            x       y       z     vdW  Elec       q    Type
REMARK                         _______ _______ _______ _____ _____    ______ ____
ROOT
ATOM      1  O   UNL     1      48.741   5.420  15.626  0.00  0.00    +0.000 OA
ATOM      2  C   UNL     1      48.180   6.327  15.029  0.00  0.00    +0.000 C 
ATOM      3  N   UNL     1      47.105   6.125  14.205  0.00  0.00    +0.000 N 
ATOM      4  H   UNL     1      46.529   6.900  13.915  0.00  0.00    +0.000 HD
ENDROOT
BRANCH   2   5
ATOM      5  C   UNL     1      48.669   7.699  15.091  0.00  0.00    +0.000 A 
ATOM      6  C   UNL     1      48.819   8.432  16.256  0.00  0.00    +0.000 A 
ATOM      7  S   UNL     1      49.052  10.104  15.949  0.00  0.00    +0.000 S 
ATOM      8  C   UNL     1      49.013   9.859  14.262  0.00  0.00    +0.000 A 
ATOM      9  N   UNL     1      49.058  10.892  13.378  0.00  0.00    +0.000 NA
ATOM     10  C   UNL     1      49.047  10.524  12.137  0.00  0.00    +0.000 A 
ATOM     11  N   UNL     1      49.040   9.222  11.701  0.00  0.00    +0.000 N 
ATOM     12  C   UNL     1      49.074   8.146  12.561  0.00  0.00    +0.000 A 
ATOM     13  O   UNL     1      49.299   7.011  12.158  0.00  0.00    +0.000 OA
ATOM     14  C   UNL     1      48.940   8.519  13.950  0.00  0.00    +0.000 A 
ATOM     15  H   UNL     1      49.146   9.002  10.722  0.00  0.00    +0.000 HD
ENDBRANCH   2   5
BRANCH   3  16
ATOM     16  C   UNL     1      46.600   4.775  14.029  0.00  0.00    +0.000 C 
BRANCH  16  17
ATOM     17  C   UNL     1      46.012   4.561  12.658  0.00  0.00    +0.000 A 
ATOM     18  N   UNL     1      46.123   5.560  11.760  0.00  0.00    +0.000 NA
ATOM     19  C   UNL     1      45.543   5.354  10.560  0.00  0.00    +0.000 A 
ATOM     20  C   UNL     1      44.848   4.210  10.232  0.00  0.00    +0.000 A 
ATOM     21  C   UNL     1      44.773   3.266  11.235  0.00  0.00    +0.000 A 
ATOM     22  N   UNL     1      45.329   3.417  12.451  0.00  0.00    +0.000 NA
BRANCH  20  23
ATOM     23  C   UNL     1      44.194   4.016   8.901  0.00  0.00    +0.000 C 
BRANCH  23  24
ATOM     24  N   UNL     1      44.927   3.109   7.991  0.00  0.00    +0.000 NA
ATOM     25  C   UNL     1      45.982   3.836   7.261  0.00  0.00    +0.000 C 
ATOM     26  C   UNL     1      46.888   2.918   6.435  0.00  0.00    +0.000 C 
ATOM     27  C   UNL     1      47.485   1.819   7.302  0.00  0.00    +0.000 C 
ATOM     28  C   UNL     1      46.361   1.048   7.976  0.00  0.00    +0.000 C 
ATOM     29  C   UNL     1      45.465   1.986   8.782  0.00  0.00    +0.000 C 
ENDBRANCH  23  24
ENDBRANCH  20  23
ENDBRANCH  16  17
ENDBRANCH   3  16
TORSDOF 5
ENDMDL
MODEL 4
REMARK VINA RESULT:    -7.039      3.848      8.992
REMARK INTER + INTRA:          -9.652
REMARK INTER:                  -8.997
REMARK INTRA:                  -0.655
REMARK UNBOUND:                -0.555
REMARK  Name = 
REMARK  5 active torsions:
REMARK  status: ('A' for Active; 'I' for Inactive)
REMARK    1  A    between atoms: C_2  and  C_18
REMARK    2  A    between atoms: N_3  and  C_4
REMARK    3  A    between atoms: C_4  and  C_5
REMARK    4  A    between atoms: C_8  and  C_9
REMARK    5  A    between atoms: C_9  and  N_10
REMARK                            x       y       z     vdW  Elec       q    Type
REMARK                         _______ _______ _______ _____ _____    ______ ____
ROOT
ATOM      1  O   UNL     1      47.348   3.146  13.972  0.00  0.00    +0.000 OA
ATOM      2  C   UNL     1      46.925   4.261  14.238  0.00  0.00    +0.000 C 
ATOM      3  N   UNL     1      46.784   4.718  15.521  0.00  0.00    +0.000 N 
ATOM      4  H   UNL     1      46.657   5.702  15.703  0.00  0.00    +0.000 HD
ENDROOT
BRANCH   2   5
ATOM      5  C   UNL     1      46.463   5.171  13.197  0.00  0.00    +0.000 A 
ATOM      6  C   UNL     1      47.157   6.285  12.755  0.00  0.00    +0.000 A 
ATOM      7  S   UNL     1      46.180   7.329  11.807  0.00  0.00    +0.000 S 
ATOM      8  C   UNL     1      44.840   6.280  11.929  0.00  0.00    +0.000 A 
ATOM      9  N   UNL     1      43.619   6.603  11.423  0.00  0.00    +0.000 NA
ATOM     10  C   UNL     1      42.725   5.681  11.579  0.00  0.00    +0.000 A 
ATOM     11  N   UNL     1      42.950   4.452  12.152  0.00  0.00    +0.000 N 
ATOM     12  C   UNL     1      44.189   4.056  12.605  0.00  0.00    +0.000 A 
ATOM     13  O   UNL     1      44.420   2.888  12.897  0.00  0.00    +0.000 OA
ATOM     14  C   UNL     1      45.173   5.112  12.579  0.00  0.00    +0.000 A 
ATOM     15  H   UNL     1      42.238   3.737  12.141  0.00  0.00    +0.000 HD
ENDBRANCH   2   5
BRANCH   3  16
ATOM     16  C   UNL     1      47.154   3.846  16.621  0.00  0.00    +0.000 C 
BRANCH  16  17
ATOM     17  C   UNL     1      48.614   3.963  16.975  0.00  0.00    +0.000 A 
ATOM     18  N   UNL     1      49.167   5.192  16.981  0.00  0.00    +0.000 NA
ATOM     19  C   UNL     1      50.485   5.255  17.252  0.00  0.00    +0.000 A 
ATOM     20  C   UNL     1      51.270   4.149  17.499  0.00  0.00    +0.000 A 
ATOM     21  C   UNL     1      50.608   2.940  17.440  0.00  0.00    +0.000 A 
ATOM     22  N   UNL     1      49.295   2.816  17.171  0.00  0.00    +0.000 NA
BRANCH  20  23
ATOM     23  C   UNL     1      52.737   4.244  17.775  0.00  0.00    +0.000 C 
BRANCH  23  24
ATOM     24  N   UNL     1      53.286   3.099  18.533  0.00  0.00    +0.000 NA
ATOM     25  C   UNL     1      54.205   2.305  17.696  0.00  0.00    +0.000 C 
ATOM     26  C   UNL     1      54.940   1.211  18.475  0.00  0.00    +0.000 C 
ATOM     27  C   UNL     1      55.666   1.793  19.678  0.00  0.00    +0.000 C 
ATOM     28  C   UNL     1      54.669   2.538  20.553  0.00  0.00    +0.000 C 
ATOM     29  C   UNL     1      53.941   3.614  19.750  0.00  0.00    +0.000 C 
ENDBRANCH  23  24
ENDBRANCH  20  23
ENDBRANCH  16  17
ENDBRANCH   3  16
TORSDOF 5
ENDMDL
MODEL 5
REMARK VINA RESULT:    -7.007      3.392      8.066
REMARK INTER + INTRA:          -9.610
REMARK INTER:                  -8.686
REMARK INTRA:                  -0.924
REMARK UNBOUND:                -0.555
REMARK  Name = 
REMARK  5 active torsions:
REMARK  status: ('A' for Active; 'I' for Inactive)
REMARK    1  A    between atoms: C_2  and  C_18
REMARK    2  A    between atoms: N_3  and  C_4
REMARK    3  A    between atoms: C_4  and  C_5
REMARK    4  A    between atoms: C_8  and  C_9
REMARK    5  A    between atoms: C_9  and  N_10
REMARK                            x       y       z     vdW  Elec       q    Type
REMARK                         _______ _______ _______ _____ _____    ______ ____
ROOT
ATOM      1  O   UNL     1      45.421   7.608  11.578  0.00  0.00    +0.000 OA
ATOM      2  C   UNL     1      46.111   6.603  11.498  0.00  0.00    +0.000 C 
ATOM      3  N   UNL     1      47.354   6.504  12.065  0.00  0.00    +0.000 N 
ATOM      4  H   UNL     1      47.794   5.605  12.181  0.00  0.00    +0.000 HD
ENDROOT
BRANCH   2   5
ATOM      5  C   UNL     1      45.687   5.446  10.719  0.00  0.00    +0.000 A 
ATOM      6  C   UNL     1      45.753   5.355   9.339  0.00  0.00    +0.000 A 
ATOM      7  S   UNL     1      44.843   4.035   8.729  0.00  0.00    +0.000 S 
ATOM      8  C   UNL     1      44.400   3.538  10.299  0.00  0.00    +0.000 A 
ATOM      9  N   UNL     1      43.536   2.511  10.518  0.00  0.00    +0.000 NA
ATOM     10  C   UNL     1      43.334   2.250  11.769  0.00  0.00    +0.000 A 
ATOM     11  N   UNL     1      43.949   2.891  12.817  0.00  0.00    +0.000 N 
ATOM     12  C   UNL     1      44.889   3.882  12.638  0.00  0.00    +0.000 A 
ATOM     13  O   UNL     1      45.589   4.276  13.565  0.00  0.00    +0.000 OA
ATOM     14  C   UNL     1      45.030   4.296  11.262  0.00  0.00    +0.000 A 
ATOM     15  H   UNL     1      43.832   2.564  13.765  0.00  0.00    +0.000 HD
ENDBRANCH   2   5
BRANCH   3  16
ATOM     16  C   UNL     1      47.883   7.640  12.799  0.00  0.00    +0.000 C 
BRANCH  16  17
ATOM     17  C   UNL     1      48.601   7.222  14.056  0.00  0.00    +0.000 A 
ATOM     18  N   UNL     1      49.780   7.811  14.336  0.00  0.00    +0.000 NA
ATOM     19  C   UNL     1      50.418   7.378  15.441  0.00  0.00    +0.000 A 
ATOM     20  C   UNL     1      49.940   6.377  16.259  0.00  0.00    +0.000 A 
ATOM     21  C   UNL     1      48.740   5.824  15.863  0.00  0.00    +0.000 A 
ATOM     22  N   UNL     1      48.058   6.214  14.769  0.00  0.00    +0.000 NA
BRANCH  20  23
ATOM     23  C   UNL     1      50.679   5.898  17.468  0.00  0.00    +0.000 C 
BRANCH  23  24
ATOM     24  N   UNL     1      51.556   4.733  17.220  0.00  0.00    +0.000 NA
ATOM     25  C   UNL     1      52.880   4.929  17.840  0.00  0.00    +0.000 C 
ATOM     26  C   UNL     1      53.771   3.686  17.768  0.00  0.00    +0.000 C 
ATOM     27  C   UNL     1      53.067   2.475  18.362  0.00  0.00    +0.000 C 
ATOM     28  C   UNL     1      51.743   2.265  17.644  0.00  0.00    +0.000 C 
ATOM     29  C   UNL     1      50.878   3.522  17.719  0.00  0.00    +0.000 C 
ENDBRANCH  23  24
ENDBRANCH  20  23
ENDBRANCH  16  17
ENDBRANCH   3  16
TORSDOF 5
ENDMDL
MODEL 6
REMARK VINA RESULT:    -6.920      1.805      2.210
REMARK INTER + INTRA:          -9.497
REMARK INTER:                  -8.532
REMARK INTRA:                  -0.965
REMARK UNBOUND:                -0.555
REMARK  Name = 
REMARK  5 active torsions:
REMARK  status: ('A' for Active; 'I' for Inactive)
REMARK    1  A    between atoms: C_2  and  C_18
REMARK    2  A    between atoms: N_3  and  C_4
REMARK    3  A    between atoms: C_4  and  C_5
REMARK    4  A    between atoms: C_8  and  C_9
REMARK    5  A    between atoms: C_9  and  N_10
REMARK                            x       y       z     vdW  Elec       q    Type
REMARK                         _______ _______ _______ _____ _____    ______ ____
ROOT
ATOM      1  O   UNL     1      48.450   7.576  17.331  0.00  0.00    +0.000 OA
ATOM      2  C   UNL     1      49.304   6.943  16.729  0.00  0.00    +0.000 C 
ATOM      3  N   UNL     1      49.510   7.063  15.381  0.00  0.00    +0.000 N 
ATOM      4  H   UNL     1      50.356   6.712  14.958  0.00  0.00    +0.000 HD
ENDROOT
BRANCH   2   5
ATOM      5  C   UNL     1      50.129   5.945  17.399  0.00  0.00    +0.000 A 
ATOM      6  C   UNL     1      51.305   6.217  18.078  0.00  0.00    +0.000 A 
ATOM      7  S   UNL     1      52.204   4.796  18.419  0.00  0.00    +0.000 S 
ATOM      8  C   UNL     1      51.009   3.801  17.719  0.00  0.00    +0.000 A 
ATOM      9  N   UNL     1      51.173   2.458  17.581  0.00  0.00    +0.000 NA
ATOM     10  C   UNL     1      50.157   1.854  17.055  0.00  0.00    +0.000 A 
ATOM     11  N   UNL     1      48.977   2.462  16.697  0.00  0.00    +0.000 N 
ATOM     12  C   UNL     1      48.740   3.804  16.892  0.00  0.00    +0.000 A 
ATOM     13  O   UNL     1      47.615   4.278  16.784  0.00  0.00    +0.000 OA
ATOM     14  C   UNL     1      49.904   4.532  17.342  0.00  0.00    +0.000 A 
ATOM     15  H   UNL     1      48.183   1.916  16.397  0.00  0.00    +0.000 HD
ENDBRANCH   2   5
BRANCH   3  16
ATOM     16  C   UNL     1      48.681   7.984  14.623  0.00  0.00    +0.000 C 
BRANCH  16  17
ATOM     17  C   UNL     1      47.638   7.269  13.804  0.00  0.00    +0.000 A 
ATOM     18  N   UNL     1      46.618   7.994  13.306  0.00  0.00    +0.000 NA
ATOM     19  C   UNL     1      45.677   7.315  12.621  0.00  0.00    +0.000 A 
ATOM     20  C   UNL     1      45.705   5.950  12.430  0.00  0.00    +0.000 A 
ATOM     21  C   UNL     1      46.778   5.303  13.006  0.00  0.00    +0.000 A 
ATOM     22  N   UNL     1      47.746   5.928  13.702  0.00  0.00    +0.000 NA
BRANCH  20  23
ATOM     23  C   UNL     1      44.636   5.217  11.684  0.00  0.00    +0.000 C 
BRANCH  23  24
ATOM     24  N   UNL     1      45.145   4.291  10.649  0.00  0.00    +0.000 NA
ATOM     25  C   UNL     1      44.160   3.231  10.361  0.00  0.00    +0.000 C 
ATOM     26  C   UNL     1      44.554   2.346   9.175  0.00  0.00    +0.000 C 
ATOM     27  C   UNL     1      44.829   3.185   7.936  0.00  0.00    +0.000 C 
ATOM     28  C   UNL     1      45.902   4.214   8.256  0.00  0.00    +0.000 C 
ATOM     29  C   UNL     1      45.491   5.075   9.449  0.00  0.00    +0.000 C 
ENDBRANCH  23  24
ENDBRANCH  20  23
ENDBRANCH  16  17
ENDBRANCH   3  16
TORSDOF 5
ENDMDL
MODEL 7
REMARK VINA RESULT:    -6.914      3.015      8.206
REMARK INTER + INTRA:          -9.490
REMARK INTER:                  -8.514
REMARK INTRA:                  -0.976
REMARK UNBOUND:                -0.555
REMARK  Name = 
REMARK  5 active torsions:
REMARK  status: ('A' for Active; 'I' for Inactive)
REMARK    1  A    between atoms: C_2  and  C_18
REMARK    2  A    between atoms: N_3  and  C_4
REMARK    3  A    between atoms: C_4  and  C_5
REMARK    4  A    between atoms: C_8  and  C_9
REMARK    5  A    between atoms: C_9  and  N_10
REMARK                            x       y       z     vdW  Elec       q    Type
REMARK                         _______ _______ _______ _____ _____    ______ ____
ROOT
ATOM      1  O   UNL     1      45.252   7.884  11.419  0.00  0.00    +0.000 OA
ATOM      2  C   UNL     1      46.003   6.922  11.384  0.00  0.00    +0.000 C 
ATOM      3  N   UNL     1      47.283   6.957  11.870  0.00  0.00    +0.000 N 
ATOM      4  H   UNL     1      47.792   6.102  12.037  0.00  0.00    +0.000 HD
ENDROOT
BRANCH   2   5
ATOM      5  C   UNL     1      45.613   5.671  10.745  0.00  0.00    +0.000 A 
ATOM      6  C   UNL     1      45.684   5.422   9.385  0.00  0.00    +0.000 A 
ATOM      7  S   UNL     1      44.812   4.016   8.933  0.00  0.00    +0.000 S 
ATOM      8  C   UNL     1      44.379   3.694  10.551  0.00  0.00    +0.000 A 
ATOM      9  N   UNL     1      43.541   2.676  10.888  0.00  0.00    +0.000 NA
ATOM     10  C   UNL     1      43.343   2.558  12.161  0.00  0.00    +0.000 A 
ATOM     11  N   UNL     1      43.938   3.332  13.128  0.00  0.00    +0.000 N 
ATOM     12  C   UNL     1      44.852   4.321  12.834  0.00  0.00    +0.000 A 
ATOM     13  O   UNL     1      45.538   4.838  13.707  0.00  0.00    +0.000 OA
ATOM     14  C   UNL     1      44.985   4.575  11.418  0.00  0.00    +0.000 A 
ATOM     15  H   UNL     1      43.828   3.115  14.107  0.00  0.00    +0.000 HD
ENDBRANCH   2   5
BRANCH   3  16
ATOM     16  C   UNL     1      47.777   8.189  12.458  0.00  0.00    +0.000 C 
BRANCH  16  17
ATOM     17  C   UNL     1      48.293   7.985  13.859  0.00  0.00    +0.000 A 
ATOM     18  N   UNL     1      48.608   6.732  14.240  0.00  0.00    +0.000 NA
ATOM     19  C   UNL     1      49.018   6.578  15.515  0.00  0.00    +0.000 A 
ATOM     20  C   UNL     1      49.110   7.614  16.420  0.00  0.00    +0.000 A 
ATOM     21  C   UNL     1      48.736   8.849  15.932  0.00  0.00    +0.000 A 
ATOM     22  N   UNL     1      48.316   9.062  14.671  0.00  0.00    +0.000 NA
BRANCH  20  23
ATOM     23  C   UNL     1      49.547   7.414  17.836  0.00  0.00    +0.000 C 
BRANCH  23  24
ATOM     24  N   UNL     1      48.734   6.434  18.589  0.00  0.00    +0.000 NA
ATOM     25  C   UNL     1      49.549   5.270  18.987  0.00  0.00    +0.000 C 
ATOM     26  C   UNL     1      48.809   4.305  19.918  0.00  0.00    +0.000 C 
ATOM     27  C   UNL     1      48.267   5.034  21.139  0.00  0.00    +0.000 C 
ATOM     28  C   UNL     1      47.374   6.177  20.684  0.00  0.00    +0.000 C 
ATOM     29  C   UNL     1      48.130   7.118  19.747  0.00  0.00    +0.000 C 
ENDBRANCH  23  24
ENDBRANCH  20  23
ENDBRANCH  16  17
ENDBRANCH   3  16
TORSDOF 5
ENDMDL
MODEL 8
REMARK VINA RESULT:    -6.879      1.807      3.383
REMARK INTER + INTRA:          -9.445
REMARK INTER:                  -9.338
REMARK INTRA:                  -0.107
REMARK UNBOUND:                -0.555
REMARK  Name = 
REMARK  5 active torsions:
REMARK  status: ('A' for Active; 'I' for Inactive)
REMARK    1  A    between atoms: C_2  and  C_18
REMARK    2  A    between atoms: N_3  and  C_4
REMARK    3  A    between atoms: C_4  and  C_5
REMARK    4  A    between atoms: C_8  and  C_9
REMARK    5  A    between atoms: C_9  and  N_10
REMARK                            x       y       z     vdW  Elec       q    Type
REMARK                         _______ _______ _______ _____ _____    ______ ____
ROOT
ATOM      1  O   UNL     1      49.254   4.609  16.795  0.00  0.00    +0.000 OA
ATOM      2  C   UNL     1      48.514   5.529  16.482  0.00  0.00    +0.000 C 
ATOM      3  N   UNL     1      47.554   5.418  15.512  0.00  0.00    +0.000 N 
ATOM      4  H   UNL     1      46.819   6.104  15.437  0.00  0.00    +0.000 HD
ENDROOT
BRANCH   2   5
ATOM      5  C   UNL     1      48.651   6.853  17.075  0.00  0.00    +0.000 A 
ATOM      6  C   UNL     1      48.360   7.164  18.393  0.00  0.00    +0.000 A 
ATOM      7  S   UNL     1      48.271   8.856  18.661  0.00  0.00    +0.000 S 
ATOM      8  C   UNL     1      48.675   9.192  17.038  0.00  0.00    +0.000 A 
ATOM      9  N   UNL     1      48.686  10.459  16.542  0.00  0.00    +0.000 NA
ATOM     10  C   UNL     1      49.042  10.534  15.300  0.00  0.00    +0.000 A 
ATOM     11  N   UNL     1      49.431   9.468  14.525  0.00  0.00    +0.000 N 
ATOM     12  C   UNL     1      49.511   8.182  15.011  0.00  0.00    +0.000 A 
ATOM     13  O   UNL     1      50.074   7.293  14.382  0.00  0.00    +0.000 OA
ATOM     14  C   UNL     1      48.982   8.041  16.347  0.00  0.00    +0.000 A 
ATOM     15  H   UNL     1      49.805   9.610  13.598  0.00  0.00    +0.000 HD
ENDBRANCH   2   5
BRANCH   3  16
ATOM     16  C   UNL     1      47.400   4.151  14.819  0.00  0.00    +0.000 C 
BRANCH  16  17
ATOM     17  C   UNL     1      46.570   4.283  13.568  0.00  0.00    +0.000 A 
ATOM     18  N   UNL     1      46.589   5.463  12.919  0.00  0.00    +0.000 NA
ATOM     19  C   UNL     1      45.797   5.563  11.833  0.00  0.00    +0.000 A 
ATOM     20  C   UNL     1      44.981   4.546  11.385  0.00  0.00    +0.000 A 
ATOM     21  C   UNL     1      45.018   3.393  12.140  0.00  0.00    +0.000 A 
ATOM     22  N   UNL     1      45.787   3.237  13.234  0.00  0.00    +0.000 NA
BRANCH  20  23
ATOM     23  C   UNL     1      44.093   4.689  10.190  0.00  0.00    +0.000 C 
BRANCH  23  24
ATOM     24  N   UNL     1      44.481   3.843   9.041  0.00  0.00    +0.000 NA
ATOM     25  C   UNL     1      45.694   4.369   8.385  0.00  0.00    +0.000 C 
ATOM     26  C   UNL     1      46.245   3.440   7.299  0.00  0.00    +0.000 C 
ATOM     27  C   UNL     1      46.486   2.042   7.849  0.00  0.00    +0.000 C 
ATOM     28  C   UNL     1      45.193   1.509   8.446  0.00  0.00    +0.000 C 
ATOM     29  C   UNL     1      44.658   2.458   9.517  0.00  0.00    +0.000 C 
ENDBRANCH  23  24
ENDBRANCH  20  23
ENDBRANCH  16  17
ENDBRANCH   3  16
TORSDOF 5
ENDMDL
MODEL 9
REMARK VINA RESULT:    -6.683      3.576      8.639
REMARK INTER + INTRA:          -9.192
REMARK INTER:                  -8.574
REMARK INTRA:                  -0.618
REMARK UNBOUND:                -0.555
REMARK  Name = 
REMARK  5 active torsions:
REMARK  status: ('A' for Active; 'I' for Inactive)
REMARK    1  A    between atoms: C_2  and  C_18
REMARK    2  A    between atoms: N_3  and  C_4
REMARK    3  A    between atoms: C_4  and  C_5
REMARK    4  A    between atoms: C_8  and  C_9
REMARK    5  A    between atoms: C_9  and  N_10
REMARK                            x       y       z     vdW  Elec       q    Type
REMARK                         _______ _______ _______ _____ _____    ______ ____
ROOT
ATOM      1  O   UNL     1      47.215   2.965  14.013  0.00  0.00    +0.000 OA
ATOM      2  C   UNL     1      46.864   4.101  14.292  0.00  0.00    +0.000 C 
ATOM      3  N   UNL     1      46.769   4.557  15.580  0.00  0.00    +0.000 N 
ATOM      4  H   UNL     1      46.703   5.545  15.770  0.00  0.00    +0.000 HD
ENDROOT
BRANCH   2   5
ATOM      5  C   UNL     1      46.441   5.044  13.264  0.00  0.00    +0.000 A 
ATOM      6  C   UNL     1      47.178   6.138  12.844  0.00  0.00    +0.000 A 
ATOM      7  S   UNL     1      46.245   7.232  11.907  0.00  0.00    +0.000 S 
ATOM      8  C   UNL     1      44.868   6.231  12.004  0.00  0.00    +0.000 A 
ATOM      9  N   UNL     1      43.662   6.605  11.496  0.00  0.00    +0.000 NA
ATOM     10  C   UNL     1      42.735   5.714  11.631  0.00  0.00    +0.000 A 
ATOM     11  N   UNL     1      42.912   4.469  12.185  0.00  0.00    +0.000 N 
ATOM     12  C   UNL     1      44.132   4.021  12.639  0.00  0.00    +0.000 A 
ATOM     13  O   UNL     1      44.320   2.841  12.913  0.00  0.00    +0.000 OA
ATOM     14  C   UNL     1      45.154   5.041  12.636  0.00  0.00    +0.000 A 
ATOM     15  H   UNL     1      42.175   3.780  12.158  0.00  0.00    +0.000 HD
ENDBRANCH   2   5
BRANCH   3  16
ATOM     16  C   UNL     1      47.102   3.657  16.669  0.00  0.00    +0.000 C 
BRANCH  16  17
ATOM     17  C   UNL     1      48.523   3.834  17.140  0.00  0.00    +0.000 A 
ATOM     18  N   UNL     1      48.883   5.038  17.626  0.00  0.00    +0.000 NA
ATOM     19  C   UNL     1      50.173   5.175  17.991  0.00  0.00    +0.000 A 
ATOM     20  C   UNL     1      51.113   4.174  17.874  0.00  0.00    +0.000 A 
ATOM     21  C   UNL     1      50.643   2.993  17.337  0.00  0.00    +0.000 A 
ATOM     22  N   UNL     1      49.367   2.799  16.953  0.00  0.00    +0.000 NA
BRANCH  20  23
ATOM     23  C   UNL     1      52.544   4.359  18.264  0.00  0.00    +0.000 C 
BRANCH  23  24
ATOM     24  N   UNL     1      53.347   5.122  17.284  0.00  0.00    +0.000 NA
ATOM     25  C   UNL     1      53.431   6.545  17.666  0.00  0.00    +0.000 C 
ATOM     26  C   UNL     1      54.393   7.350  16.787  0.00  0.00    +0.000 C 
ATOM     27  C   UNL     1      55.773   6.711  16.761  0.00  0.00    +0.000 C 
ATOM     28  C   UNL     1      55.648   5.270  16.290  0.00  0.00    +0.000 C 
ATOM     29  C   UNL     1      54.676   4.492  17.174  0.00  0.00    +0.000 C 
ENDBRANCH  23  24
ENDBRANCH  20  23
ENDBRANCH  16  17
ENDBRANCH   3  16
TORSDOF 5
ENDMDL
