MODEL 1
REMARK VINA RESULT:    -7.964      0.000      0.000
REMARK INTER + INTRA:         -12.140
REMARK INTER:                 -11.223
REMARK INTRA:                  -0.917
REMARK UNBOUND:                -0.917
REMARK  Name = 
REMARK  7 active torsions:
REMARK  status: ('A' for Active; 'I' for Inactive)
REMARK    1  A    between atoms: C_2  and  C_20
REMARK    2  A    between atoms: N_3  and  C_4
REMARK    3  A    between atoms: C_4  and  C_5
REMARK    4  A    between atoms: C_8  and  C_9
REMARK    5  A    between atoms: C_9  and  O_10
REMARK    6  A    between atoms: O_10  and  C_11
REMARK    7  A    between atoms: C_11  and  C_12
REMARK                            x       y       z     vdW  Elec       q    Type
REMARK                         _______ _______ _______ _____ _____    ______ ____
ROOT
ATOM      1  C   UNL     1      47.998   6.667  13.464  0.00  0.00    +0.000 C 
ENDROOT
BRANCH   1   2
ATOM      2  C   UNL     1      46.877   5.890  12.817  0.00  0.00    +0.000 A 
ATOM      3  C   UNL     1      46.374   6.267  11.573  0.00  0.00    +0.000 A 
ATOM      4  C   UNL     1      45.305   5.553  11.027  0.00  0.00    +0.000 A 
ATOM      5  C   UNL     1      44.765   4.472  11.723  0.00  0.00    +0.000 A 
ATOM      6  C   UNL     1      45.355   4.145  12.939  0.00  0.00    +0.000 A 
ATOM      7  N   UNL     1      46.393   4.817  13.490  0.00  0.00    +0.000 NA
BRANCH   5   8
ATOM      8  C   UNL     1      43.596   3.685  11.203  0.00  0.00    +0.000 C 
BRANCH   8   9
ATOM      9  O   UNL     1      43.814   3.441   9.817  0.00  0.00    +0.000 OA
BRANCH   9  10
ATOM     10  C   UNL     1      44.482   2.201   9.579  0.00  0.00    +0.000 C 
BRANCH  10  11
ATOM     11  C   UNL     1      45.523   2.360   8.498  0.00  0.00    +0.000 A 
ATOM     12  C   UNL     1      45.690   3.573   7.836  0.00  0.00    +0.000 A 
ATOM     13  N   UNL     1      46.633   3.775   6.884  0.00  0.00    +0.000 NA
ATOM     14  C   UNL     1      47.411   2.707   6.611  0.00  0.00    +0.000 A 
ATOM     15  C   UNL     1      47.264   1.497   7.268  0.00  0.00    +0.000 A 
ATOM     16  N   UNL     1      46.329   1.297   8.227  0.00  0.00    +0.000 NA
ENDBRANCH  10  11
ENDBRANCH   9  10
ENDBRANCH   8   9
ENDBRANCH   5   8
ENDBRANCH   1   2
BRANCH   1  19
ATOM     17  O   UNL     1      50.166   6.706  15.191  0.00  0.00    +0.000 OA
ATOM     18  C   UNL     1      49.039   6.770  15.673  0.00  0.00    +0.000 C 
ATOM     19  N   UNL     1      47.904   6.672  14.905  0.00  0.00    +0.000 N 
ATOM     20  H   UNL     1      47.036   7.039  15.281  0.00  0.00    +0.000 HD
BRANCH  18  21
ATOM     21  C   UNL     1      48.830   6.893  17.122  0.00  0.00    +0.000 A 
ATOM     22  C   UNL     1      48.544   8.129  17.684  0.00  0.00    +0.000 A 
ATOM     23  S   UNL     1      48.388   8.083  19.383  0.00  0.00    +0.000 S 
ATOM     24  C   UNL     1      48.643   6.399  19.419  0.00  0.00    +0.000 A 
ATOM     25  N   UNL     1      48.624   5.707  20.586  0.00  0.00    +0.000 NA
ATOM     26  C   UNL     1      48.787   4.434  20.454  0.00  0.00    +0.000 A 
ATOM     27  N   UNL     1      48.968   3.787  19.260  0.00  0.00    +0.000 N 
ATOM     28  C   UNL     1      49.048   4.453  18.062  0.00  0.00    +0.000 A 
ATOM     29  O   UNL     1      49.294   3.855  17.018  0.00  0.00    +0.000 OA
ATOM     30  C   UNL     1      48.853   5.886  18.152  0.00  0.00    +0.000 A 
ATOM     31  H   UNL     1      49.100   2.789  19.218  0.00  0.00    +0.000 HD
ENDBRANCH  18  21
ENDBRANCH   1  19
TORSDOF 7
ENDMDL
MODEL 2
REMARK VINA RESULT:    -7.778      1.673      2.390
REMARK INTER + INTRA:         -11.877
REMARK INTER:                 -10.820
REMARK INTRA:                  -1.058
REMARK UNBOUND:                -0.917
REMARK  Name = 
REMARK  7 active torsions:
REMARK  status: ('A' for Active; 'I' for Inactive)
REMARK    1  A    between atoms: C_2  and  C_20
REMARK    2  A    between atoms: N_3  and  C_4
REMARK    3  A    between atoms: C_4  and  C_5
REMARK    4  A    between atoms: C_8  and  C_9
REMARK    5  A    between atoms: C_9  and  O_10
REMARK    6  A    between atoms: O_10  and  C_11
REMARK    7  A    between atoms: C_11  and  C_12
REMARK                            x       y       z     vdW  Elec       q    Type
REMARK                         _______ _______ _______ _____ _____    ______ ____
ROOT
ATOM      1  C   UNL     1      47.492   3.346  14.829  0.00  0.00    +0.000 C 
ENDROOT
BRANCH   1   2
ATOM      2  C   UNL     1      46.613   3.843  13.705  0.00  0.00    +0.000 A 
ATOM      3  C   UNL     1      46.519   5.205  13.425  0.00  0.00    +0.000 A 
ATOM      4  C   UNL     1      45.660   5.630  12.410  0.00  0.00    +0.000 A 
ATOM      5  C   UNL     1      44.921   4.694  11.686  0.00  0.00    +0.000 A 
ATOM      6  C   UNL     1      45.108   3.355  12.011  0.00  0.00    +0.000 A 
ATOM      7  N   UNL     1      45.936   2.914  12.987  0.00  0.00    +0.000 NA
BRANCH   5   8
ATOM      8  C   UNL     1      43.959   5.092  10.604  0.00  0.00    +0.000 C 
BRANCH   8   9
ATOM      9  O   UNL     1      44.031   4.115   9.571  0.00  0.00    +0.000 OA
BRANCH   9  10
ATOM     10  C   UNL     1      44.956   4.473   8.544  0.00  0.00    +0.000 C 
BRANCH  10  11
ATOM     11  C   UNL     1      45.778   3.276   8.131  0.00  0.00    +0.000 A 
ATOM     12  C   UNL     1      45.477   2.002   8.606  0.00  0.00    +0.000 A 
ATOM     13  N   UNL     1      46.163   0.893   8.237  0.00  0.00    +0.000 NA
ATOM     14  C   UNL     1      47.174   1.104   7.369  0.00  0.00    +0.000 A 
ATOM     15  C   UNL     1      47.478   2.364   6.880  0.00  0.00    +0.000 A 
ATOM     16  N   UNL     1      46.787   3.472   7.240  0.00  0.00    +0.000 NA
ENDBRANCH  10  11
ENDBRANCH   9  10
ENDBRANCH   8   9
ENDBRANCH   5   8
ENDBRANCH   1   2
BRANCH   1  19
ATOM     17  O   UNL     1      46.688   3.210  17.478  0.00  0.00    +0.000 OA
ATOM     18  C   UNL     1      47.373   4.166  17.128  0.00  0.00    +0.000 C 
ATOM     19  N   UNL     1      47.747   4.364  15.821  0.00  0.00    +0.000 N 
ATOM     20  H   UNL     1      48.547   4.960  15.634  0.00  0.00    +0.000 HD
BRANCH  18  21
ATOM     21  C   UNL     1      47.788   5.204  18.082  0.00  0.00    +0.000 A 
ATOM     22  C   UNL     1      46.845   5.840  18.876  0.00  0.00    +0.000 A 
ATOM     23  S   UNL     1      47.508   7.050  19.880  0.00  0.00    +0.000 S 
ATOM     24  C   UNL     1      49.087   6.726  19.327  0.00  0.00    +0.000 A 
ATOM     25  N   UNL     1      50.156   7.413  19.803  0.00  0.00    +0.000 NA
ATOM     26  C   UNL     1      51.292   7.029  19.326  0.00  0.00    +0.000 A 
ATOM     27  N   UNL     1      51.457   6.018  18.416  0.00  0.00    +0.000 N 
ATOM     28  C   UNL     1      50.400   5.334  17.868  0.00  0.00    +0.000 A 
ATOM     29  O   UNL     1      50.574   4.491  16.992  0.00  0.00    +0.000 OA
ATOM     30  C   UNL     1      49.100   5.716  18.384  0.00  0.00    +0.000 A 
ATOM     31  H   UNL     1      52.370   5.767  18.070  0.00  0.00    +0.000 HD
ENDBRANCH  18  21
ENDBRANCH   1  19
TORSDOF 7
ENDMDL
MODEL 3
REMARK VINA RESULT:    -7.662      1.707      2.978
REMARK INTER + INTRA:         -11.714
REMARK INTER:                 -10.613
REMARK INTRA:                  -1.101
REMARK UNBOUND:                -0.917
REMARK  Name = 
REMARK  7 active torsions:
REMARK  status: ('A' for Active; 'I' for Inactive)
REMARK    1  A    between atoms: C_2  and  C_20
REMARK    2  A    between atoms: N_3  and  C_4
REMARK    3  A    between atoms: C_4  and  C_5
REMARK    4  A    between atoms: C_8  and  C_9
REMARK    5  A    between atoms: C_9  and  O_10
REMARK    6  A    between atoms: O_10  and  C_11
REMARK    7  A    between atoms: C_11  and  C_12
REMARK                            x       y       z     vdW  Elec       q    Type
REMARK                         _______ _______ _______ _____ _____    ______ ____
ROOT
ATOM      1  C   UNL     1      47.489   4.075  15.073  0.00  0.00    +0.000 C 
ENDROOT
BRANCH   1   2
ATOM      2  C   UNL     1      46.526   4.337  13.939  0.00  0.00    +0.000 A 
ATOM      3  C   UNL     1      46.130   5.636  13.625  0.00  0.00    +0.000 A 
ATOM      4  C   UNL     1      45.203   5.834  12.601  0.00  0.00    +0.000 A 
ATOM      5  C   UNL     1      44.696   4.739  11.900  0.00  0.00    +0.000 A 
ATOM      6  C   UNL     1      45.177   3.484  12.257  0.00  0.00    +0.000 A 
ATOM      7  N   UNL     1      46.078   3.262  13.243  0.00  0.00    +0.000 NA
BRANCH   5   8
ATOM      8  C   UNL     1      43.674   4.886  10.810  0.00  0.00    +0.000 C 
BRANCH   8   9
ATOM      9  O   UNL     1      43.905   3.859   9.851  0.00  0.00    +0.000 OA
BRANCH   9  10
ATOM     10  C   UNL     1      44.561   4.342   8.679  0.00  0.00    +0.000 C 
BRANCH  10  11
ATOM     11  C   UNL     1      45.538   3.316   8.158  0.00  0.00    +0.000 A 
ATOM     12  C   UNL     1      45.525   2.008   8.634  0.00  0.00    +0.000 A 
ATOM     13  N   UNL     1      46.358   1.043   8.173  0.00  0.00    +0.000 NA
ATOM     14  C   UNL     1      47.216   1.437   7.209  0.00  0.00    +0.000 A 
ATOM     15  C   UNL     1      47.233   2.732   6.718  0.00  0.00    +0.000 A 
ATOM     16  N   UNL     1      46.395   3.695   7.171  0.00  0.00    +0.000 NA
ENDBRANCH  10  11
ENDBRANCH   9  10
ENDBRANCH   8   9
ENDBRANCH   5   8
ENDBRANCH   1   2
BRANCH   1  19
ATOM     17  O   UNL     1      49.632   4.674  16.725  0.00  0.00    +0.000 OA
ATOM     18  C   UNL     1      48.655   5.416  16.751  0.00  0.00    +0.000 C 
ATOM     19  N   UNL     1      47.514   5.154  16.033  0.00  0.00    +0.000 N 
ATOM     20  H   UNL     1      46.882   5.923  15.836  0.00  0.00    +0.000 HD
BRANCH  18  21
ATOM     21  C   UNL     1      48.620   6.609  17.608  0.00  0.00    +0.000 A 
ATOM     22  C   UNL     1      48.706   6.482  18.987  0.00  0.00    +0.000 A 
ATOM     23  S   UNL     1      48.593   7.970  19.814  0.00  0.00    +0.000 S 
ATOM     24  C   UNL     1      48.481   8.840  18.353  0.00  0.00    +0.000 A 
ATOM     25  N   UNL     1      48.374  10.193  18.344  0.00  0.00    +0.000 NA
ATOM     26  C   UNL     1      48.343  10.718  17.166  0.00  0.00    +0.000 A 
ATOM     27  N   UNL     1      48.410  10.013  15.993  0.00  0.00    +0.000 N 
ATOM     28  C   UNL     1      48.465   8.641  15.955  0.00  0.00    +0.000 A 
ATOM     29  O   UNL     1      48.439   8.034  14.889  0.00  0.00    +0.000 OA
ATOM     30  C   UNL     1      48.520   8.002  17.255  0.00  0.00    +0.000 A 
ATOM     31  H   UNL     1      48.372  10.476  15.099  0.00  0.00    +0.000 HD
ENDBRANCH  18  21
ENDBRANCH   1  19
TORSDOF 7
ENDMDL
MODEL 4
REMARK VINA RESULT:    -7.206      2.168      3.538
REMARK INTER + INTRA:         -11.072
REMARK INTER:                 -10.049
REMARK INTRA:                  -1.022
REMARK UNBOUND:                -0.917
REMARK  Name = 
REMARK  7 active torsions:
REMARK  status: ('A' for Active; 'I' for Inactive)
REMARK    1  A    between atoms: C_2  and  C_20
REMARK    2  A    between atoms: N_3  and  C_4
REMARK    3  A    between atoms: C_4  and  C_5
REMARK    4  A    between atoms: C_8  and  C_9
REMARK    5  A    between atoms: C_9  and  O_10
REMARK    6  A    between atoms: O_10  and  C_11
REMARK    7  A    between atoms: C_11  and  C_12
REMARK                            x       y       z     vdW  Elec       q    Type
REMARK                         _______ _______ _______ _____ _____    ______ ____
ROOT
ATOM      1  C   UNL     1      47.131   4.472  14.994  0.00  0.00    +0.000 C 
ENDROOT
BRANCH   1   2
ATOM      2  C   UNL     1      46.243   4.513  13.773  0.00  0.00    +0.000 A 
ATOM      3  C   UNL     1      45.811   5.729  13.247  0.00  0.00    +0.000 A 
ATOM      4  C   UNL     1      44.953   5.725  12.146  0.00  0.00    +0.000 A 
ATOM      5  C   UNL     1      44.550   4.514  11.582  0.00  0.00    +0.000 A 
ATOM      6  C   UNL     1      45.061   3.353  12.151  0.00  0.00    +0.000 A 
ATOM      7  N   UNL     1      45.897   3.326  13.215  0.00  0.00    +0.000 NA
BRANCH   5   8
ATOM      8  C   UNL     1      43.605   4.446  10.417  0.00  0.00    +0.000 C 
BRANCH   8   9
ATOM      9  O   UNL     1      44.154   3.547   9.459  0.00  0.00    +0.000 OA
BRANCH   9  10
ATOM     10  C   UNL     1      45.146   4.164   8.638  0.00  0.00    +0.000 C 
BRANCH  10  11
ATOM     11  C   UNL     1      45.970   3.117   7.927  0.00  0.00    +0.000 A 
ATOM     12  C   UNL     1      46.760   3.450   6.830  0.00  0.00    +0.000 A 
ATOM     13  N   UNL     1      47.543   2.554   6.181  0.00  0.00    +0.000 NA
ATOM     14  C   UNL     1      47.507   1.298   6.672  0.00  0.00    +0.000 A 
ATOM     15  C   UNL     1      46.735   0.954   7.769  0.00  0.00    +0.000 A 
ATOM     16  N   UNL     1      45.959   1.851   8.424  0.00  0.00    +0.000 NA
ENDBRANCH  10  11
ENDBRANCH   9  10
ENDBRANCH   8   9
ENDBRANCH   5   8
ENDBRANCH   1   2
BRANCH   1  19
ATOM     17  O   UNL     1      49.266   4.849  16.722  0.00  0.00    +0.000 OA
ATOM     18  C   UNL     1      48.867   5.811  16.073  0.00  0.00    +0.000 C 
ATOM     19  N   UNL     1      47.764   5.743  15.258  0.00  0.00    +0.000 N 
ATOM     20  H   UNL     1      47.664   6.436  14.523  0.00  0.00    +0.000 HD
BRANCH  18  21
ATOM     21  C   UNL     1      49.512   7.127  16.178  0.00  0.00    +0.000 A 
ATOM     22  C   UNL     1      49.776   7.679  17.423  0.00  0.00    +0.000 A 
ATOM     23  S   UNL     1      50.478   9.233  17.342  0.00  0.00    +0.000 S 
ATOM     24  C   UNL     1      50.503   9.196  15.639  0.00  0.00    +0.000 A 
ATOM     25  N   UNL     1      51.002  10.233  14.918  0.00  0.00    +0.000 NA
ATOM     26  C   UNL     1      50.996  10.046  13.641  0.00  0.00    +0.000 A 
ATOM     27  N   UNL     1      50.538   8.916  13.017  0.00  0.00    +0.000 N 
ATOM     28  C   UNL     1      49.977   7.867  13.704  0.00  0.00    +0.000 A 
ATOM     29  O   UNL     1      49.498   6.904  13.111  0.00  0.00    +0.000 OA
ATOM     30  C   UNL     1      49.974   8.019  15.145  0.00  0.00    +0.000 A 
ATOM     31  H   UNL     1      50.550   8.829  12.014  0.00  0.00    +0.000 HD
ENDBRANCH  18  21
ENDBRANCH   1  19
TORSDOF 7
ENDMDL
MODEL 5
REMARK VINA RESULT:    -7.112      2.761      8.824
REMARK INTER + INTRA:         -10.939
REMARK INTER:                  -9.721
REMARK INTRA:                  -1.218
REMARK UNBOUND:                -0.917
REMARK  Name = 
REMARK  7 active torsions:
REMARK  status: ('A' for Active; 'I' for Inactive)
REMARK    1  A    between atoms: C_2  and  C_20
REMARK    2  A    between atoms: N_3  and  C_4
REMARK    3  A    between atoms: C_4  and  C_5
REMARK    4  A    between atoms: C_8  and  C_9
REMARK    5  A    between atoms: C_9  and  O_10
REMARK    6  A    between atoms: O_10  and  C_11
REMARK    7  A    between atoms: C_11  and  C_12
REMARK                            x       y       z     vdW  Elec       q    Type
REMARK                         _______ _______ _______ _____ _____    ______ ____
ROOT
ATOM      1  C   UNL     1      47.536   7.588  12.128  0.00  0.00    +0.000 C 
ENDROOT
BRANCH   1   2
ATOM      2  C   UNL     1      47.994   7.689  13.564  0.00  0.00    +0.000 A 
ATOM      3  C   UNL     1      47.786   8.856  14.298  0.00  0.00    +0.000 A 
ATOM      4  C   UNL     1      48.265   8.929  15.607  0.00  0.00    +0.000 A 
ATOM      5  C   UNL     1      48.930   7.837  16.166  0.00  0.00    +0.000 A 
ATOM      6  C   UNL     1      49.058   6.702  15.372  0.00  0.00    +0.000 A 
ATOM      7  N   UNL     1      48.601   6.602  14.102  0.00  0.00    +0.000 NA
BRANCH   5   8
ATOM      8  C   UNL     1      49.494   7.866  17.557  0.00  0.00    +0.000 C 
BRANCH   8   9
ATOM      9  O   UNL     1      48.481   7.418  18.451  0.00  0.00    +0.000 OA
BRANCH   9  10
ATOM     10  C   UNL     1      48.876   6.262  19.191  0.00  0.00    +0.000 C 
BRANCH  10  11
ATOM     11  C   UNL     1      48.524   5.004  18.435  0.00  0.00    +0.000 A 
ATOM     12  C   UNL     1      47.218   4.761  18.017  0.00  0.00    +0.000 A 
ATOM     13  N   UNL     1      46.859   3.664  17.306  0.00  0.00    +0.000 NA
ATOM     14  C   UNL     1      47.863   2.807  17.026  0.00  0.00    +0.000 A 
ATOM     15  C   UNL     1      49.168   3.041  17.425  0.00  0.00    +0.000 A 
ATOM     16  N   UNL     1      49.530   4.141  18.128  0.00  0.00    +0.000 NA
ENDBRANCH  10  11
ENDBRANCH   9  10
ENDBRANCH   8   9
ENDBRANCH   5   8
ENDBRANCH   1   2
BRANCH   1  19
ATOM     17  O   UNL     1      44.878   7.065  12.714  0.00  0.00    +0.000 OA
ATOM     18  C   UNL     1      45.519   6.209  12.111  0.00  0.00    +0.000 C 
ATOM     19  N   UNL     1      46.861   6.342  11.852  0.00  0.00    +0.000 N 
ATOM     20  H   UNL     1      47.264   5.789  11.101  0.00  0.00    +0.000 HD
BRANCH  18  21
ATOM     21  C   UNL     1      44.899   4.950  11.678  0.00  0.00    +0.000 A 
ATOM     22  C   UNL     1      44.124   4.212  12.562  0.00  0.00    +0.000 A 
ATOM     23  S   UNL     1      43.535   2.755  11.896  0.00  0.00    +0.000 S 
ATOM     24  C   UNL     1      44.250   3.088  10.386  0.00  0.00    +0.000 A 
ATOM     25  N   UNL     1      44.119   2.234   9.339  0.00  0.00    +0.000 NA
ATOM     26  C   UNL     1      44.676   2.639   8.248  0.00  0.00    +0.000 A 
ATOM     27  N   UNL     1      45.353   3.821   8.106  0.00  0.00    +0.000 N 
ATOM     28  C   UNL     1      45.556   4.689   9.151  0.00  0.00    +0.000 A 
ATOM     29  O   UNL     1      46.239   5.700   9.014  0.00  0.00    +0.000 OA
ATOM     30  C   UNL     1      44.935   4.289  10.398  0.00  0.00    +0.000 A 
ATOM     31  H   UNL     1      45.777   4.081   7.229  0.00  0.00    +0.000 HD
ENDBRANCH  18  21
ENDBRANCH   1  19
TORSDOF 7
ENDMDL
MODEL 6
REMARK VINA RESULT:    -6.922      3.313      8.440
REMARK INTER + INTRA:         -10.671
REMARK INTER:                  -9.464
REMARK INTRA:                  -1.207
REMARK UNBOUND:                -0.917
REMARK  Name = 
REMARK  7 active torsions:
REMARK  status: ('A' for Active; 'I' for Inactive)
REMARK    1  A    between atoms: C_2  and  C_20
REMARK    2  A    between atoms: N_3  and  C_4
REMARK    3  A    between atoms: C_4  and  C_5
REMARK    4  A    between atoms: C_8  and  C_9
REMARK    5  A    between atoms: C_9  and  O_10
REMARK    6  A    between atoms: O_10  and  C_11
REMARK    7  A    between atoms: C_11  and  C_12
REMARK                            x       y       z     vdW  Elec       q    Type
REMARK                         _______ _______ _______ _____ _____    ______ ____
ROOT
ATOM      1  C   UNL     1      47.883   8.230  12.327  0.00  0.00    +0.000 C 
ENDROOT
BRANCH   1   2
ATOM      2  C   UNL     1      48.213   8.115  13.797  0.00  0.00    +0.000 A 
ATOM      3  C   UNL     1      48.263   9.248  14.607  0.00  0.00    +0.000 A 
ATOM      4  C   UNL     1      48.618   9.107  15.950  0.00  0.00    +0.000 A 
ATOM      5  C   UNL     1      48.904   7.842  16.464  0.00  0.00    +0.000 A 
ATOM      6  C   UNL     1      48.792   6.765  15.592  0.00  0.00    +0.000 A 
ATOM      7  N   UNL     1      48.447   6.872  14.287  0.00  0.00    +0.000 NA
BRANCH   5   8
ATOM      8  C   UNL     1      49.321   7.631  17.891  0.00  0.00    +0.000 C 
BRANCH   8   9
ATOM      9  O   UNL     1      48.190   7.151  18.612  0.00  0.00    +0.000 OA
BRANCH   9  10
ATOM     10  C   UNL     1      48.476   5.959  19.346  0.00  0.00    +0.000 C 
BRANCH  10  11
ATOM     11  C   UNL     1      48.314   4.744  18.466  0.00  0.00    +0.000 A 
ATOM     12  C   UNL     1      47.094   4.453  17.862  0.00  0.00    +0.000 A 
ATOM     13  N   UNL     1      46.909   3.394  17.037  0.00  0.00    +0.000 NA
ATOM     14  C   UNL     1      47.999   2.625  16.836  0.00  0.00    +0.000 A 
ATOM     15  C   UNL     1      49.222   2.908  17.421  0.00  0.00    +0.000 A 
ATOM     16  N   UNL     1      49.410   3.971  18.238  0.00  0.00    +0.000 NA
ENDBRANCH  10  11
ENDBRANCH   9  10
ENDBRANCH   8   9
ENDBRANCH   5   8
ENDBRANCH   1   2
BRANCH   1  19
ATOM     17  O   UNL     1      45.203   7.921  11.693  0.00  0.00    +0.000 OA
ATOM     18  C   UNL     1      45.969   6.995  11.443  0.00  0.00    +0.000 C 
ATOM     19  N   UNL     1      47.295   7.022  11.798  0.00  0.00    +0.000 N 
ATOM     20  H   UNL     1      47.937   6.407  11.308  0.00  0.00    +0.000 HD
BRANCH  18  21
ATOM     21  C   UNL     1      45.497   5.762  10.799  0.00  0.00    +0.000 A 
ATOM     22  C   UNL     1      45.793   5.512   9.467  0.00  0.00    +0.000 A 
ATOM     23  S   UNL     1      45.116   4.059   8.881  0.00  0.00    +0.000 S 
ATOM     24  C   UNL     1      44.451   3.687  10.405  0.00  0.00    +0.000 A 
ATOM     25  N   UNL     1      43.742   2.548  10.606  0.00  0.00    +0.000 NA
ATOM     26  C   UNL     1      43.338   2.378  11.820  0.00  0.00    +0.000 A 
ATOM     27  N   UNL     1      43.579   3.244  12.854  0.00  0.00    +0.000 N 
ATOM     28  C   UNL     1      44.245   4.433  12.684  0.00  0.00    +0.000 A 
ATOM     29  O   UNL     1      44.373   5.228  13.611  0.00  0.00    +0.000 OA
ATOM     30  C   UNL     1      44.736   4.665  11.340  0.00  0.00    +0.000 A 
ATOM     31  H   UNL     1      43.230   3.064  13.782  0.00  0.00    +0.000 HD
ENDBRANCH  18  21
ENDBRANCH   1  19
TORSDOF 7
ENDMDL
MODEL 7
REMARK VINA RESULT:    -6.737      4.310      5.475
REMARK INTER + INTRA:         -10.410
REMARK INTER:                  -9.385
REMARK INTRA:                  -1.025
REMARK UNBOUND:                -0.917
REMARK  Name = 
REMARK  7 active torsions:
REMARK  status: ('A' for Active; 'I' for Inactive)
REMARK    1  A    between atoms: C_2  and  C_20
REMARK    2  A    between atoms: N_3  and  C_4
REMARK    3  A    between atoms: C_4  and  C_5
REMARK    4  A    between atoms: C_8  and  C_9
REMARK    5  A    between atoms: C_9  and  O_10
REMARK    6  A    between atoms: O_10  and  C_11
REMARK    7  A    between atoms: C_11  and  C_12
REMARK                            x       y       z     vdW  Elec       q    Type
REMARK                         _______ _______ _______ _____ _____    ______ ____
ROOT
ATOM      1  C   UNL     1      46.450   8.500  13.202  0.00  0.00    +0.000 C 
ENDROOT
BRANCH   1   2
ATOM      2  C   UNL     1      45.790   7.244  12.685  0.00  0.00    +0.000 A 
ATOM      3  C   UNL     1      44.687   7.318  11.836  0.00  0.00    +0.000 A 
ATOM      4  C   UNL     1      44.074   6.136  11.416  0.00  0.00    +0.000 A 
ATOM      5  C   UNL     1      44.576   4.904  11.838  0.00  0.00    +0.000 A 
ATOM      6  C   UNL     1      45.702   4.927  12.653  0.00  0.00    +0.000 A 
ATOM      7  N   UNL     1      46.318   6.057  13.073  0.00  0.00    +0.000 NA
BRANCH   5   8
ATOM      8  C   UNL     1      43.942   3.601  11.445  0.00  0.00    +0.000 C 
BRANCH   8   9
ATOM      9  O   UNL     1      44.923   2.821  10.770  0.00  0.00    +0.000 OA
BRANCH   9  10
ATOM     10  C   UNL     1      44.455   2.317   9.519  0.00  0.00    +0.000 C 
BRANCH  10  11
ATOM     11  C   UNL     1      45.524   2.450   8.461  0.00  0.00    +0.000 A 
ATOM     12  C   UNL     1      45.731   3.657   7.799  0.00  0.00    +0.000 A 
ATOM     13  N   UNL     1      46.700   3.835   6.868  0.00  0.00    +0.000 NA
ATOM     14  C   UNL     1      47.463   2.751   6.618  0.00  0.00    +0.000 A 
ATOM     15  C   UNL     1      47.276   1.547   7.277  0.00  0.00    +0.000 A 
ATOM     16  N   UNL     1      46.315   1.370   8.214  0.00  0.00    +0.000 NA
ENDBRANCH  10  11
ENDBRANCH   9  10
ENDBRANCH   8   9
ENDBRANCH   5   8
ENDBRANCH   1   2
BRANCH   1  19
ATOM     17  O   UNL     1      48.338  10.393  13.936  0.00  0.00    +0.000 OA
ATOM     18  C   UNL     1      48.489   9.805  12.869  0.00  0.00    +0.000 C 
ATOM     19  N   UNL     1      47.564   8.915  12.382  0.00  0.00    +0.000 N 
ATOM     20  H   UNL     1      47.866   8.238  11.688  0.00  0.00    +0.000 HD
BRANCH  18  21
ATOM     21  C   UNL     1      49.650  10.066  12.007  0.00  0.00    +0.000 A 
ATOM     22  C   UNL     1      50.028  11.370  11.719  0.00  0.00    +0.000 A 
ATOM     23  S   UNL     1      51.363  11.473  10.661  0.00  0.00    +0.000 S 
ATOM     24  C   UNL     1      51.516   9.777  10.597  0.00  0.00    +0.000 A 
ATOM     25  N   UNL     1      52.492   9.184   9.863  0.00  0.00    +0.000 NA
ATOM     26  C   UNL     1      52.513   7.896   9.945  0.00  0.00    +0.000 A 
ATOM     27  N   UNL     1      51.647   7.145  10.695  0.00  0.00    +0.000 N 
ATOM     28  C   UNL     1      50.613   7.700  11.409  0.00  0.00    +0.000 A 
ATOM     29  O   UNL     1      49.802   6.995  12.004  0.00  0.00    +0.000 OA
ATOM     30  C   UNL     1      50.555   9.147  11.365  0.00  0.00    +0.000 A 
ATOM     31  H   UNL     1      51.705   6.139  10.714  0.00  0.00    +0.000 HD
ENDBRANCH  18  21
ENDBRANCH   1  19
TORSDOF 7
ENDMDL
MODEL 8
REMARK VINA RESULT:    -6.644      2.831      3.755
REMARK INTER + INTRA:         -10.280
REMARK INTER:                  -9.484
REMARK INTRA:                  -0.796
REMARK UNBOUND:                -0.917
REMARK  Name = 
REMARK  7 active torsions:
REMARK  status: ('A' for Active; 'I' for Inactive)
REMARK    1  A    between atoms: C_2  and  C_20
REMARK    2  A    between atoms: N_3  and  C_4
REMARK    3  A    between atoms: C_4  and  C_5
REMARK    4  A    between atoms: C_8  and  C_9
REMARK    5  A    between atoms: C_9  and  O_10
REMARK    6  A    between atoms: O_10  and  C_11
REMARK    7  A    between atoms: C_11  and  C_12
REMARK                            x       y       z     vdW  Elec       q    Type
REMARK                         _______ _______ _______ _____ _____    ______ ____
ROOT
ATOM      1  C   UNL     1      47.327   5.043  14.734  0.00  0.00    +0.000 C 
ENDROOT
BRANCH   1   2
ATOM      2  C   UNL     1      46.282   4.810  13.668  0.00  0.00    +0.000 A 
ATOM      3  C   UNL     1      46.128   3.553  13.084  0.00  0.00    +0.000 A 
ATOM      4  C   UNL     1      45.184   3.388  12.069  0.00  0.00    +0.000 A 
ATOM      5  C   UNL     1      44.403   4.470  11.663  0.00  0.00    +0.000 A 
ATOM      6  C   UNL     1      44.600   5.676  12.328  0.00  0.00    +0.000 A 
ATOM      7  N   UNL     1      45.504   5.864  13.317  0.00  0.00    +0.000 NA
BRANCH   5   8
ATOM      8  C   UNL     1      43.393   4.362  10.557  0.00  0.00    +0.000 C 
BRANCH   8   9
ATOM      9  O   UNL     1      43.957   3.559   9.526  0.00  0.00    +0.000 OA
BRANCH   9  10
ATOM     10  C   UNL     1      44.910   4.272   8.737  0.00  0.00    +0.000 C 
BRANCH  10  11
ATOM     11  C   UNL     1      45.786   3.312   7.969  0.00  0.00    +0.000 A 
ATOM     12  C   UNL     1      45.969   2.002   8.405  0.00  0.00    +0.000 A 
ATOM     13  N   UNL     1      46.716   1.094   7.732  0.00  0.00    +0.000 NA
ATOM     14  C   UNL     1      47.283   1.546   6.594  0.00  0.00    +0.000 A 
ATOM     15  C   UNL     1      47.100   2.842   6.141  0.00  0.00    +0.000 A 
ATOM     16  N   UNL     1      46.347   3.748   6.808  0.00  0.00    +0.000 NA
ENDBRANCH  10  11
ENDBRANCH   9  10
ENDBRANCH   8   9
ENDBRANCH   5   8
ENDBRANCH   1   2
BRANCH   1  19
ATOM     17  O   UNL     1      49.075   6.331  13.011  0.00  0.00    +0.000 OA
ATOM     18  C   UNL     1      48.525   6.995  13.884  0.00  0.00    +0.000 C 
ATOM     19  N   UNL     1      47.710   6.431  14.835  0.00  0.00    +0.000 N 
ATOM     20  H   UNL     1      47.047   7.030  15.317  0.00  0.00    +0.000 HD
BRANCH  18  21
ATOM     21  C   UNL     1      48.755   8.441  14.006  0.00  0.00    +0.000 A 
ATOM     22  C   UNL     1      48.351   9.301  12.994  0.00  0.00    +0.000 A 
ATOM     23  S   UNL     1      48.751  10.934  13.290  0.00  0.00    +0.000 S 
ATOM     24  C   UNL     1      49.429  10.553  14.807  0.00  0.00    +0.000 A 
ATOM     25  N   UNL     1      49.954  11.516  15.606  0.00  0.00    +0.000 NA
ATOM     26  C   UNL     1      50.390  11.086  16.742  0.00  0.00    +0.000 A 
ATOM     27  N   UNL     1      50.348   9.780  17.154  0.00  0.00    +0.000 N 
ATOM     28  C   UNL     1      49.875   8.767  16.356  0.00  0.00    +0.000 A 
ATOM     29  O   UNL     1      49.928   7.595  16.719  0.00  0.00    +0.000 OA
ATOM     30  C   UNL     1      49.356   9.199  15.074  0.00  0.00    +0.000 A 
ATOM     31  H   UNL     1      50.713   9.500  18.050  0.00  0.00    +0.000 HD
ENDBRANCH  18  21
ENDBRANCH   1  19
TORSDOF 7
ENDMDL
MODEL 9
REMARK VINA RESULT:    -6.576      2.459      3.268
REMARK INTER + INTRA:         -10.184
REMARK INTER:                  -9.628
REMARK INTRA:                  -0.556
REMARK UNBOUND:                -0.917
REMARK  Name = 
REMARK  7 active torsions:
REMARK  status: ('A' for Active; 'I' for Inactive)
REMARK    1  A    between atoms: C_2  and  C_20
REMARK    2  A    between atoms: N_3  and  C_4
REMARK    3  A    between atoms: C_4  and  C_5
REMARK    4  A    between atoms: C_8  and  C_9
REMARK    5  A    between atoms: C_9  and  O_10
REMARK    6  A    between atoms: O_10  and  C_11
REMARK    7  A    between atoms: C_11  and  C_12
REMARK                            x       y       z     vdW  Elec       q    Type
REMARK                         _______ _______ _______ _____ _____    ______ ____
ROOT
ATOM      1  C   UNL     1      47.198   4.920  14.724  0.00  0.00    +0.000 C 
ENDROOT
BRANCH   1   2
ATOM      2  C   UNL     1      46.341   4.779  13.488  0.00  0.00    +0.000 A 
ATOM      3  C   UNL     1      46.206   5.837  12.591  0.00  0.00    +0.000 A 
ATOM      4  C   UNL     1      45.368   5.685  11.484  0.00  0.00    +0.000 A 
ATOM      5  C   UNL     1      44.691   4.482  11.285  0.00  0.00    +0.000 A 
ATOM      6  C   UNL     1      44.916   3.470  12.211  0.00  0.00    +0.000 A 
ATOM      7  N   UNL     1      45.724   3.587  13.290  0.00  0.00    +0.000 NA
BRANCH   5   8
ATOM      8  C   UNL     1      43.753   4.269  10.131  0.00  0.00    +0.000 C 
BRANCH   8   9
ATOM      9  O   UNL     1      44.537   4.031   8.967  0.00  0.00    +0.000 OA
BRANCH   9  10
ATOM     10  C   UNL     1      45.009   2.685   8.892  0.00  0.00    +0.000 C 
BRANCH  10  11
ATOM     11  C   UNL     1      46.033   2.544   7.792  0.00  0.00    +0.000 A 
ATOM     12  C   UNL     1      46.823   1.402   7.690  0.00  0.00    +0.000 A 
ATOM     13  N   UNL     1      47.731   1.214   6.701  0.00  0.00    +0.000 NA
ATOM     14  C   UNL     1      47.823   2.221   5.807  0.00  0.00    +0.000 A 
ATOM     15  C   UNL     1      47.036   3.357   5.888  0.00  0.00    +0.000 A 
ATOM     16  N   UNL     1      46.122   3.542   6.871  0.00  0.00    +0.000 NA
ENDBRANCH  10  11
ENDBRANCH   9  10
ENDBRANCH   8   9
ENDBRANCH   5   8
ENDBRANCH   1   2
BRANCH   1  19
ATOM     17  O   UNL     1      48.582   5.888  16.921  0.00  0.00    +0.000 OA
ATOM     18  C   UNL     1      48.623   6.534  15.879  0.00  0.00    +0.000 C 
ATOM     19  N   UNL     1      47.902   6.180  14.765  0.00  0.00    +0.000 N 
ATOM     20  H   UNL     1      48.201   6.538  13.864  0.00  0.00    +0.000 HD
BRANCH  18  21
ATOM     21  C   UNL     1      49.404   7.774  15.775  0.00  0.00    +0.000 A 
ATOM     22  C   UNL     1      48.769   8.983  15.531  0.00  0.00    +0.000 A 
ATOM     23  S   UNL     1      49.844  10.300  15.389  0.00  0.00    +0.000 S 
ATOM     24  C   UNL     1      51.193   9.308  15.706  0.00  0.00    +0.000 A 
ATOM     25  N   UNL     1      52.450   9.818  15.746  0.00  0.00    +0.000 NA
ATOM     26  C   UNL     1      53.365   8.957  16.039  0.00  0.00    +0.000 A 
ATOM     27  N   UNL     1      53.139   7.630  16.298  0.00  0.00    +0.000 N 
ATOM     28  C   UNL     1      51.891   7.062  16.216  0.00  0.00    +0.000 A 
ATOM     29  O   UNL     1      51.732   5.855  16.370  0.00  0.00    +0.000 OA
ATOM     30  C   UNL     1      50.823   7.991  15.905  0.00  0.00    +0.000 A 
ATOM     31  H   UNL     1      53.896   7.001  16.513  0.00  0.00    +0.000 HD
ENDBRANCH  18  21
ENDBRANCH   1  19
TORSDOF 7
ENDMDL
