MODEL 1
REMARK VINA RESULT:    -7.725      0.000      0.000
REMARK INTER + INTRA:         -12.596
REMARK INTER:                 -11.338
REMARK INTRA:                  -1.259
REMARK UNBOUND:                -1.259
REMARK  Name = 
REMARK  9 active torsions:
REMARK  status: ('A' for Active; 'I' for Inactive)
REMARK    1  A    between atoms: C_1  and  O_2
REMARK    2  A    between atoms: O_2  and  C_3
REMARK    3  A    between atoms: C_5  and  C_6
REMARK    4  A    between atoms: C_6  and  O_7
REMARK    5  A    between atoms: O_7  and  C_8
REMARK    6  A    between atoms: C_8  and  C_9
REMARK    7  A    between atoms: C_16  and  C_17
REMARK    8  A    between atoms: C_17  and  N_18
REMARK    9  A    between atoms: C_19  and  C_21
REMARK                            x       y       z     vdW  Elec       q    Type
REMARK                         _______ _______ _______ _____ _____    ______ ____
ROOT
ATOM      1  C   UNL     1      46.701   4.920  13.131  0.00  0.00    +0.000 A 
ATOM      2  C   UNL     1      45.662   4.223  12.500  0.00  0.00    +0.000 A 
ATOM      3  C   UNL     1      44.854   4.841  11.532  0.00  0.00    +0.000 A 
ATOM      4  C   UNL     1      45.093   6.180  11.209  0.00  0.00    +0.000 A 
ATOM      5  C   UNL     1      46.132   6.881  11.827  0.00  0.00    +0.000 A 
ATOM      6  C   UNL     1      46.945   6.264  12.792  0.00  0.00    +0.000 A 
ENDROOT
BRANCH   1   8
ATOM      7  C   UNL     1      46.878   3.992  15.317  0.00  0.00    +0.000 C 
ATOM      8  O   UNL     1      47.506   4.388  14.104  0.00  0.00    +0.000 OA
ENDBRANCH   1   8
BRANCH   3   9
ATOM      9  C   UNL     1      43.778   4.060  10.820  0.00  0.00    +0.000 C 
BRANCH   9  10
ATOM     10  O   UNL     1      44.186   3.771   9.483  0.00  0.00    +0.000 OA
BRANCH  10  11
ATOM     11  C   UNL     1      44.653   2.425   9.382  0.00  0.00    +0.000 C 
BRANCH  11  12
ATOM     12  C   UNL     1      45.720   2.383   8.349  0.00  0.00    +0.000 A 
ATOM     13  C   UNL     1      46.200   3.379   7.513  0.00  0.00    +0.000 A 
ATOM     14  C   UNL     1      47.220   2.815   6.712  0.00  0.00    +0.000 A 
ATOM     15  C   UNL     1      47.339   1.490   7.072  0.00  0.00    +0.000 A 
ATOM     16  N   UNL     1      46.426   1.238   8.057  0.00  0.00    +0.000 N 
ATOM     17  H   UNL     1      46.266   0.349   8.523  0.00  0.00    +0.000 HD
ENDBRANCH  11  12
ENDBRANCH  10  11
ENDBRANCH   9  10
ENDBRANCH   3   9
BRANCH   6  18
ATOM     18  C   UNL     1      48.107   7.039  13.371  0.00  0.00    +0.000 C 
BRANCH  18  19
ATOM     19  N   UNL     1      48.021   7.098  14.813  0.00  0.00    +0.000 N 
ATOM     20  C   UNL     1      49.122   6.951  15.615  0.00  0.00    +0.000 C 
ATOM     21  O   UNL     1      50.252   6.790  15.162  0.00  0.00    +0.000 OA
ATOM     22  H   UNL     1      47.095   7.083  15.221  0.00  0.00    +0.000 HD
BRANCH  20  23
ATOM     23  C   UNL     1      48.885   7.064  17.061  0.00  0.00    +0.000 A 
ATOM     24  C   UNL     1      48.482   8.274  17.609  0.00  0.00    +0.000 A 
ATOM     25  S   UNL     1      48.182   8.197  19.287  0.00  0.00    +0.000 S 
ATOM     26  C   UNL     1      48.636   6.559  19.350  0.00  0.00    +0.000 A 
ATOM     27  N   UNL     1      48.613   5.869  20.522  0.00  0.00    +0.000 NA
ATOM     28  C   UNL     1      49.019   4.647  20.430  0.00  0.00    +0.000 A 
ATOM     29  N   UNL     1      49.448   4.053  19.272  0.00  0.00    +0.000 N 
ATOM     30  C   UNL     1      49.466   4.701  18.060  0.00  0.00    +0.000 A 
ATOM     31  O   UNL     1      49.822   4.126  17.037  0.00  0.00    +0.000 OA
ATOM     32  C   UNL     1      49.012   6.077  18.108  0.00  0.00    +0.000 A 
ATOM     33  H   UNL     1      49.755   3.092  19.267  0.00  0.00    +0.000 HD
ENDBRANCH  20  23
ENDBRANCH  18  19
ENDBRANCH   6  18
TORSDOF 8
ENDMDL
MODEL 2
REMARK VINA RESULT:    -7.628      1.791      2.592
REMARK INTER + INTRA:         -12.453
REMARK INTER:                 -11.385
REMARK INTRA:                  -1.069
REMARK UNBOUND:                -1.259
REMARK  Name = 
REMARK  9 active torsions:
REMARK  status: ('A' for Active; 'I' for Inactive)
REMARK    1  A    between atoms: C_1  and  O_2
REMARK    2  A    between atoms: O_2  and  C_3
REMARK    3  A    between atoms: C_5  and  C_6
REMARK    4  A    between atoms: C_6  and  O_7
REMARK    5  A    between atoms: O_7  and  C_8
REMARK    6  A    between atoms: C_8  and  C_9
REMARK    7  A    between atoms: C_16  and  C_17
REMARK    8  A    between atoms: C_17  and  N_18
REMARK    9  A    between atoms: C_19  and  C_21
REMARK                            x       y       z     vdW  Elec       q    Type
REMARK                         _______ _______ _______ _____ _____    ______ ____
ROOT
ATOM      1  C   UNL     1      45.152   7.865  12.136  0.00  0.00    +0.000 A 
ATOM      2  C   UNL     1      44.333   7.020  11.375  0.00  0.00    +0.000 A 
ATOM      3  C   UNL     1      44.713   5.698  11.093  0.00  0.00    +0.000 A 
ATOM      4  C   UNL     1      45.940   5.232  11.577  0.00  0.00    +0.000 A 
ATOM      5  C   UNL     1      46.759   6.065  12.342  0.00  0.00    +0.000 A 
ATOM      6  C   UNL     1      46.379   7.386  12.630  0.00  0.00    +0.000 A 
ENDROOT
BRANCH   1   8
ATOM      7  C   UNL     1      44.767  10.070  11.322  0.00  0.00    +0.000 C 
ATOM      8  O   UNL     1      44.856   9.172  12.421  0.00  0.00    +0.000 OA
ENDBRANCH   1   8
BRANCH   3   9
ATOM      9  C   UNL     1      43.793   4.783  10.323  0.00  0.00    +0.000 C 
BRANCH   9  10
ATOM     10  O   UNL     1      44.406   4.394   9.095  0.00  0.00    +0.000 OA
BRANCH  10  11
ATOM     11  C   UNL     1      44.528   2.972   9.025  0.00  0.00    +0.000 C 
BRANCH  11  12
ATOM     12  C   UNL     1      45.695   2.651   8.164  0.00  0.00    +0.000 A 
ATOM     13  C   UNL     1      46.400   3.446   7.274  0.00  0.00    +0.000 A 
ATOM     14  C   UNL     1      47.424   2.652   6.705  0.00  0.00    +0.000 A 
ATOM     15  C   UNL     1      47.321   1.393   7.255  0.00  0.00    +0.000 A 
ATOM     16  N   UNL     1      46.271   1.401   8.130  0.00  0.00    +0.000 N 
ATOM     17  H   UNL     1      45.939   0.618   8.686  0.00  0.00    +0.000 HD
ENDBRANCH  11  12
ENDBRANCH  10  11
ENDBRANCH   9  10
ENDBRANCH   3   9
BRANCH   6  18
ATOM     18  C   UNL     1      47.261   8.220  13.531  0.00  0.00    +0.000 C 
BRANCH  18  19
ATOM     19  N   UNL     1      47.639   7.480  14.714  0.00  0.00    +0.000 N 
ATOM     20  C   UNL     1      48.876   6.911  14.853  0.00  0.00    +0.000 C 
ATOM     21  O   UNL     1      49.752   7.017  13.998  0.00  0.00    +0.000 OA
ATOM     22  H   UNL     1      46.901   7.250  15.368  0.00  0.00    +0.000 HD
BRANCH  20  23
ATOM     23  C   UNL     1      49.126   6.214  16.123  0.00  0.00    +0.000 A 
ATOM     24  C   UNL     1      50.127   6.658  16.976  0.00  0.00    +0.000 A 
ATOM     25  S   UNL     1      50.222   5.778  18.435  0.00  0.00    +0.000 S 
ATOM     26  C   UNL     1      48.967   4.735  17.952  0.00  0.00    +0.000 A 
ATOM     27  N   UNL     1      48.546   3.724  18.758  0.00  0.00    +0.000 NA
ATOM     28  C   UNL     1      47.614   2.990  18.250  0.00  0.00    +0.000 A 
ATOM     29  N   UNL     1      47.067   3.174  17.006  0.00  0.00    +0.000 N 
ATOM     30  C   UNL     1      47.442   4.195  16.167  0.00  0.00    +0.000 A 
ATOM     31  O   UNL     1      46.904   4.351  15.075  0.00  0.00    +0.000 OA
ATOM     32  C   UNL     1      48.482   5.055  16.695  0.00  0.00    +0.000 A 
ATOM     33  H   UNL     1      46.340   2.562  16.665  0.00  0.00    +0.000 HD
ENDBRANCH  20  23
ENDBRANCH  18  19
ENDBRANCH   6  18
TORSDOF 8
ENDMDL
MODEL 3
REMARK VINA RESULT:    -7.452      1.014      1.703
REMARK INTER + INTRA:         -12.196
REMARK INTER:                 -11.054
REMARK INTRA:                  -1.143
REMARK UNBOUND:                -1.259
REMARK  Name = 
REMARK  9 active torsions:
REMARK  status: ('A' for Active; 'I' for Inactive)
REMARK    1  A    between atoms: C_1  and  O_2
REMARK    2  A    between atoms: O_2  and  C_3
REMARK    3  A    between atoms: C_5  and  C_6
REMARK    4  A    between atoms: C_6  and  O_7
REMARK    5  A    between atoms: O_7  and  C_8
REMARK    6  A    between atoms: C_8  and  C_9
REMARK    7  A    between atoms: C_16  and  C_17
REMARK    8  A    between atoms: C_17  and  N_18
REMARK    9  A    between atoms: C_19  and  C_21
REMARK                            x       y       z     vdW  Elec       q    Type
REMARK                         _______ _______ _______ _____ _____    ______ ____
ROOT
ATOM      1  C   UNL     1      46.016   6.442  11.992  0.00  0.00    +0.000 A 
ATOM      2  C   UNL     1      44.970   5.649  11.499  0.00  0.00    +0.000 A 
ATOM      3  C   UNL     1      44.844   4.300  11.868  0.00  0.00    +0.000 A 
ATOM      4  C   UNL     1      45.792   3.746  12.734  0.00  0.00    +0.000 A 
ATOM      5  C   UNL     1      46.833   4.530  13.235  0.00  0.00    +0.000 A 
ATOM      6  C   UNL     1      46.960   5.881  12.872  0.00  0.00    +0.000 A 
ENDROOT
BRANCH   1   8
ATOM      7  C   UNL     1      45.112   8.637  11.805  0.00  0.00    +0.000 C 
ATOM      8  O   UNL     1      46.215   7.753  11.649  0.00  0.00    +0.000 OA
ENDBRANCH   1   8
BRANCH   3   9
ATOM      9  C   UNL     1      43.679   3.477  11.376  0.00  0.00    +0.000 C 
BRANCH   9  10
ATOM     10  O   UNL     1      43.760   3.312   9.961  0.00  0.00    +0.000 OA
BRANCH  10  11
ATOM     11  C   UNL     1      44.455   2.106   9.637  0.00  0.00    +0.000 C 
BRANCH  11  12
ATOM     12  C   UNL     1      45.441   2.416   8.570  0.00  0.00    +0.000 A 
ATOM     13  C   UNL     1      45.660   3.586   7.860  0.00  0.00    +0.000 A 
ATOM     14  C   UNL     1      46.719   3.349   6.953  0.00  0.00    +0.000 A 
ATOM     15  C   UNL     1      47.123   2.043   7.126  0.00  0.00    +0.000 A 
ATOM     16  N   UNL     1      46.341   1.486   8.099  0.00  0.00    +0.000 N 
ATOM     17  H   UNL     1      46.392   0.532   8.445  0.00  0.00    +0.000 HD
ENDBRANCH  11  12
ENDBRANCH  10  11
ENDBRANCH   9  10
ENDBRANCH   3   9
BRANCH   6  18
ATOM     18  C   UNL     1      48.055   6.708  13.506  0.00  0.00    +0.000 C 
BRANCH  18  19
ATOM     19  N   UNL     1      47.926   6.720  14.946  0.00  0.00    +0.000 N 
ATOM     20  C   UNL     1      49.016   6.687  15.775  0.00  0.00    +0.000 C 
ATOM     21  O   UNL     1      50.168   6.676  15.351  0.00  0.00    +0.000 OA
ATOM     22  H   UNL     1      46.998   6.582  15.327  0.00  0.00    +0.000 HD
BRANCH  20  23
ATOM     23  C   UNL     1      48.731   6.734  17.216  0.00  0.00    +0.000 A 
ATOM     24  C   UNL     1      48.343   7.926  17.811  0.00  0.00    +0.000 A 
ATOM     25  S   UNL     1      47.980   7.774  19.472  0.00  0.00    +0.000 S 
ATOM     26  C   UNL     1      48.385   6.122  19.466  0.00  0.00    +0.000 A 
ATOM     27  N   UNL     1      48.301   5.375  20.600  0.00  0.00    +0.000 NA
ATOM     28  C   UNL     1      48.675   4.147  20.459  0.00  0.00    +0.000 A 
ATOM     29  N   UNL     1      49.129   3.600  19.287  0.00  0.00    +0.000 N 
ATOM     30  C   UNL     1      49.208   4.308  18.111  0.00  0.00    +0.000 A 
ATOM     31  O   UNL     1      49.585   3.774  17.072  0.00  0.00    +0.000 OA
ATOM     32  C   UNL     1      48.792   5.692  18.215  0.00  0.00    +0.000 A 
ATOM     33  H   UNL     1      49.408   2.631  19.242  0.00  0.00    +0.000 HD
ENDBRANCH  20  23
ENDBRANCH  18  19
ENDBRANCH   6  18
TORSDOF 8
ENDMDL
MODEL 4
REMARK VINA RESULT:    -7.300      1.461      2.269
REMARK INTER + INTRA:         -11.973
REMARK INTER:                 -10.582
REMARK INTRA:                  -1.391
REMARK UNBOUND:                -1.259
REMARK  Name = 
REMARK  9 active torsions:
REMARK  status: ('A' for Active; 'I' for Inactive)
REMARK    1  A    between atoms: C_1  and  O_2
REMARK    2  A    between atoms: O_2  and  C_3
REMARK    3  A    between atoms: C_5  and  C_6
REMARK    4  A    between atoms: C_6  and  O_7
REMARK    5  A    between atoms: O_7  and  C_8
REMARK    6  A    between atoms: C_8  and  C_9
REMARK    7  A    between atoms: C_16  and  C_17
REMARK    8  A    between atoms: C_17  and  N_18
REMARK    9  A    between atoms: C_19  and  C_21
REMARK                            x       y       z     vdW  Elec       q    Type
REMARK                         _______ _______ _______ _____ _____    ______ ____
ROOT
ATOM      1  C   UNL     1      46.706   4.777  13.251  0.00  0.00    +0.000 A 
ATOM      2  C   UNL     1      45.668   4.089  12.606  0.00  0.00    +0.000 A 
ATOM      3  C   UNL     1      44.821   4.740  11.695  0.00  0.00    +0.000 A 
ATOM      4  C   UNL     1      45.019   6.101  11.443  0.00  0.00    +0.000 A 
ATOM      5  C   UNL     1      46.055   6.792  12.075  0.00  0.00    +0.000 A 
ATOM      6  C   UNL     1      46.908   6.144  12.983  0.00  0.00    +0.000 A 
ENDROOT
BRANCH   1   8
ATOM      7  C   UNL     1      46.972   3.790  15.402  0.00  0.00    +0.000 C 
ATOM      8  O   UNL     1      47.548   4.212  14.172  0.00  0.00    +0.000 OA
ENDBRANCH   1   8
BRANCH   3   9
ATOM      9  C   UNL     1      43.747   3.972  10.965  0.00  0.00    +0.000 C 
BRANCH   9  10
ATOM     10  O   UNL     1      44.127   3.771   9.604  0.00  0.00    +0.000 OA
BRANCH  10  11
ATOM     11  C   UNL     1      44.535   2.418   9.394  0.00  0.00    +0.000 C 
BRANCH  11  12
ATOM     12  C   UNL     1      45.625   2.417   8.383  0.00  0.00    +0.000 A 
ATOM     13  C   UNL     1      46.093   3.434   7.567  0.00  0.00    +0.000 A 
ATOM     14  C   UNL     1      47.145   2.907   6.782  0.00  0.00    +0.000 A 
ATOM     15  C   UNL     1      47.295   1.583   7.133  0.00  0.00    +0.000 A 
ATOM     16  N   UNL     1      46.369   1.296   8.096  0.00  0.00    +0.000 N 
ATOM     17  H   UNL     1      46.226   0.398   8.550  0.00  0.00    +0.000 HD
ENDBRANCH  11  12
ENDBRANCH  10  11
ENDBRANCH   9  10
ENDBRANCH   3   9
BRANCH   6  18
ATOM     18  C   UNL     1      48.064   6.915  13.578  0.00  0.00    +0.000 C 
BRANCH  18  19
ATOM     19  N   UNL     1      47.968   6.961  15.020  0.00  0.00    +0.000 N 
ATOM     20  C   UNL     1      49.060   6.788  15.828  0.00  0.00    +0.000 C 
ATOM     21  O   UNL     1      50.190   6.612  15.382  0.00  0.00    +0.000 OA
ATOM     22  H   UNL     1      47.038   6.957  15.420  0.00  0.00    +0.000 HD
BRANCH  20  23
ATOM     23  C   UNL     1      48.814   6.890  17.274  0.00  0.00    +0.000 A 
ATOM     24  C   UNL     1      48.985   5.780  18.090  0.00  0.00    +0.000 A 
ATOM     25  S   UNL     1      48.730   6.105  19.746  0.00  0.00    +0.000 S 
ATOM     26  C   UNL     1      48.325   7.725  19.423  0.00  0.00    +0.000 A 
ATOM     27  N   UNL     1      47.987   8.577  20.428  0.00  0.00    +0.000 NA
ATOM     28  C   UNL     1      47.667   9.765  20.036  0.00  0.00    +0.000 A 
ATOM     29  N   UNL     1      47.650  10.176  18.728  0.00  0.00    +0.000 N 
ATOM     30  C   UNL     1      48.007   9.359  17.681  0.00  0.00    +0.000 A 
ATOM     31  O   UNL     1      48.015   9.773  16.527  0.00  0.00    +0.000 OA
ATOM     32  C   UNL     1      48.383   8.015  18.071  0.00  0.00    +0.000 A 
ATOM     33  H   UNL     1      47.388  11.120  18.486  0.00  0.00    +0.000 HD
ENDBRANCH  20  23
ENDBRANCH  18  19
ENDBRANCH   6  18
TORSDOF 8
ENDMDL
MODEL 5
REMARK VINA RESULT:    -6.704      1.968      2.741
REMARK INTER + INTRA:         -11.098
REMARK INTER:                 -10.017
REMARK INTRA:                  -1.082
REMARK UNBOUND:                -1.259
REMARK  Name = 
REMARK  9 active torsions:
REMARK  status: ('A' for Active; 'I' for Inactive)
REMARK    1  A    between atoms: C_1  and  O_2
REMARK    2  A    between atoms: O_2  and  C_3
REMARK    3  A    between atoms: C_5  and  C_6
REMARK    4  A    between atoms: C_6  and  O_7
REMARK    5  A    between atoms: O_7  and  C_8
REMARK    6  A    between atoms: C_8  and  C_9
REMARK    7  A    between atoms: C_16  and  C_17
REMARK    8  A    between atoms: C_17  and  N_18
REMARK    9  A    between atoms: C_19  and  C_21
REMARK                            x       y       z     vdW  Elec       q    Type
REMARK                         _______ _______ _______ _____ _____    ______ ____
ROOT
ATOM      1  C   UNL     1      44.703   8.021  11.589  0.00  0.00    +0.000 A 
ATOM      2  C   UNL     1      43.911   6.921  11.233  0.00  0.00    +0.000 A 
ATOM      3  C   UNL     1      44.184   5.636  11.729  0.00  0.00    +0.000 A 
ATOM      4  C   UNL     1      45.278   5.462  12.583  0.00  0.00    +0.000 A 
ATOM      5  C   UNL     1      46.068   6.554  12.950  0.00  0.00    +0.000 A 
ATOM      6  C   UNL     1      45.794   7.841  12.459  0.00  0.00    +0.000 A 
ENDROOT
BRANCH   1   8
ATOM      7  C   UNL     1      43.202   9.626  10.670  0.00  0.00    +0.000 C 
ATOM      8  O   UNL     1      44.510   9.294  11.118  0.00  0.00    +0.000 OA
ENDBRANCH   1   8
BRANCH   3   9
ATOM      9  C   UNL     1      43.287   4.474  11.383  0.00  0.00    +0.000 C 
BRANCH   9  10
ATOM     10  O   UNL     1      43.544   4.038  10.049  0.00  0.00    +0.000 OA
BRANCH  10  11
ATOM     11  C   UNL     1      44.209   2.773  10.056  0.00  0.00    +0.000 C 
BRANCH  11  12
ATOM     12  C   UNL     1      45.180   2.758   8.932  0.00  0.00    +0.000 A 
ATOM     13  C   UNL     1      45.959   1.726   8.431  0.00  0.00    +0.000 A 
ATOM     14  C   UNL     1      46.716   2.242   7.353  0.00  0.00    +0.000 A 
ATOM     15  C   UNL     1      46.388   3.574   7.221  0.00  0.00    +0.000 A 
ATOM     16  N   UNL     1      45.464   3.877   8.182  0.00  0.00    +0.000 N 
ATOM     17  H   UNL     1      45.034   4.783   8.344  0.00  0.00    +0.000 HD
ENDBRANCH  11  12
ENDBRANCH  10  11
ENDBRANCH   9  10
ENDBRANCH   3   9
BRANCH   6  18
ATOM     18  C   UNL     1      46.628   9.003  12.950  0.00  0.00    +0.000 C 
BRANCH  18  19
ATOM     19  N   UNL     1      47.024   8.810  14.327  0.00  0.00    +0.000 N 
ATOM     20  C   UNL     1      48.336   8.841  14.719  0.00  0.00    +0.000 C 
ATOM     21  O   UNL     1      49.254   9.064  13.935  0.00  0.00    +0.000 OA
ATOM     22  H   UNL     1      46.313   8.482  14.969  0.00  0.00    +0.000 HD
BRANCH  20  23
ATOM     23  C   UNL     1      48.583   8.658  16.156  0.00  0.00    +0.000 A 
ATOM     24  C   UNL     1      48.702   9.762  16.989  0.00  0.00    +0.000 A 
ATOM     25  S   UNL     1      48.910   9.358  18.634  0.00  0.00    +0.000 S 
ATOM     26  C   UNL     1      48.907   7.693  18.282  0.00  0.00    +0.000 A 
ATOM     27  N   UNL     1      49.052   6.768  19.269  0.00  0.00    +0.000 NA
ATOM     28  C   UNL     1      49.069   5.545  18.854  0.00  0.00    +0.000 A 
ATOM     29  N   UNL     1      48.955   5.164  17.542  0.00  0.00    +0.000 N 
ATOM     30  C   UNL     1      48.781   6.060  16.515  0.00  0.00    +0.000 A 
ATOM     31  O   UNL     1      48.647   5.681  15.356  0.00  0.00    +0.000 OA
ATOM     32  C   UNL     1      48.749   7.449  16.929  0.00  0.00    +0.000 A 
ATOM     33  H   UNL     1      48.977   4.189  17.283  0.00  0.00    +0.000 HD
ENDBRANCH  20  23
ENDBRANCH  18  19
ENDBRANCH   6  18
TORSDOF 8
ENDMDL
MODEL 6
REMARK VINA RESULT:    -6.659      2.914      8.540
REMARK INTER + INTRA:         -11.031
REMARK INTER:                  -9.500
REMARK INTRA:                  -1.531
REMARK UNBOUND:                -1.259
REMARK  Name = 
REMARK  9 active torsions:
REMARK  status: ('A' for Active; 'I' for Inactive)
REMARK    1  A    between atoms: C_1  and  O_2
REMARK    2  A    between atoms: O_2  and  C_3
REMARK    3  A    between atoms: C_5  and  C_6
REMARK    4  A    between atoms: C_6  and  O_7
REMARK    5  A    between atoms: O_7  and  C_8
REMARK    6  A    between atoms: C_8  and  C_9
REMARK    7  A    between atoms: C_16  and  C_17
REMARK    8  A    between atoms: C_17  and  N_18
REMARK    9  A    between atoms: C_19  and  C_21
REMARK                            x       y       z     vdW  Elec       q    Type
REMARK                         _______ _______ _______ _____ _____    ______ ____
ROOT
ATOM      1  C   UNL     1      49.420   7.664  13.088  0.00  0.00    +0.000 A 
ATOM      2  C   UNL     1      50.167   7.633  14.274  0.00  0.00    +0.000 A 
ATOM      3  C   UNL     1      49.621   8.078  15.489  0.00  0.00    +0.000 A 
ATOM      4  C   UNL     1      48.312   8.569  15.500  0.00  0.00    +0.000 A 
ATOM      5  C   UNL     1      47.557   8.596  14.325  0.00  0.00    +0.000 A 
ATOM      6  C   UNL     1      48.099   8.147  13.109  0.00  0.00    +0.000 A 
ENDROOT
BRANCH   1   8
ATOM      7  C   UNL     1      50.960   8.044  11.312  0.00  0.00    +0.000 C 
ATOM      8  O   UNL     1      49.900   7.274  11.865  0.00  0.00    +0.000 OA
ENDBRANCH   1   8
BRANCH   3   9
ATOM      9  C   UNL     1      50.417   7.983  16.766  0.00  0.00    +0.000 C 
BRANCH   9  10
ATOM     10  O   UNL     1      49.812   7.041  17.651  0.00  0.00    +0.000 OA
BRANCH  10  11
ATOM     11  C   UNL     1      50.317   5.727  17.404  0.00  0.00    +0.000 C 
BRANCH  11  12
ATOM     12  C   UNL     1      49.161   4.796  17.333  0.00  0.00    +0.000 A 
ATOM     13  C   UNL     1      49.061   3.460  17.686  0.00  0.00    +0.000 A 
ATOM     14  C   UNL     1      47.737   3.040  17.416  0.00  0.00    +0.000 A 
ATOM     15  C   UNL     1      47.059   4.125  16.903  0.00  0.00    +0.000 A 
ATOM     16  N   UNL     1      47.929   5.179  16.852  0.00  0.00    +0.000 N 
ATOM     17  H   UNL     1      47.727   6.115  16.514  0.00  0.00    +0.000 HD
ENDBRANCH  11  12
ENDBRANCH  10  11
ENDBRANCH   9  10
ENDBRANCH   3   9
BRANCH   6  18
ATOM     18  C   UNL     1      47.215   8.120  11.882  0.00  0.00    +0.000 C 
BRANCH  18  19
ATOM     19  N   UNL     1      46.582   6.829  11.730  0.00  0.00    +0.000 N 
ATOM     20  C   UNL     1      45.227   6.695  11.586  0.00  0.00    +0.000 C 
ATOM     21  O   UNL     1      44.468   7.660  11.547  0.00  0.00    +0.000 OA
ATOM     22  H   UNL     1      47.155   6.012  11.902  0.00  0.00    +0.000 HD
BRANCH  20  23
ATOM     23  C   UNL     1      44.730   5.323  11.411  0.00  0.00    +0.000 A 
ATOM     24  C   UNL     1      44.016   4.707  12.429  0.00  0.00    +0.000 A 
ATOM     25  S   UNL     1      43.453   3.147  12.020  0.00  0.00    +0.000 S 
ATOM     26  C   UNL     1      44.196   3.220  10.491  0.00  0.00    +0.000 A 
ATOM     27  N   UNL     1      44.105   2.181   9.618  0.00  0.00    +0.000 NA
ATOM     28  C   UNL     1      44.747   2.356   8.512  0.00  0.00    +0.000 A 
ATOM     29  N   UNL     1      45.474   3.476   8.201  0.00  0.00    +0.000 N 
ATOM     30  C   UNL     1      45.574   4.561   9.040  0.00  0.00    +0.000 A 
ATOM     31  O   UNL     1      46.203   5.562   8.712  0.00  0.00    +0.000 OA
ATOM     32  C   UNL     1      44.863   4.416  10.295  0.00  0.00    +0.000 A 
ATOM     33  H   UNL     1      45.955   3.552   7.317  0.00  0.00    +0.000 HD
ENDBRANCH  20  23
ENDBRANCH  18  19
ENDBRANCH   6  18
TORSDOF 8
ENDMDL
MODEL 7
REMARK VINA RESULT:    -6.567      2.684      3.783
REMARK INTER + INTRA:         -10.896
REMARK INTER:                  -9.609
REMARK INTRA:                  -1.287
REMARK UNBOUND:                -1.259
REMARK  Name = 
REMARK  9 active torsions:
REMARK  status: ('A' for Active; 'I' for Inactive)
REMARK    1  A    between atoms: C_1  and  O_2
REMARK    2  A    between atoms: O_2  and  C_3
REMARK    3  A    between atoms: C_5  and  C_6
REMARK    4  A    between atoms: C_6  and  O_7
REMARK    5  A    between atoms: O_7  and  C_8
REMARK    6  A    between atoms: C_8  and  C_9
REMARK    7  A    between atoms: C_16  and  C_17
REMARK    8  A    between atoms: C_17  and  N_18
REMARK    9  A    between atoms: C_19  and  C_21
REMARK                            x       y       z     vdW  Elec       q    Type
REMARK                         _______ _______ _______ _____ _____    ______ ____
ROOT
ATOM      1  C   UNL     1      47.806   6.112  14.503  0.00  0.00    +0.000 A 
ATOM      2  C   UNL     1      47.438   6.455  13.195  0.00  0.00    +0.000 A 
ATOM      3  C   UNL     1      46.528   5.671  12.467  0.00  0.00    +0.000 A 
ATOM      4  C   UNL     1      45.995   4.525  13.065  0.00  0.00    +0.000 A 
ATOM      5  C   UNL     1      46.351   4.180  14.370  0.00  0.00    +0.000 A 
ATOM      6  C   UNL     1      47.258   4.964  15.103  0.00  0.00    +0.000 A 
ENDROOT
BRANCH   1   8
ATOM      7  C   UNL     1      49.839   7.350  14.579  0.00  0.00    +0.000 C 
ATOM      8  O   UNL     1      48.710   6.813  15.257  0.00  0.00    +0.000 OA
ENDBRANCH   1   8
BRANCH   3   9
ATOM      9  C   UNL     1      46.096   6.086  11.082  0.00  0.00    +0.000 C 
BRANCH   9  10
ATOM     10  O   UNL     1      45.491   4.984  10.407  0.00  0.00    +0.000 OA
BRANCH  10  11
ATOM     11  C   UNL     1      45.624   5.130   8.992  0.00  0.00    +0.000 C 
BRANCH  11  12
ATOM     12  C   UNL     1      45.930   3.794   8.418  0.00  0.00    +0.000 A 
ATOM     13  C   UNL     1      46.581   3.448   7.245  0.00  0.00    +0.000 A 
ATOM     14  C   UNL     1      46.606   2.035   7.166  0.00  0.00    +0.000 A 
ATOM     15  C   UNL     1      45.969   1.550   8.287  0.00  0.00    +0.000 A 
ATOM     16  N   UNL     1      45.559   2.620   9.034  0.00  0.00    +0.000 N 
ATOM     17  H   UNL     1      45.054   2.586   9.915  0.00  0.00    +0.000 HD
ENDBRANCH  11  12
ENDBRANCH  10  11
ENDBRANCH   9  10
ENDBRANCH   3   9
BRANCH   6  18
ATOM     18  C   UNL     1      47.547   4.595  16.541  0.00  0.00    +0.000 C 
BRANCH  18  19
ATOM     19  N   UNL     1      48.953   4.319  16.730  0.00  0.00    +0.000 N 
ATOM     20  C   UNL     1      49.599   4.602  17.904  0.00  0.00    +0.000 C 
ATOM     21  O   UNL     1      49.021   5.080  18.877  0.00  0.00    +0.000 OA
ATOM     22  H   UNL     1      49.488   4.064  15.909  0.00  0.00    +0.000 HD
BRANCH  20  23
ATOM     23  C   UNL     1      51.022   4.240  17.961  0.00  0.00    +0.000 A 
ATOM     24  C   UNL     1      51.971   5.193  18.304  0.00  0.00    +0.000 A 
ATOM     25  S   UNL     1      53.559   4.575  18.393  0.00  0.00    +0.000 S 
ATOM     26  C   UNL     1      53.042   3.025  17.920  0.00  0.00    +0.000 A 
ATOM     27  N   UNL     1      53.926   1.999  17.792  0.00  0.00    +0.000 NA
ATOM     28  C   UNL     1      53.402   0.890  17.390  0.00  0.00    +0.000 A 
ATOM     29  N   UNL     1      52.073   0.715  17.102  0.00  0.00    +0.000 N 
ATOM     30  C   UNL     1      51.139   1.713  17.240  0.00  0.00    +0.000 A 
ATOM     31  O   UNL     1      49.951   1.510  17.008  0.00  0.00    +0.000 OA
ATOM     32  C   UNL     1      51.676   2.980  17.697  0.00  0.00    +0.000 A 
ATOM     33  H   UNL     1      51.725  -0.179  16.790  0.00  0.00    +0.000 HD
ENDBRANCH  20  23
ENDBRANCH  18  19
ENDBRANCH   6  18
TORSDOF 8
ENDMDL
MODEL 8
REMARK VINA RESULT:    -6.378      3.310      7.927
REMARK INTER + INTRA:         -10.620
REMARK INTER:                  -8.786
REMARK INTRA:                  -1.834
REMARK UNBOUND:                -1.259
REMARK  Name = 
REMARK  9 active torsions:
REMARK  status: ('A' for Active; 'I' for Inactive)
REMARK    1  A    between atoms: C_1  and  O_2
REMARK    2  A    between atoms: O_2  and  C_3
REMARK    3  A    between atoms: C_5  and  C_6
REMARK    4  A    between atoms: C_6  and  O_7
REMARK    5  A    between atoms: O_7  and  C_8
REMARK    6  A    between atoms: C_8  and  C_9
REMARK    7  A    between atoms: C_16  and  C_17
REMARK    8  A    between atoms: C_17  and  N_18
REMARK    9  A    between atoms: C_19  and  C_21
REMARK                            x       y       z     vdW  Elec       q    Type
REMARK                         _______ _______ _______ _____ _____    ______ ____
ROOT
ATOM      1  C   UNL     1      49.652   7.854  16.438  0.00  0.00    +0.000 A 
ATOM      2  C   UNL     1      49.955   7.246  17.664  0.00  0.00    +0.000 A 
ATOM      3  C   UNL     1      49.262   7.587  18.837  0.00  0.00    +0.000 A 
ATOM      4  C   UNL     1      48.261   8.561  18.768  0.00  0.00    +0.000 A 
ATOM      5  C   UNL     1      47.946   9.166  17.550  0.00  0.00    +0.000 A 
ATOM      6  C   UNL     1      48.635   8.823  16.374  0.00  0.00    +0.000 A 
ENDROOT
BRANCH   1   8
ATOM      7  C   UNL     1      51.696   7.899  15.216  0.00  0.00    +0.000 C 
ATOM      8  O   UNL     1      50.309   7.590  15.264  0.00  0.00    +0.000 OA
ENDBRANCH   1   8
BRANCH   3   9
ATOM      9  C   UNL     1      49.561   6.882  20.136  0.00  0.00    +0.000 C 
BRANCH   9  10
ATOM     10  O   UNL     1      49.957   5.535  19.882  0.00  0.00    +0.000 OA
BRANCH  10  11
ATOM     11  C   UNL     1      48.886   4.635  20.173  0.00  0.00    +0.000 C 
BRANCH  11  12
ATOM     12  C   UNL     1      48.426   4.038  18.892  0.00  0.00    +0.000 A 
ATOM     13  C   UNL     1      49.025   3.093  18.075  0.00  0.00    +0.000 A 
ATOM     14  C   UNL     1      48.168   2.873  16.970  0.00  0.00    +0.000 A 
ATOM     15  C   UNL     1      47.070   3.689  17.134  0.00  0.00    +0.000 A 
ATOM     16  N   UNL     1      47.237   4.392  18.294  0.00  0.00    +0.000 N 
ATOM     17  H   UNL     1      46.599   5.080  18.683  0.00  0.00    +0.000 HD
ENDBRANCH  11  12
ENDBRANCH  10  11
ENDBRANCH   9  10
ENDBRANCH   3   9
BRANCH   6  18
ATOM     18  C   UNL     1      48.201   9.446  15.066  0.00  0.00    +0.000 C 
BRANCH  18  19
ATOM     19  N   UNL     1      47.187   8.642  14.422  0.00  0.00    +0.000 N 
ATOM     20  C   UNL     1      47.413   7.999  13.234  0.00  0.00    +0.000 C 
ATOM     21  O   UNL     1      48.497   8.039  12.657  0.00  0.00    +0.000 OA
ATOM     22  H   UNL     1      46.246   8.705  14.790  0.00  0.00    +0.000 HD
BRANCH  20  23
ATOM     23  C   UNL     1      46.298   7.195  12.714  0.00  0.00    +0.000 A 
ATOM     24  C   UNL     1      45.240   7.812  12.060  0.00  0.00    +0.000 A 
ATOM     25  S   UNL     1      44.078   6.717  11.458  0.00  0.00    +0.000 S 
ATOM     26  C   UNL     1      44.918   5.385  12.101  0.00  0.00    +0.000 A 
ATOM     27  N   UNL     1      44.449   4.118  11.945  0.00  0.00    +0.000 NA
ATOM     28  C   UNL     1      45.167   3.209  12.516  0.00  0.00    +0.000 A 
ATOM     29  N   UNL     1      46.310   3.454  13.232  0.00  0.00    +0.000 N 
ATOM     30  C   UNL     1      46.836   4.713  13.396  0.00  0.00    +0.000 A 
ATOM     31  O   UNL     1      47.882   4.890  14.012  0.00  0.00    +0.000 OA
ATOM     32  C   UNL     1      46.070   5.770  12.766  0.00  0.00    +0.000 A 
ATOM     33  H   UNL     1      46.827   2.698  13.656  0.00  0.00    +0.000 HD
ENDBRANCH  20  23
ENDBRANCH  18  19
ENDBRANCH   6  18
TORSDOF 8
ENDMDL
MODEL 9
REMARK VINA RESULT:    -6.343      2.606      3.590
REMARK INTER + INTRA:         -10.568
REMARK INTER:                  -9.353
REMARK INTRA:                  -1.214
REMARK UNBOUND:                -1.259
REMARK  Name = 
REMARK  9 active torsions:
REMARK  status: ('A' for Active; 'I' for Inactive)
REMARK    1  A    between atoms: C_1  and  O_2
REMARK    2  A    between atoms: O_2  and  C_3
REMARK    3  A    between atoms: C_5  and  C_6
REMARK    4  A    between atoms: C_6  and  O_7
REMARK    5  A    between atoms: O_7  and  C_8
REMARK    6  A    between atoms: C_8  and  C_9
REMARK    7  A    between atoms: C_16  and  C_17
REMARK    8  A    between atoms: C_17  and  N_18
REMARK    9  A    between atoms: C_19  and  C_21
REMARK                            x       y       z     vdW  Elec       q    Type
REMARK                         _______ _______ _______ _____ _____    ______ ____
ROOT
ATOM      1  C   UNL     1      45.472   8.245  12.243  0.00  0.00    +0.000 A 
ATOM      2  C   UNL     1      44.470   7.334  11.879  0.00  0.00    +0.000 A 
ATOM      3  C   UNL     1      44.790   6.055  11.398  0.00  0.00    +0.000 A 
ATOM      4  C   UNL     1      46.137   5.699  11.272  0.00  0.00    +0.000 A 
ATOM      5  C   UNL     1      47.142   6.597  11.639  0.00  0.00    +0.000 A 
ATOM      6  C   UNL     1      46.824   7.876  12.126  0.00  0.00    +0.000 A 
ENDROOT
BRANCH   1   8
ATOM      7  C   UNL     1      44.765  10.462  11.733  0.00  0.00    +0.000 C 
ATOM      8  O   UNL     1      45.230   9.518  12.689  0.00  0.00    +0.000 OA
ENDBRANCH   1   8
BRANCH   3   9
ATOM      9  C   UNL     1      43.700   5.065  11.067  0.00  0.00    +0.000 C 
BRANCH   9  10
ATOM     10  O   UNL     1      43.871   4.576   9.738  0.00  0.00    +0.000 OA
BRANCH  10  11
ATOM     11  C   UNL     1      44.160   3.176   9.754  0.00  0.00    +0.000 C 
BRANCH  11  12
ATOM     12  C   UNL     1      45.230   2.916   8.756  0.00  0.00    +0.000 A 
ATOM     13  C   UNL     1      45.848   3.771   7.858  0.00  0.00    +0.000 A 
ATOM     14  C   UNL     1      46.800   3.018   7.131  0.00  0.00    +0.000 A 
ATOM     15  C   UNL     1      46.741   1.722   7.597  0.00  0.00    +0.000 A 
ATOM     16  N   UNL     1      45.786   1.670   8.574  0.00  0.00    +0.000 N 
ATOM     17  H   UNL     1      45.505   0.849   9.103  0.00  0.00    +0.000 HD
ENDBRANCH  11  12
ENDBRANCH  10  11
ENDBRANCH   9  10
ENDBRANCH   3   9
BRANCH   6  18
ATOM     18  C   UNL     1      47.945   8.781  12.586  0.00  0.00    +0.000 C 
BRANCH  18  19
ATOM     19  N   UNL     1      48.815   8.094  13.515  0.00  0.00    +0.000 N 
ATOM     20  C   UNL     1      48.654   8.191  14.872  0.00  0.00    +0.000 C 
ATOM     21  O   UNL     1      47.746   8.840  15.384  0.00  0.00    +0.000 OA
ATOM     22  H   UNL     1      49.653   7.674  13.135  0.00  0.00    +0.000 HD
BRANCH  20  23
ATOM     23  C   UNL     1      49.596   7.414  15.689  0.00  0.00    +0.000 A 
ATOM     24  C   UNL     1      49.136   6.682  16.775  0.00  0.00    +0.000 A 
ATOM     25  S   UNL     1      50.357   5.783  17.559  0.00  0.00    +0.000 S 
ATOM     26  C   UNL     1      51.552   6.387  16.510  0.00  0.00    +0.000 A 
ATOM     27  N   UNL     1      52.853   6.013  16.640  0.00  0.00    +0.000 NA
ATOM     28  C   UNL     1      53.657   6.577  15.802  0.00  0.00    +0.000 A 
ATOM     29  N   UNL     1      53.277   7.485  14.847  0.00  0.00    +0.000 N 
ATOM     30  C   UNL     1      51.972   7.875  14.662  0.00  0.00    +0.000 A 
ATOM     31  O   UNL     1      51.664   8.661  13.773  0.00  0.00    +0.000 OA
ATOM     32  C   UNL     1      51.027   7.262  15.575  0.00  0.00    +0.000 A 
ATOM     33  H   UNL     1      53.956   7.892  14.222  0.00  0.00    +0.000 HD
ENDBRANCH  20  23
ENDBRANCH  18  19
ENDBRANCH   6  18
TORSDOF 8
ENDMDL
