MODEL 1
REMARK VINA RESULT:    -6.029      0.000      0.000
REMARK INTER + INTRA:          -9.697
REMARK INTER:                  -8.144
REMARK INTRA:                  -1.554
REMARK UNBOUND:                -1.554
REMARK  Name = 
REMARK  9 active torsions:
REMARK  status: ('A' for Active; 'I' for Inactive)
REMARK    1  A    between atoms: C_1  and  C_2
REMARK    2  A    between atoms: C_2  and  C_3
REMARK    3  A    between atoms: C_2  and  C_4
REMARK    4  A    between atoms: C_2  and  C_14
REMARK    5  A    between atoms: C_4  and  N_5
REMARK    6  A    between atoms: N_5  and  C_6
REMARK    7  A    between atoms: C_9  and  C_10
REMARK    8  A    between atoms: C_18  and  C_19
REMARK    9  A    between atoms: C_19  and  C_20
REMARK                            x       y       z     vdW  Elec       q    Type
REMARK                         _______ _______ _______ _____ _____    ______ ____
ROOT
ATOM      1  C   UNL     1      49.824   7.828  12.478  0.00  0.00    +0.000 C 
ATOM      2  C   UNL     1      49.084   8.241  13.772  0.00  0.00    +0.000 C 
ATOM      3  C   UNL     1      49.311   9.757  13.979  0.00  0.00    +0.000 C 
ENDROOT
BRANCH   2   4
ATOM      4  C   UNL     1      49.636   7.392  14.939  0.00  0.00    +0.000 A 
ATOM      5  C   UNL     1      50.975   7.441  15.352  0.00  0.00    +0.000 A 
ATOM      6  C   UNL     1      51.431   6.648  16.403  0.00  0.00    +0.000 A 
ATOM      7  C   UNL     1      50.549   5.811  17.079  0.00  0.00    +0.000 A 
ATOM      8  C   UNL     1      49.188   5.756  16.732  0.00  0.00    +0.000 A 
ATOM      9  C   UNL     1      48.766   6.532  15.643  0.00  0.00    +0.000 A 
BRANCH   8  10
ATOM     10  C   UNL     1      48.222   4.899  17.563  0.00  0.00    +0.000 C 
ATOM     11  C   UNL     1      47.539   5.780  18.618  0.00  0.00    +0.000 C 
ATOM     12  C   UNL     1      47.240   4.194  16.619  0.00  0.00    +0.000 C 
ATOM     13  C   UNL     1      47.933   2.882  16.275  0.00  0.00    +0.000 C 
ATOM     14  O   UNL     1      48.966   2.660  17.245  0.00  0.00    +0.000 OA
ATOM     15  C   UNL     1      48.821   3.664  18.256  0.00  0.00    +0.000 C 
ENDBRANCH   8  10
ENDBRANCH   2   4
BRANCH   2  16
ATOM     16  C   UNL     1      47.545   7.983  13.649  0.00  0.00    +0.000 C 
BRANCH  16  17
ATOM     17  N   UNL     1      47.170   7.509  12.312  0.00  0.00    +0.000 N 
ATOM     18  H   UNL     1      47.946   7.525  11.655  0.00  0.00    +0.000 HD
BRANCH  17  19
ATOM     19  C   UNL     1      46.432   6.326  12.185  0.00  0.00    +0.000 A 
ATOM     20  C   UNL     1      46.266   5.411  13.232  0.00  0.00    +0.000 A 
ATOM     21  C   UNL     1      45.409   4.314  13.100  0.00  0.00    +0.000 A 
ATOM     22  C   UNL     1      44.686   4.123  11.921  0.00  0.00    +0.000 A 
ATOM     23  C   UNL     1      44.842   5.028  10.867  0.00  0.00    +0.000 A 
ATOM     24  C   UNL     1      45.694   6.122  11.011  0.00  0.00    +0.000 A 
BRANCH  22  25
ATOM     25  C   UNL     1      43.775   3.028  11.804  0.00  0.00    +0.000 C 
ATOM     26  N   UNL     1      43.033   2.138  11.698  0.00  0.00    +0.000 NA
ENDBRANCH  22  25
ENDBRANCH  17  19
ENDBRANCH  16  17
ENDBRANCH   2  16
TORSDOF 6
ENDMDL
MODEL 2
REMARK VINA RESULT:    -5.465      2.580      4.418
REMARK INTER + INTRA:          -8.936
REMARK INTER:                  -7.969
REMARK INTRA:                  -0.967
REMARK UNBOUND:                -1.554
REMARK  Name = 
REMARK  9 active torsions:
REMARK  status: ('A' for Active; 'I' for Inactive)
REMARK    1  A    between atoms: C_1  and  C_2
REMARK    2  A    between atoms: C_2  and  C_3
REMARK    3  A    between atoms: C_2  and  C_4
REMARK    4  A    between atoms: C_2  and  C_14
REMARK    5  A    between atoms: C_4  and  N_5
REMARK    6  A    between atoms: N_5  and  C_6
REMARK    7  A    between atoms: C_9  and  C_10
REMARK    8  A    between atoms: C_18  and  C_19
REMARK    9  A    between atoms: C_19  and  C_20
REMARK                            x       y       z     vdW  Elec       q    Type
REMARK                         _______ _______ _______ _____ _____    ______ ____
ROOT
ATOM      1  C   UNL     1      48.723   6.370  16.949  0.00  0.00    +0.000 C 
ATOM      2  C   UNL     1      48.196   4.919  17.060  0.00  0.00    +0.000 C 
ATOM      3  C   UNL     1      47.194   4.873  18.236  0.00  0.00    +0.000 C 
ENDROOT
BRANCH   2   4
ATOM      4  C   UNL     1      49.404   3.979  17.269  0.00  0.00    +0.000 A 
ATOM      5  C   UNL     1      49.381   2.619  16.928  0.00  0.00    +0.000 A 
ATOM      6  C   UNL     1      50.491   1.806  17.146  0.00  0.00    +0.000 A 
ATOM      7  C   UNL     1      51.656   2.345  17.684  0.00  0.00    +0.000 A 
ATOM      8  C   UNL     1      51.745   3.711  18.004  0.00  0.00    +0.000 A 
ATOM      9  C   UNL     1      50.598   4.496  17.815  0.00  0.00    +0.000 A 
BRANCH   8  10
ATOM     10  C   UNL     1      53.075   4.294  18.500  0.00  0.00    +0.000 C 
ATOM     11  C   UNL     1      53.950   4.665  17.295  0.00  0.00    +0.000 C 
ATOM     12  C   UNL     1      52.788   5.472  19.439  0.00  0.00    +0.000 C 
ATOM     13  C   UNL     1      52.680   4.832  20.817  0.00  0.00    +0.000 C 
ATOM     14  O   UNL     1      53.276   3.529  20.746  0.00  0.00    +0.000 OA
ATOM     15  C   UNL     1      53.896   3.415  19.460  0.00  0.00    +0.000 C 
ENDBRANCH   8  10
ENDBRANCH   2   4
BRANCH   2  16
ATOM     16  C   UNL     1      47.447   4.492  15.754  0.00  0.00    +0.000 C 
BRANCH  16  17
ATOM     17  N   UNL     1      47.356   5.589  14.784  0.00  0.00    +0.000 N 
ATOM     18  H   UNL     1      48.255   6.024  14.596  0.00  0.00    +0.000 HD
BRANCH  17  19
ATOM     19  C   UNL     1      46.633   5.401  13.601  0.00  0.00    +0.000 A 
ATOM     20  C   UNL     1      46.680   6.294  12.523  0.00  0.00    +0.000 A 
ATOM     21  C   UNL     1      46.049   5.995  11.312  0.00  0.00    +0.000 A 
ATOM     22  C   UNL     1      45.371   4.784  11.152  0.00  0.00    +0.000 A 
ATOM     23  C   UNL     1      45.314   3.884  12.218  0.00  0.00    +0.000 A 
ATOM     24  C   UNL     1      45.953   4.188  13.420  0.00  0.00    +0.000 A 
BRANCH  22  25
ATOM     25  C   UNL     1      44.765   4.460   9.898  0.00  0.00    +0.000 C 
ATOM     26  N   UNL     1      44.264   4.189   8.883  0.00  0.00    +0.000 NA
ENDBRANCH  22  25
ENDBRANCH  17  19
ENDBRANCH  16  17
ENDBRANCH   2  16
TORSDOF 6
ENDMDL
MODEL 3
REMARK VINA RESULT:    -5.318      1.507      2.241
REMARK INTER + INTRA:          -8.737
REMARK INTER:                  -7.105
REMARK INTRA:                  -1.632
REMARK UNBOUND:                -1.554
REMARK  Name = 
REMARK  9 active torsions:
REMARK  status: ('A' for Active; 'I' for Inactive)
REMARK    1  A    between atoms: C_1  and  C_2
REMARK    2  A    between atoms: C_2  and  C_3
REMARK    3  A    between atoms: C_2  and  C_4
REMARK    4  A    between atoms: C_2  and  C_14
REMARK    5  A    between atoms: C_4  and  N_5
REMARK    6  A    between atoms: N_5  and  C_6
REMARK    7  A    between atoms: C_9  and  C_10
REMARK    8  A    between atoms: C_18  and  C_19
REMARK    9  A    between atoms: C_19  and  C_20
REMARK                            x       y       z     vdW  Elec       q    Type
REMARK                         _______ _______ _______ _____ _____    ______ ____
ROOT
ATOM      1  C   UNL     1      50.432   7.748  14.126  0.00  0.00    +0.000 C 
ATOM      2  C   UNL     1      49.296   8.695  14.580  0.00  0.00    +0.000 C 
ATOM      3  C   UNL     1      49.852  10.138  14.564  0.00  0.00    +0.000 C 
ENDROOT
BRANCH   2   4
ATOM      4  C   UNL     1      48.829   8.253  15.986  0.00  0.00    +0.000 A 
ATOM      5  C   UNL     1      48.292   9.143  16.927  0.00  0.00    +0.000 A 
ATOM      6  C   UNL     1      47.895   8.700  18.186  0.00  0.00    +0.000 A 
ATOM      7  C   UNL     1      48.001   7.352  18.519  0.00  0.00    +0.000 A 
ATOM      8  C   UNL     1      48.493   6.413  17.596  0.00  0.00    +0.000 A 
ATOM      9  C   UNL     1      48.926   6.893  16.352  0.00  0.00    +0.000 A 
BRANCH   8  10
ATOM     10  C   UNL     1      48.502   4.921  17.957  0.00  0.00    +0.000 C 
ATOM     11  C   UNL     1      47.226   4.259  17.422  0.00  0.00    +0.000 C 
ATOM     12  C   UNL     1      49.794   4.285  17.429  0.00  0.00    +0.000 C 
ATOM     13  C   UNL     1      50.787   4.456  18.572  0.00  0.00    +0.000 C 
ATOM     14  O   UNL     1      50.043   4.741  19.764  0.00  0.00    +0.000 OA
ATOM     15  C   UNL     1      48.655   4.575  19.449  0.00  0.00    +0.000 C 
ENDBRANCH   8  10
ENDBRANCH   2   4
BRANCH   2  16
ATOM     16  C   UNL     1      48.077   8.623  13.601  0.00  0.00    +0.000 C 
BRANCH  16  17
ATOM     17  N   UNL     1      48.159   7.466  12.702  0.00  0.00    +0.000 N 
ATOM     18  H   UNL     1      49.055   6.989  12.753  0.00  0.00    +0.000 HD
BRANCH  17  19
ATOM     19  C   UNL     1      47.103   6.548  12.668  0.00  0.00    +0.000 A 
ATOM     20  C   UNL     1      46.224   6.431  11.584  0.00  0.00    +0.000 A 
ATOM     21  C   UNL     1      45.271   5.408  11.537  0.00  0.00    +0.000 A 
ATOM     22  C   UNL     1      45.193   4.472  12.570  0.00  0.00    +0.000 A 
ATOM     23  C   UNL     1      46.062   4.576  13.658  0.00  0.00    +0.000 A 
ATOM     24  C   UNL     1      47.014   5.595  13.692  0.00  0.00    +0.000 A 
BRANCH  22  25
ATOM     25  C   UNL     1      44.249   3.400  12.499  0.00  0.00    +0.000 C 
ATOM     26  N   UNL     1      43.475   2.532  12.450  0.00  0.00    +0.000 NA
ENDBRANCH  22  25
ENDBRANCH  17  19
ENDBRANCH  16  17
ENDBRANCH   2  16
TORSDOF 6
ENDMDL
MODEL 4
REMARK VINA RESULT:    -4.843      4.087      7.429
REMARK INTER + INTRA:          -8.095
REMARK INTER:                  -7.265
REMARK INTRA:                  -0.830
REMARK UNBOUND:                -1.554
REMARK  Name = 
REMARK  9 active torsions:
REMARK  status: ('A' for Active; 'I' for Inactive)
REMARK    1  A    between atoms: C_1  and  C_2
REMARK    2  A    between atoms: C_2  and  C_3
REMARK    3  A    between atoms: C_2  and  C_4
REMARK    4  A    between atoms: C_2  and  C_14
REMARK    5  A    between atoms: C_4  and  N_5
REMARK    6  A    between atoms: N_5  and  C_6
REMARK    7  A    between atoms: C_9  and  C_10
REMARK    8  A    between atoms: C_18  and  C_19
REMARK    9  A    between atoms: C_19  and  C_20
REMARK                            x       y       z     vdW  Elec       q    Type
REMARK                         _______ _______ _______ _____ _____    ______ ____
ROOT
ATOM      1  C   UNL     1      48.222   6.258  18.325  0.00  0.00    +0.000 C 
ATOM      2  C   UNL     1      49.092   6.482  17.065  0.00  0.00    +0.000 C 
ATOM      3  C   UNL     1      49.380   7.998  16.958  0.00  0.00    +0.000 C 
ENDROOT
BRANCH   2   4
ATOM      4  C   UNL     1      48.323   5.935  15.842  0.00  0.00    +0.000 A 
ATOM      5  C   UNL     1      47.693   4.682  15.833  0.00  0.00    +0.000 A 
ATOM      6  C   UNL     1      47.021   4.226  14.702  0.00  0.00    +0.000 A 
ATOM      7  C   UNL     1      46.942   5.026  13.566  0.00  0.00    +0.000 A 
ATOM      8  C   UNL     1      47.521   6.306  13.537  0.00  0.00    +0.000 A 
ATOM      9  C   UNL     1      48.228   6.722  14.674  0.00  0.00    +0.000 A 
BRANCH   8  10
ATOM     10  C   UNL     1      47.329   7.203  12.306  0.00  0.00    +0.000 C 
ATOM     11  C   UNL     1      48.688   7.440  11.632  0.00  0.00    +0.000 C 
ATOM     12  C   UNL     1      46.284   6.567  11.380  0.00  0.00    +0.000 C 
ATOM     13  C   UNL     1      44.959   7.139  11.867  0.00  0.00    +0.000 C 
ATOM     14  O   UNL     1      45.244   8.295  12.666  0.00  0.00    +0.000 OA
ATOM     15  C   UNL     1      46.647   8.561  12.544  0.00  0.00    +0.000 C 
ENDBRANCH   8  10
ENDBRANCH   2   4
BRANCH   2  16
ATOM     16  C   UNL     1      50.456   5.725  17.181  0.00  0.00    +0.000 C 
BRANCH  16  17
ATOM     17  N   UNL     1      50.363   4.548  18.051  0.00  0.00    +0.000 N 
ATOM     18  H   UNL     1      49.416   4.189  18.130  0.00  0.00    +0.000 HD
BRANCH  17  19
ATOM     19  C   UNL     1      51.283   3.504  17.895  0.00  0.00    +0.000 A 
ATOM     20  C   UNL     1      52.619   3.593  18.304  0.00  0.00    +0.000 A 
ATOM     21  C   UNL     1      53.463   2.479  18.252  0.00  0.00    +0.000 A 
ATOM     22  C   UNL     1      52.978   1.249  17.804  0.00  0.00    +0.000 A 
ATOM     23  C   UNL     1      51.647   1.145  17.392  0.00  0.00    +0.000 A 
ATOM     24  C   UNL     1      50.811   2.260  17.454  0.00  0.00    +0.000 A 
BRANCH  22  25
ATOM     25  C   UNL     1      53.829   0.100  17.795  0.00  0.00    +0.000 C 
ATOM     26  N   UNL     1      54.515  -0.839  17.795  0.00  0.00    +0.000 NA
ENDBRANCH  22  25
ENDBRANCH  17  19
ENDBRANCH  16  17
ENDBRANCH   2  16
TORSDOF 6
ENDMDL
MODEL 5
REMARK VINA RESULT:    -4.532      3.049      5.830
REMARK INTER + INTRA:          -7.675
REMARK INTER:                  -6.586
REMARK INTRA:                  -1.089
REMARK UNBOUND:                -1.554
REMARK  Name = 
REMARK  9 active torsions:
REMARK  status: ('A' for Active; 'I' for Inactive)
REMARK    1  A    between atoms: C_1  and  C_2
REMARK    2  A    between atoms: C_2  and  C_3
REMARK    3  A    between atoms: C_2  and  C_4
REMARK    4  A    between atoms: C_2  and  C_14
REMARK    5  A    between atoms: C_4  and  N_5
REMARK    6  A    between atoms: N_5  and  C_6
REMARK    7  A    between atoms: C_9  and  C_10
REMARK    8  A    between atoms: C_18  and  C_19
REMARK    9  A    between atoms: C_19  and  C_20
REMARK                            x       y       z     vdW  Elec       q    Type
REMARK                         _______ _______ _______ _____ _____    ______ ____
ROOT
ATOM      1  C   UNL     1      47.413   4.989  18.273  0.00  0.00    +0.000 C 
ATOM      2  C   UNL     1      48.138   4.764  16.925  0.00  0.00    +0.000 C 
ATOM      3  C   UNL     1      47.121   4.136  15.944  0.00  0.00    +0.000 C 
ENDROOT
BRANCH   2   4
ATOM      4  C   UNL     1      49.361   3.853  17.179  0.00  0.00    +0.000 A 
ATOM      5  C   UNL     1      49.367   2.483  16.882  0.00  0.00    +0.000 A 
ATOM      6  C   UNL     1      50.490   1.699  17.139  0.00  0.00    +0.000 A 
ATOM      7  C   UNL     1      51.638   2.277  17.672  0.00  0.00    +0.000 A 
ATOM      8  C   UNL     1      51.697   3.653  17.949  0.00  0.00    +0.000 A 
ATOM      9  C   UNL     1      50.539   4.410  17.721  0.00  0.00    +0.000 A 
BRANCH   8  10
ATOM     10  C   UNL     1      53.011   4.277  18.441  0.00  0.00    +0.000 C 
ATOM     11  C   UNL     1      53.683   5.029  17.283  0.00  0.00    +0.000 C 
ATOM     12  C   UNL     1      52.720   5.159  19.662  0.00  0.00    +0.000 C 
ATOM     13  C   UNL     1      52.855   4.210  20.846  0.00  0.00    +0.000 C 
ATOM     14  O   UNL     1      53.571   3.050  20.402  0.00  0.00    +0.000 OA
ATOM     15  C   UNL     1      54.033   3.318  19.073  0.00  0.00    +0.000 C 
ENDBRANCH   8  10
ENDBRANCH   2   4
BRANCH   2  16
ATOM     16  C   UNL     1      48.638   6.118  16.320  0.00  0.00    +0.000 C 
BRANCH  16  17
ATOM     17  N   UNL     1      48.134   6.335  14.960  0.00  0.00    +0.000 N 
ATOM     18  H   UNL     1      47.165   6.640  14.942  0.00  0.00    +0.000 HD
BRANCH  17  19
ATOM     19  C   UNL     1      48.906   7.067  14.050  0.00  0.00    +0.000 A 
ATOM     20  C   UNL     1      50.106   7.700  14.400  0.00  0.00    +0.000 A 
ATOM     21  C   UNL     1      50.911   8.303  13.428  0.00  0.00    +0.000 A 
ATOM     22  C   UNL     1      50.536   8.268  12.083  0.00  0.00    +0.000 A 
ATOM     23  C   UNL     1      49.342   7.640  11.719  0.00  0.00    +0.000 A 
ATOM     24  C   UNL     1      48.550   7.036  12.695  0.00  0.00    +0.000 A 
BRANCH  22  25
ATOM     25  C   UNL     1      51.383   8.844  11.086  0.00  0.00    +0.000 C 
ATOM     26  N   UNL     1      52.079   9.304  10.275  0.00  0.00    +0.000 NA
ENDBRANCH  22  25
ENDBRANCH  17  19
ENDBRANCH  16  17
ENDBRANCH   2  16
TORSDOF 6
ENDMDL
MODEL 6
REMARK VINA RESULT:    -4.485      4.141      7.548
REMARK INTER + INTRA:          -7.612
REMARK INTER:                  -6.814
REMARK INTRA:                  -0.797
REMARK UNBOUND:                -1.554
REMARK  Name = 
REMARK  9 active torsions:
REMARK  status: ('A' for Active; 'I' for Inactive)
REMARK    1  A    between atoms: C_1  and  C_2
REMARK    2  A    between atoms: C_2  and  C_3
REMARK    3  A    between atoms: C_2  and  C_4
REMARK    4  A    between atoms: C_2  and  C_14
REMARK    5  A    between atoms: C_4  and  N_5
REMARK    6  A    between atoms: N_5  and  C_6
REMARK    7  A    between atoms: C_9  and  C_10
REMARK    8  A    between atoms: C_18  and  C_19
REMARK    9  A    between atoms: C_19  and  C_20
REMARK                            x       y       z     vdW  Elec       q    Type
REMARK                         _______ _______ _______ _____ _____    ______ ____
ROOT
ATOM      1  C   UNL     1      47.541   3.900  17.080  0.00  0.00    +0.000 C 
ATOM      2  C   UNL     1      48.342   5.202  16.838  0.00  0.00    +0.000 C 
ATOM      3  C   UNL     1      47.902   6.228  17.908  0.00  0.00    +0.000 C 
ENDROOT
BRANCH   2   4
ATOM      4  C   UNL     1      48.061   5.685  15.398  0.00  0.00    +0.000 A 
ATOM      5  C   UNL     1      48.819   6.680  14.764  0.00  0.00    +0.000 A 
ATOM      6  C   UNL     1      48.520   7.091  13.467  0.00  0.00    +0.000 A 
ATOM      7  C   UNL     1      47.474   6.495  12.769  0.00  0.00    +0.000 A 
ATOM      8  C   UNL     1      46.711   5.464  13.343  0.00  0.00    +0.000 A 
ATOM      9  C   UNL     1      47.005   5.101  14.665  0.00  0.00    +0.000 A 
BRANCH   8  10
ATOM     10  C   UNL     1      45.632   4.759  12.511  0.00  0.00    +0.000 C 
ATOM     11  C   UNL     1      45.826   3.239  12.606  0.00  0.00    +0.000 C 
ATOM     12  C   UNL     1      44.249   5.233  12.976  0.00  0.00    +0.000 C 
ATOM     13  C   UNL     1      43.964   6.454  12.110  0.00  0.00    +0.000 C 
ATOM     14  O   UNL     1      44.856   6.416  10.988  0.00  0.00    +0.000 OA
ATOM     15  C   UNL     1      45.537   5.157  11.028  0.00  0.00    +0.000 C 
ENDBRANCH   8  10
ENDBRANCH   2   4
BRANCH   2  16
ATOM     16  C   UNL     1      49.880   4.954  16.993  0.00  0.00    +0.000 C 
BRANCH  16  17
ATOM     17  N   UNL     1      50.191   4.134  18.169  0.00  0.00    +0.000 N 
ATOM     18  H   UNL     1      49.360   3.776  18.633  0.00  0.00    +0.000 HD
BRANCH  17  19
ATOM     19  C   UNL     1      51.177   3.144  18.074  0.00  0.00    +0.000 A 
ATOM     20  C   UNL     1      50.960   1.903  17.463  0.00  0.00    +0.000 A 
ATOM     21  C   UNL     1      52.012   1.002  17.271  0.00  0.00    +0.000 A 
ATOM     22  C   UNL     1      53.306   1.335  17.674  0.00  0.00    +0.000 A 
ATOM     23  C   UNL     1      53.538   2.569  18.286  0.00  0.00    +0.000 A 
ATOM     24  C   UNL     1      52.484   3.464  18.467  0.00  0.00    +0.000 A 
BRANCH  22  25
ATOM     25  C   UNL     1      54.389   0.431  17.435  0.00  0.00    +0.000 C 
ATOM     26  N   UNL     1      55.266  -0.305  17.230  0.00  0.00    +0.000 NA
ENDBRANCH  22  25
ENDBRANCH  17  19
ENDBRANCH  16  17
ENDBRANCH   2  16
TORSDOF 6
ENDMDL
MODEL 7
REMARK VINA RESULT:    -4.340     10.267     11.977
REMARK INTER + INTRA:          -7.416
REMARK INTER:                  -6.194
REMARK INTRA:                  -1.222
REMARK UNBOUND:                -1.554
REMARK  Name = 
REMARK  9 active torsions:
REMARK  status: ('A' for Active; 'I' for Inactive)
REMARK    1  A    between atoms: C_1  and  C_2
REMARK    2  A    between atoms: C_2  and  C_3
REMARK    3  A    between atoms: C_2  and  C_4
REMARK    4  A    between atoms: C_2  and  C_14
REMARK    5  A    between atoms: C_4  and  N_5
REMARK    6  A    between atoms: N_5  and  C_6
REMARK    7  A    between atoms: C_9  and  C_10
REMARK    8  A    between atoms: C_18  and  C_19
REMARK    9  A    between atoms: C_19  and  C_20
REMARK                            x       y       z     vdW  Elec       q    Type
REMARK                         _______ _______ _______ _____ _____    ______ ____
ROOT
ATOM      1  C   UNL     1      39.802  -3.695  17.120  0.00  0.00    +0.000 C 
ATOM      2  C   UNL     1      39.376  -2.334  16.520  0.00  0.00    +0.000 C 
ATOM      3  C   UNL     1      40.491  -1.879  15.549  0.00  0.00    +0.000 C 
ENDROOT
BRANCH   2   4
ATOM      4  C   UNL     1      39.156  -1.339  17.682  0.00  0.00    +0.000 A 
ATOM      5  C   UNL     1      39.776  -1.476  18.932  0.00  0.00    +0.000 A 
ATOM      6  C   UNL     1      39.538  -0.559  19.953  0.00  0.00    +0.000 A 
ATOM      7  C   UNL     1      38.696   0.527  19.735  0.00  0.00    +0.000 A 
ATOM      8  C   UNL     1      38.082   0.731  18.488  0.00  0.00    +0.000 A 
ATOM      9  C   UNL     1      38.305  -0.230  17.491  0.00  0.00    +0.000 A 
BRANCH   8  10
ATOM     10  C   UNL     1      37.240   1.993  18.249  0.00  0.00    +0.000 C 
ATOM     11  C   UNL     1      35.809   1.753  18.748  0.00  0.00    +0.000 C 
ATOM     12  C   UNL     1      37.932   3.190  18.914  0.00  0.00    +0.000 C 
ATOM     13  C   UNL     1      38.855   3.734  17.831  0.00  0.00    +0.000 C 
ATOM     14  O   UNL     1      38.419   3.204  16.572  0.00  0.00    +0.000 OA
ATOM     15  C   UNL     1      37.183   2.519  16.804  0.00  0.00    +0.000 C 
ENDBRANCH   8  10
ENDBRANCH   2   4
BRANCH   2  16
ATOM     16  C   UNL     1      38.042  -2.468  15.713  0.00  0.00    +0.000 C 
BRANCH  16  17
ATOM     17  N   UNL     1      38.279  -2.790  14.302  0.00  0.00    +0.000 N 
ATOM     18  H   UNL     1      37.944  -3.715  14.046  0.00  0.00    +0.000 HD
BRANCH  17  19
ATOM     19  C   UNL     1      37.951  -1.849  13.319  0.00  0.00    +0.000 A 
ATOM     20  C   UNL     1      37.289  -0.647  13.599  0.00  0.00    +0.000 A 
ATOM     21  C   UNL     1      37.105   0.322  12.607  0.00  0.00    +0.000 A 
ATOM     22  C   UNL     1      37.597   0.110  11.317  0.00  0.00    +0.000 A 
ATOM     23  C   UNL     1      38.258  -1.085  11.022  0.00  0.00    +0.000 A 
ATOM     24  C   UNL     1      38.443  -2.041  12.020  0.00  0.00    +0.000 A 
BRANCH  22  25
ATOM     25  C   UNL     1      37.448   1.120  10.316  0.00  0.00    +0.000 C 
ATOM     26  N   UNL     1      37.324   1.950   9.510  0.00  0.00    +0.000 NA
ENDBRANCH  22  25
ENDBRANCH  17  19
ENDBRANCH  16  17
ENDBRANCH   2  16
TORSDOF 6
ENDMDL
MODEL 8
REMARK VINA RESULT:    -4.259      2.785      4.532
REMARK INTER + INTRA:          -7.307
REMARK INTER:                  -6.740
REMARK INTRA:                  -0.567
REMARK UNBOUND:                -1.554
REMARK  Name = 
REMARK  9 active torsions:
REMARK  status: ('A' for Active; 'I' for Inactive)
REMARK    1  A    between atoms: C_1  and  C_2
REMARK    2  A    between atoms: C_2  and  C_3
REMARK    3  A    between atoms: C_2  and  C_4
REMARK    4  A    between atoms: C_2  and  C_14
REMARK    5  A    between atoms: C_4  and  N_5
REMARK    6  A    between atoms: N_5  and  C_6
REMARK    7  A    between atoms: C_9  and  C_10
REMARK    8  A    between atoms: C_18  and  C_19
REMARK    9  A    between atoms: C_19  and  C_20
REMARK                            x       y       z     vdW  Elec       q    Type
REMARK                         _______ _______ _______ _____ _____    ______ ____
ROOT
ATOM      1  C   UNL     1      47.682   5.193  18.599  0.00  0.00    +0.000 C 
ATOM      2  C   UNL     1      48.273   4.524  17.335  0.00  0.00    +0.000 C 
ATOM      3  C   UNL     1      48.052   2.999  17.464  0.00  0.00    +0.000 C 
ENDROOT
BRANCH   2   4
ATOM      4  C   UNL     1      49.768   4.904  17.240  0.00  0.00    +0.000 A 
ATOM      5  C   UNL     1      50.214   6.128  16.721  0.00  0.00    +0.000 A 
ATOM      6  C   UNL     1      51.573   6.421  16.644  0.00  0.00    +0.000 A 
ATOM      7  C   UNL     1      52.513   5.506  17.111  0.00  0.00    +0.000 A 
ATOM      8  C   UNL     1      52.116   4.283  17.678  0.00  0.00    +0.000 A 
ATOM      9  C   UNL     1      50.744   3.995  17.703  0.00  0.00    +0.000 A 
BRANCH   8  10
ATOM     10  C   UNL     1      53.171   3.341  18.276  0.00  0.00    +0.000 C 
ATOM     11  C   UNL     1      52.832   1.892  17.899  0.00  0.00    +0.000 C 
ATOM     12  C   UNL     1      54.563   3.789  17.812  0.00  0.00    +0.000 C 
ATOM     13  C   UNL     1      55.007   4.784  18.877  0.00  0.00    +0.000 C 
ATOM     14  O   UNL     1      54.180   4.592  20.032  0.00  0.00    +0.000 OA
ATOM     15  C   UNL     1      53.385   3.424  19.797  0.00  0.00    +0.000 C 
ENDBRANCH   8  10
ENDBRANCH   2   4
BRANCH   2  16
ATOM     16  C   UNL     1      47.546   5.022  16.042  0.00  0.00    +0.000 C 
BRANCH  16  17
ATOM     17  N   UNL     1      47.385   3.952  15.051  0.00  0.00    +0.000 N 
ATOM     18  H   UNL     1      47.205   3.046  15.475  0.00  0.00    +0.000 HD
BRANCH  17  19
ATOM     19  C   UNL     1      46.556   4.161  13.944  0.00  0.00    +0.000 A 
ATOM     20  C   UNL     1      46.314   5.426  13.395  0.00  0.00    +0.000 A 
ATOM     21  C   UNL     1      45.589   5.570  12.208  0.00  0.00    +0.000 A 
ATOM     22  C   UNL     1      45.106   4.444  11.538  0.00  0.00    +0.000 A 
ATOM     23  C   UNL     1      45.339   3.175  12.073  0.00  0.00    +0.000 A 
ATOM     24  C   UNL     1      46.069   3.041  13.254  0.00  0.00    +0.000 A 
BRANCH  22  25
ATOM     25  C   UNL     1      44.405   4.589  10.300  0.00  0.00    +0.000 C 
ATOM     26  N   UNL     1      43.842   4.701   9.288  0.00  0.00    +0.000 NA
ENDBRANCH  22  25
ENDBRANCH  17  19
ENDBRANCH  16  17
ENDBRANCH   2  16
TORSDOF 6
ENDMDL
MODEL 9
REMARK VINA RESULT:    -4.141     10.774     12.482
REMARK INTER + INTRA:          -7.147
REMARK INTER:                  -5.489
REMARK INTRA:                  -1.658
REMARK UNBOUND:                -1.554
REMARK  Name = 
REMARK  9 active torsions:
REMARK  status: ('A' for Active; 'I' for Inactive)
REMARK    1  A    between atoms: C_1  and  C_2
REMARK    2  A    between atoms: C_2  and  C_3
REMARK    3  A    between atoms: C_2  and  C_4
REMARK    4  A    between atoms: C_2  and  C_14
REMARK    5  A    between atoms: C_4  and  N_5
REMARK    6  A    between atoms: N_5  and  C_6
REMARK    7  A    between atoms: C_9  and  C_10
REMARK    8  A    between atoms: C_18  and  C_19
REMARK    9  A    between atoms: C_19  and  C_20
REMARK                            x       y       z     vdW  Elec       q    Type
REMARK                         _______ _______ _______ _____ _____    ______ ____
ROOT
ATOM      1  C   UNL     1      36.389  -2.893  13.151  0.00  0.00    +0.000 C 
ATOM      2  C   UNL     1      37.353  -2.080  12.256  0.00  0.00    +0.000 C 
ATOM      3  C   UNL     1      37.020  -2.413  10.783  0.00  0.00    +0.000 C 
ENDROOT
BRANCH   2   4
ATOM      4  C   UNL     1      38.803  -2.456  12.637  0.00  0.00    +0.000 A 
ATOM      5  C   UNL     1      39.863  -2.442  11.719  0.00  0.00    +0.000 A 
ATOM      6  C   UNL     1      41.152  -2.800  12.107  0.00  0.00    +0.000 A 
ATOM      7  C   UNL     1      41.411  -3.151  13.428  0.00  0.00    +0.000 A 
ATOM      8  C   UNL     1      40.393  -3.140  14.396  0.00  0.00    +0.000 A 
ATOM      9  C   UNL     1      39.097  -2.818  13.969  0.00  0.00    +0.000 A 
BRANCH   8  10
ATOM     10  C   UNL     1      40.733  -3.433  15.865  0.00  0.00    +0.000 C 
ATOM     11  C   UNL     1      40.939  -2.110  16.615  0.00  0.00    +0.000 C 
ATOM     12  C   UNL     1      39.633  -4.318  16.466  0.00  0.00    +0.000 C 
ATOM     13  C   UNL     1      40.105  -5.739  16.187  0.00  0.00    +0.000 C 
ATOM     14  O   UNL     1      41.503  -5.686  15.873  0.00  0.00    +0.000 OA
ATOM     15  C   UNL     1      41.944  -4.346  16.121  0.00  0.00    +0.000 C 
ENDBRANCH   8  10
ENDBRANCH   2   4
BRANCH   2  16
ATOM     16  C   UNL     1      37.160  -0.542  12.471  0.00  0.00    +0.000 C 
BRANCH  16  17
ATOM     17  N   UNL     1      36.403  -0.246  13.693  0.00  0.00    +0.000 N 
ATOM     18  H   UNL     1      35.958  -1.069  14.090  0.00  0.00    +0.000 HD
BRANCH  17  19
ATOM     19  C   UNL     1      36.994   0.536  14.693  0.00  0.00    +0.000 A 
ATOM     20  C   UNL     1      36.670   1.882  14.904  0.00  0.00    +0.000 A 
ATOM     21  C   UNL     1      37.184   2.582  15.999  0.00  0.00    +0.000 A 
ATOM     22  C   UNL     1      38.020   1.941  16.916  0.00  0.00    +0.000 A 
ATOM     23  C   UNL     1      38.353   0.598  16.718  0.00  0.00    +0.000 A 
ATOM     24  C   UNL     1      37.829  -0.094  15.626  0.00  0.00    +0.000 A 
BRANCH  22  25
ATOM     25  C   UNL     1      38.508   2.646  18.060  0.00  0.00    +0.000 C 
ATOM     26  N   UNL     1      38.915   3.215  18.990  0.00  0.00    +0.000 NA
ENDBRANCH  22  25
ENDBRANCH  17  19
ENDBRANCH  16  17
ENDBRANCH   2  16
TORSDOF 6
ENDMDL
