MODEL 1
REMARK VINA RESULT:    -7.987      0.000      0.000
REMARK INTER + INTRA:         -11.223
REMARK INTER:                 -10.555
REMARK INTRA:                  -0.667
REMARK UNBOUND:                -0.667
REMARK  Name = 
REMARK  6 active torsions:
REMARK  status: ('A' for Active; 'I' for Inactive)
REMARK    1  A    between atoms: N_1  and  C_2
REMARK    2  A    between atoms: C_2  and  C_3
REMARK    3  A    between atoms: C_3  and  C_4
REMARK    4  A    between atoms: C_7  and  C_8
REMARK    5  A    between atoms: C_8  and  N_9
REMARK    6  A    between atoms: C_15  and  C_16
REMARK                            x       y       z     vdW  Elec       q    Type
REMARK                         _______ _______ _______ _____ _____    ______ ____
ROOT
ATOM      1  N   UNL     1      44.689   6.069  11.463  0.00  0.00    +0.000 N 
ATOM      2  C   UNL     1      44.795   7.399  11.158  0.00  0.00    +0.000 A 
ATOM      3  N   UNL     1      45.703   8.000  11.894  0.00  0.00    +0.000 NA
ATOM      4  C   UNL     1      46.193   7.024  12.716  0.00  0.00    +0.000 A 
ATOM      5  N   UNL     1      47.154   7.201  13.647  0.00  0.00    +0.000 NA
ATOM      6  C   UNL     1      47.453   6.087  14.361  0.00  0.00    +0.000 A 
ATOM      7  C   UNL     1      46.858   4.832  14.217  0.00  0.00    +0.000 A 
ATOM      8  C   UNL     1      45.866   4.667  13.243  0.00  0.00    +0.000 A 
ATOM      9  C   UNL     1      45.559   5.806  12.492  0.00  0.00    +0.000 A 
ENDROOT
BRANCH   7  10
ATOM     10  C   UNL     1      47.311   3.739  15.111  0.00  0.00    +0.000 C 
ATOM     11  N   UNL     1      46.984   3.795  16.439  0.00  0.00    +0.000 N 
ATOM     12  O   UNL     1      47.970   2.797  14.684  0.00  0.00    +0.000 OA
ATOM     13  H   UNL     1      46.468   4.532  16.889  0.00  0.00    +0.000 HD
ATOM     14  H   UNL     1      47.325   3.037  17.017  0.00  0.00    +0.000 HD
ENDBRANCH   7  10
BRANCH   1  15
ATOM     15  C   UNL     1      43.770   5.135  10.832  0.00  0.00    +0.000 C 
BRANCH  15  19
ATOM     16  C   UNL     1      45.907   2.479   8.156  0.00  0.00    +0.000 A 
ATOM     17  C   UNL     1      45.017   1.964   9.106  0.00  0.00    +0.000 A 
ATOM     18  C   UNL     1      44.316   2.819   9.962  0.00  0.00    +0.000 A 
ATOM     19  C   UNL     1      44.485   4.209   9.880  0.00  0.00    +0.000 A 
ATOM     20  C   UNL     1      45.361   4.722   8.913  0.00  0.00    +0.000 A 
ATOM     21  C   UNL     1      46.059   3.866   8.057  0.00  0.00    +0.000 A 
BRANCH  16  22
ATOM     22  C   UNL     1      46.705   1.553   7.269  0.00  0.00    +0.000 C 
BRANCH  22  23
ATOM     23  C   UNL     1      48.039   2.158   6.820  0.00  0.00    +0.000 C 
BRANCH  23  24
ATOM     24  N   UNL     1      48.330   1.804   5.431  0.00  0.00    +0.000 NA
ATOM     25  H   UNL     1      49.114   1.153   5.403  0.00  0.00    +0.000 HD
ATOM     26  H   UNL     1      48.629   2.632   4.917  0.00  0.00    +0.000 HD
ENDBRANCH  23  24
ENDBRANCH  22  23
ENDBRANCH  16  22
ENDBRANCH  15  19
ENDBRANCH   1  15
TORSDOF 6
ENDMDL
MODEL 2
REMARK VINA RESULT:    -7.841      2.152      2.967
REMARK INTER + INTRA:         -11.029
REMARK INTER:                 -10.325
REMARK INTRA:                  -0.704
REMARK UNBOUND:                -0.667
REMARK  Name = 
REMARK  6 active torsions:
REMARK  status: ('A' for Active; 'I' for Inactive)
REMARK    1  A    between atoms: N_1  and  C_2
REMARK    2  A    between atoms: C_2  and  C_3
REMARK    3  A    between atoms: C_3  and  C_4
REMARK    4  A    between atoms: C_7  and  C_8
REMARK    5  A    between atoms: C_8  and  N_9
REMARK    6  A    between atoms: C_15  and  C_16
REMARK                            x       y       z     vdW  Elec       q    Type
REMARK                         _______ _______ _______ _____ _____    ______ ____
ROOT
ATOM      1  N   UNL     1      45.040   5.014  12.005  0.00  0.00    +0.000 N 
ATOM      2  C   UNL     1      44.694   4.243  13.082  0.00  0.00    +0.000 A 
ATOM      3  N   UNL     1      45.542   4.382  14.077  0.00  0.00    +0.000 NA
ATOM      4  C   UNL     1      46.479   5.266  13.621  0.00  0.00    +0.000 A 
ATOM      5  N   UNL     1      47.548   5.699  14.323  0.00  0.00    +0.000 NA
ATOM      6  C   UNL     1      48.354   6.555  13.646  0.00  0.00    +0.000 A 
ATOM      7  C   UNL     1      48.172   6.990  12.331  0.00  0.00    +0.000 A 
ATOM      8  C   UNL     1      47.056   6.534  11.620  0.00  0.00    +0.000 A 
ATOM      9  C   UNL     1      46.211   5.662  12.314  0.00  0.00    +0.000 A 
ENDROOT
BRANCH   7  10
ATOM     10  C   UNL     1      49.181   7.914  11.758  0.00  0.00    +0.000 C 
ATOM     11  N   UNL     1      50.478   7.492  11.654  0.00  0.00    +0.000 N 
ATOM     12  O   UNL     1      48.873   9.041  11.384  0.00  0.00    +0.000 OA
ATOM     13  H   UNL     1      50.835   6.600  11.950  0.00  0.00    +0.000 HD
ATOM     14  H   UNL     1      51.137   8.159  11.271  0.00  0.00    +0.000 HD
ENDBRANCH   7  10
BRANCH   1  15
ATOM     15  C   UNL     1      44.311   5.075  10.749  0.00  0.00    +0.000 C 
BRANCH  15  19
ATOM     16  C   UNL     1      46.151   2.475   7.810  0.00  0.00    +0.000 A 
ATOM     17  C   UNL     1      45.364   1.940   8.836  0.00  0.00    +0.000 A 
ATOM     18  C   UNL     1      44.758   2.777   9.778  0.00  0.00    +0.000 A 
ATOM     19  C   UNL     1      44.921   4.168   9.708  0.00  0.00    +0.000 A 
ATOM     20  C   UNL     1      45.692   4.702   8.666  0.00  0.00    +0.000 A 
ATOM     21  C   UNL     1      46.296   3.864   7.724  0.00  0.00    +0.000 A 
BRANCH  16  22
ATOM     22  C   UNL     1      46.850   1.568   6.825  0.00  0.00    +0.000 C 
BRANCH  22  23
ATOM     23  C   UNL     1      48.236   2.080   6.420  0.00  0.00    +0.000 C 
BRANCH  23  24
ATOM     24  N   UNL     1      48.246   2.501   5.019  0.00  0.00    +0.000 NA
ATOM     25  H   UNL     1      48.053   3.501   4.963  0.00  0.00    +0.000 HD
ATOM     26  H   UNL     1      47.492   2.037   4.513  0.00  0.00    +0.000 HD
ENDBRANCH  23  24
ENDBRANCH  22  23
ENDBRANCH  16  22
ENDBRANCH  15  19
ENDBRANCH   1  15
TORSDOF 6
ENDMDL
MODEL 3
REMARK VINA RESULT:    -7.830      2.232      3.420
REMARK INTER + INTRA:         -11.015
REMARK INTER:                 -10.449
REMARK INTRA:                  -0.566
REMARK UNBOUND:                -0.667
REMARK  Name = 
REMARK  6 active torsions:
REMARK  status: ('A' for Active; 'I' for Inactive)
REMARK    1  A    between atoms: N_1  and  C_2
REMARK    2  A    between atoms: C_2  and  C_3
REMARK    3  A    between atoms: C_3  and  C_4
REMARK    4  A    between atoms: C_7  and  C_8
REMARK    5  A    between atoms: C_8  and  N_9
REMARK    6  A    between atoms: C_15  and  C_16
REMARK                            x       y       z     vdW  Elec       q    Type
REMARK                         _______ _______ _______ _____ _____    ______ ____
ROOT
ATOM      1  N   UNL     1      45.537   4.649  12.577  0.00  0.00    +0.000 N 
ATOM      2  C   UNL     1      46.433   3.872  13.261  0.00  0.00    +0.000 A 
ATOM      3  N   UNL     1      47.333   4.597  13.887  0.00  0.00    +0.000 NA
ATOM      4  C   UNL     1      47.015   5.891  13.586  0.00  0.00    +0.000 A 
ATOM      5  N   UNL     1      47.685   6.979  14.022  0.00  0.00    +0.000 NA
ATOM      6  C   UNL     1      47.196   8.159  13.564  0.00  0.00    +0.000 A 
ATOM      7  C   UNL     1      46.108   8.321  12.704  0.00  0.00    +0.000 A 
ATOM      8  C   UNL     1      45.423   7.181  12.265  0.00  0.00    +0.000 A 
ATOM      9  C   UNL     1      45.910   5.960  12.743  0.00  0.00    +0.000 A 
ENDROOT
BRANCH   7  10
ATOM     10  C   UNL     1      45.739   9.699  12.298  0.00  0.00    +0.000 C 
ATOM     11  N   UNL     1      44.454  10.123  12.500  0.00  0.00    +0.000 N 
ATOM     12  O   UNL     1      46.559  10.453  11.787  0.00  0.00    +0.000 OA
ATOM     13  H   UNL     1      43.706   9.577  12.890  0.00  0.00    +0.000 HD
ATOM     14  H   UNL     1      44.240  11.065  12.195  0.00  0.00    +0.000 HD
ENDBRANCH   7  10
BRANCH   1  15
ATOM     15  C   UNL     1      44.430   4.148  11.779  0.00  0.00    +0.000 C 
BRANCH  15  19
ATOM     16  C   UNL     1      45.806   3.053   7.818  0.00  0.00    +0.000 A 
ATOM     17  C   UNL     1      45.333   2.075   8.700  0.00  0.00    +0.000 A 
ATOM     18  C   UNL     1      44.876   2.427   9.974  0.00  0.00    +0.000 A 
ATOM     19  C   UNL     1      44.875   3.766  10.389  0.00  0.00    +0.000 A 
ATOM     20  C   UNL     1      45.329   4.746   9.494  0.00  0.00    +0.000 A 
ATOM     21  C   UNL     1      45.784   4.393   8.221  0.00  0.00    +0.000 A 
BRANCH  16  22
ATOM     22  C   UNL     1      46.350   2.668   6.462  0.00  0.00    +0.000 C 
BRANCH  22  23
ATOM     23  C   UNL     1      47.416   1.570   6.537  0.00  0.00    +0.000 C 
BRANCH  23  24
ATOM     24  N   UNL     1      48.569   1.908   5.703  0.00  0.00    +0.000 NA
ATOM     25  H   UNL     1      49.275   2.374   6.273  0.00  0.00    +0.000 HD
ATOM     26  H   UNL     1      48.294   2.579   4.986  0.00  0.00    +0.000 HD
ENDBRANCH  23  24
ENDBRANCH  22  23
ENDBRANCH  16  22
ENDBRANCH  15  19
ENDBRANCH   1  15
TORSDOF 6
ENDMDL
MODEL 4
REMARK VINA RESULT:    -7.006      1.856      2.016
REMARK INTER + INTRA:          -9.926
REMARK INTER:                  -9.624
REMARK INTRA:                  -0.301
REMARK UNBOUND:                -0.667
REMARK  Name = 
REMARK  6 active torsions:
REMARK  status: ('A' for Active; 'I' for Inactive)
REMARK    1  A    between atoms: N_1  and  C_2
REMARK    2  A    between atoms: C_2  and  C_3
REMARK    3  A    between atoms: C_3  and  C_4
REMARK    4  A    between atoms: C_7  and  C_8
REMARK    5  A    between atoms: C_8  and  N_9
REMARK    6  A    between atoms: C_15  and  C_16
REMARK                            x       y       z     vdW  Elec       q    Type
REMARK                         _______ _______ _______ _____ _____    ______ ____
ROOT
ATOM      1  N   UNL     1      44.737   6.277  11.744  0.00  0.00    +0.000 N 
ATOM      2  C   UNL     1      43.965   7.302  11.268  0.00  0.00    +0.000 A 
ATOM      3  N   UNL     1      44.489   8.477  11.538  0.00  0.00    +0.000 NA
ATOM      4  C   UNL     1      45.636   8.201  12.228  0.00  0.00    +0.000 A 
ATOM      5  N   UNL     1      46.496   9.123  12.709  0.00  0.00    +0.000 NA
ATOM      6  C   UNL     1      47.551   8.606  13.386  0.00  0.00    +0.000 A 
ATOM      7  C   UNL     1      47.794   7.251  13.622  0.00  0.00    +0.000 A 
ATOM      8  C   UNL     1      46.893   6.309  13.112  0.00  0.00    +0.000 A 
ATOM      9  C   UNL     1      45.808   6.831  12.400  0.00  0.00    +0.000 A 
ENDROOT
BRANCH   7  10
ATOM     10  C   UNL     1      48.998   6.885  14.406  0.00  0.00    +0.000 C 
ATOM     11  N   UNL     1      50.206   7.421  14.049  0.00  0.00    +0.000 N 
ATOM     12  O   UNL     1      48.930   6.114  15.357  0.00  0.00    +0.000 OA
ATOM     13  H   UNL     1      50.371   8.042  13.275  0.00  0.00    +0.000 HD
ATOM     14  H   UNL     1      51.005   7.133  14.601  0.00  0.00    +0.000 HD
ENDBRANCH   7  10
BRANCH   1  15
ATOM     15  C   UNL     1      44.425   4.863  11.614  0.00  0.00    +0.000 C 
BRANCH  15  19
ATOM     16  C   UNL     1      45.895   3.254   7.868  0.00  0.00    +0.000 A 
ATOM     17  C   UNL     1      45.193   2.438   8.763  0.00  0.00    +0.000 A 
ATOM     18  C   UNL     1      44.706   2.958   9.967  0.00  0.00    +0.000 A 
ATOM     19  C   UNL     1      44.905   4.307  10.296  0.00  0.00    +0.000 A 
ATOM     20  C   UNL     1      45.589   5.125   9.387  0.00  0.00    +0.000 A 
ATOM     21  C   UNL     1      46.074   4.605   8.183  0.00  0.00    +0.000 A 
BRANCH  16  22
ATOM     22  C   UNL     1      46.469   2.680   6.594  0.00  0.00    +0.000 C 
BRANCH  22  23
ATOM     23  C   UNL     1      47.772   1.907   6.820  0.00  0.00    +0.000 C 
BRANCH  23  24
ATOM     24  N   UNL     1      48.558   1.841   5.588  0.00  0.00    +0.000 NA
ATOM     25  H   UNL     1      48.906   2.772   5.357  0.00  0.00    +0.000 HD
ATOM     26  H   UNL     1      47.961   1.560   4.811  0.00  0.00    +0.000 HD
ENDBRANCH  23  24
ENDBRANCH  22  23
ENDBRANCH  16  22
ENDBRANCH  15  19
ENDBRANCH   1  15
TORSDOF 6
ENDMDL
MODEL 5
REMARK VINA RESULT:    -6.763      2.674      6.700
REMARK INTER + INTRA:          -9.605
REMARK INTER:                  -9.056
REMARK INTRA:                  -0.549
REMARK UNBOUND:                -0.667
REMARK  Name = 
REMARK  6 active torsions:
REMARK  status: ('A' for Active; 'I' for Inactive)
REMARK    1  A    between atoms: N_1  and  C_2
REMARK    2  A    between atoms: C_2  and  C_3
REMARK    3  A    between atoms: C_3  and  C_4
REMARK    4  A    between atoms: C_7  and  C_8
REMARK    5  A    between atoms: C_8  and  N_9
REMARK    6  A    between atoms: C_15  and  C_16
REMARK                            x       y       z     vdW  Elec       q    Type
REMARK                         _______ _______ _______ _____ _____    ______ ____
ROOT
ATOM      1  N   UNL     1      43.890   4.879  11.143  0.00  0.00    +0.000 N 
ATOM      2  C   UNL     1      43.048   4.058  11.844  0.00  0.00    +0.000 A 
ATOM      3  N   UNL     1      43.085   2.822  11.399  0.00  0.00    +0.000 NA
ATOM      4  C   UNL     1      43.975   2.848  10.362  0.00  0.00    +0.000 A 
ATOM      5  N   UNL     1      44.321   1.783   9.606  0.00  0.00    +0.000 NA
ATOM      6  C   UNL     1      45.203   2.064   8.615  0.00  0.00    +0.000 A 
ATOM      7  C   UNL     1      45.744   3.318   8.324  0.00  0.00    +0.000 A 
ATOM      8  C   UNL     1      45.377   4.409   9.121  0.00  0.00    +0.000 A 
ATOM      9  C   UNL     1      44.478   4.129  10.155  0.00  0.00    +0.000 A 
ENDROOT
BRANCH   7  10
ATOM     10  C   UNL     1      46.681   3.425   7.180  0.00  0.00    +0.000 C 
ATOM     11  N   UNL     1      47.582   2.416   6.968  0.00  0.00    +0.000 N 
ATOM     12  O   UNL     1      46.664   4.395   6.430  0.00  0.00    +0.000 OA
ATOM     13  H   UNL     1      47.690   1.593   7.535  0.00  0.00    +0.000 HD
ATOM     14  H   UNL     1      48.213   2.536   6.186  0.00  0.00    +0.000 HD
ENDBRANCH   7  10
BRANCH   1  15
ATOM     15  C   UNL     1      44.068   6.301  11.387  0.00  0.00    +0.000 C 
BRANCH  15  19
ATOM     16  C   UNL     1      47.970   7.088  13.101  0.00  0.00    +0.000 A 
ATOM     17  C   UNL     1      47.354   8.036  12.277  0.00  0.00    +0.000 A 
ATOM     18  C   UNL     1      46.089   7.790  11.733  0.00  0.00    +0.000 A 
ATOM     19  C   UNL     1      45.411   6.594  12.009  0.00  0.00    +0.000 A 
ATOM     20  C   UNL     1      46.023   5.656  12.853  0.00  0.00    +0.000 A 
ATOM     21  C   UNL     1      47.286   5.904  13.398  0.00  0.00    +0.000 A 
BRANCH  16  22
ATOM     22  C   UNL     1      49.359   7.329  13.645  0.00  0.00    +0.000 C 
BRANCH  22  23
ATOM     23  C   UNL     1      49.423   7.255  15.174  0.00  0.00    +0.000 C 
BRANCH  23  24
ATOM     24  N   UNL     1      50.662   6.612  15.611  0.00  0.00    +0.000 NA
ATOM     25  H   UNL     1      51.008   6.002  14.871  0.00  0.00    +0.000 HD
ATOM     26  H   UNL     1      50.475   6.009  16.412  0.00  0.00    +0.000 HD
ENDBRANCH  23  24
ENDBRANCH  22  23
ENDBRANCH  16  22
ENDBRANCH  15  19
ENDBRANCH   1  15
TORSDOF 6
ENDMDL
MODEL 6
REMARK VINA RESULT:    -6.747      2.526      6.851
REMARK INTER + INTRA:          -9.583
REMARK INTER:                  -9.065
REMARK INTRA:                  -0.518
REMARK UNBOUND:                -0.667
REMARK  Name = 
REMARK  6 active torsions:
REMARK  status: ('A' for Active; 'I' for Inactive)
REMARK    1  A    between atoms: N_1  and  C_2
REMARK    2  A    between atoms: C_2  and  C_3
REMARK    3  A    between atoms: C_3  and  C_4
REMARK    4  A    between atoms: C_7  and  C_8
REMARK    5  A    between atoms: C_8  and  N_9
REMARK    6  A    between atoms: C_15  and  C_16
REMARK                            x       y       z     vdW  Elec       q    Type
REMARK                         _______ _______ _______ _____ _____    ______ ____
ROOT
ATOM      1  N   UNL     1      44.240   5.812  11.372  0.00  0.00    +0.000 N 
ATOM      2  C   UNL     1      43.298   5.308  12.227  0.00  0.00    +0.000 A 
ATOM      3  N   UNL     1      43.013   4.053  11.958  0.00  0.00    +0.000 NA
ATOM      4  C   UNL     1      43.791   3.738  10.880  0.00  0.00    +0.000 A 
ATOM      5  N   UNL     1      43.819   2.537  10.263  0.00  0.00    +0.000 NA
ATOM      6  C   UNL     1      44.651   2.476   9.194  0.00  0.00    +0.000 A 
ATOM      7  C   UNL     1      45.436   3.520   8.700  0.00  0.00    +0.000 A 
ATOM      8  C   UNL     1      45.398   4.757   9.355  0.00  0.00    +0.000 A 
ATOM      9  C   UNL     1      44.553   4.828  10.467  0.00  0.00    +0.000 A 
ENDROOT
BRANCH   7  10
ATOM     10  C   UNL     1      46.269   3.259   7.501  0.00  0.00    +0.000 C 
ATOM     11  N   UNL     1      46.837   2.023   7.349  0.00  0.00    +0.000 N 
ATOM     12  O   UNL     1      46.457   4.126   6.655  0.00  0.00    +0.000 OA
ATOM     13  H   UNL     1      46.761   1.255   7.993  0.00  0.00    +0.000 HD
ATOM     14  H   UNL     1      47.410   1.892   6.524  0.00  0.00    +0.000 HD
ENDBRANCH   7  10
BRANCH   1  15
ATOM     15  C   UNL     1      44.758   7.170  11.402  0.00  0.00    +0.000 C 
BRANCH  15  19
ATOM     16  C   UNL     1      48.143   7.488  14.090  0.00  0.00    +0.000 A 
ATOM     17  C   UNL     1      47.903   6.301  13.388  0.00  0.00    +0.000 A 
ATOM     18  C   UNL     1      46.820   6.200  12.510  0.00  0.00    +0.000 A 
ATOM     19  C   UNL     1      45.957   7.287  12.310  0.00  0.00    +0.000 A 
ATOM     20  C   UNL     1      46.213   8.481  12.998  0.00  0.00    +0.000 A 
ATOM     21  C   UNL     1      47.298   8.582  13.874  0.00  0.00    +0.000 A 
BRANCH  16  22
ATOM     22  C   UNL     1      49.280   7.580  15.080  0.00  0.00    +0.000 C 
BRANCH  22  23
ATOM     23  C   UNL     1      49.223   6.494  16.158  0.00  0.00    +0.000 C 
BRANCH  23  24
ATOM     24  N   UNL     1      48.196   6.803  17.153  0.00  0.00    +0.000 NA
ATOM     25  H   UNL     1      48.253   6.134  17.921  0.00  0.00    +0.000 HD
ATOM     26  H   UNL     1      47.270   6.688  16.743  0.00  0.00    +0.000 HD
ENDBRANCH  23  24
ENDBRANCH  22  23
ENDBRANCH  16  22
ENDBRANCH  15  19
ENDBRANCH   1  15
TORSDOF 6
ENDMDL
MODEL 7
REMARK VINA RESULT:    -6.215      2.986      7.005
REMARK INTER + INTRA:          -8.881
REMARK INTER:                  -8.410
REMARK INTRA:                  -0.471
REMARK UNBOUND:                -0.667
REMARK  Name = 
REMARK  6 active torsions:
REMARK  status: ('A' for Active; 'I' for Inactive)
REMARK    1  A    between atoms: N_1  and  C_2
REMARK    2  A    between atoms: C_2  and  C_3
REMARK    3  A    between atoms: C_3  and  C_4
REMARK    4  A    between atoms: C_7  and  C_8
REMARK    5  A    between atoms: C_8  and  N_9
REMARK    6  A    between atoms: C_15  and  C_16
REMARK                            x       y       z     vdW  Elec       q    Type
REMARK                         _______ _______ _______ _____ _____    ______ ____
ROOT
ATOM      1  N   UNL     1      46.474   6.955  12.151  0.00  0.00    +0.000 N 
ATOM      2  C   UNL     1      45.989   8.235  12.132  0.00  0.00    +0.000 A 
ATOM      3  N   UNL     1      44.716   8.272  11.808  0.00  0.00    +0.000 NA
ATOM      4  C   UNL     1      44.368   6.967  11.597  0.00  0.00    +0.000 A 
ATOM      5  N   UNL     1      43.139   6.537  11.240  0.00  0.00    +0.000 NA
ATOM      6  C   UNL     1      43.046   5.195  11.060  0.00  0.00    +0.000 A 
ATOM      7  C   UNL     1      44.084   4.272  11.200  0.00  0.00    +0.000 A 
ATOM      8  C   UNL     1      45.350   4.736  11.574  0.00  0.00    +0.000 A 
ATOM      9  C   UNL     1      45.455   6.116  11.776  0.00  0.00    +0.000 A 
ENDROOT
BRANCH   7  10
ATOM     10  C   UNL     1      43.785   2.843  10.938  0.00  0.00    +0.000 C 
ATOM     11  N   UNL     1      44.465   2.199   9.939  0.00  0.00    +0.000 N 
ATOM     12  O   UNL     1      42.945   2.237  11.593  0.00  0.00    +0.000 OA
ATOM     13  H   UNL     1      45.154   2.611   9.334  0.00  0.00    +0.000 HD
ATOM     14  H   UNL     1      44.220   1.229   9.784  0.00  0.00    +0.000 HD
ENDBRANCH   7  10
BRANCH   1  15
ATOM     15  C   UNL     1      47.845   6.583  12.462  0.00  0.00    +0.000 C 
BRANCH  15  19
ATOM     16  C   UNL     1      48.367   5.419  16.604  0.00  0.00    +0.000 A 
ATOM     17  C   UNL     1      48.973   6.581  16.113  0.00  0.00    +0.000 A 
ATOM     18  C   UNL     1      48.795   6.966  14.780  0.00  0.00    +0.000 A 
ATOM     19  C   UNL     1      48.001   6.201  13.914  0.00  0.00    +0.000 A 
ATOM     20  C   UNL     1      47.378   5.050  14.416  0.00  0.00    +0.000 A 
ATOM     21  C   UNL     1      47.555   4.667  15.748  0.00  0.00    +0.000 A 
BRANCH  16  22
ATOM     22  C   UNL     1      48.603   4.973  18.028  0.00  0.00    +0.000 C 
BRANCH  22  23
ATOM     23  C   UNL     1      47.782   5.770  19.047  0.00  0.00    +0.000 C 
BRANCH  23  24
ATOM     24  N   UNL     1      46.352   5.511  18.880  0.00  0.00    +0.000 NA
ATOM     25  H   UNL     1      46.223   4.630  18.382  0.00  0.00    +0.000 HD
ATOM     26  H   UNL     1      45.936   6.233  18.293  0.00  0.00    +0.000 HD
ENDBRANCH  23  24
ENDBRANCH  22  23
ENDBRANCH  16  22
ENDBRANCH  15  19
ENDBRANCH   1  15
TORSDOF 6
ENDMDL
MODEL 8
REMARK VINA RESULT:    -6.215      1.676      2.495
REMARK INTER + INTRA:          -8.881
REMARK INTER:                  -8.765
REMARK INTRA:                  -0.116
REMARK UNBOUND:                -0.667
REMARK  Name = 
REMARK  6 active torsions:
REMARK  status: ('A' for Active; 'I' for Inactive)
REMARK    1  A    between atoms: N_1  and  C_2
REMARK    2  A    between atoms: C_2  and  C_3
REMARK    3  A    between atoms: C_3  and  C_4
REMARK    4  A    between atoms: C_7  and  C_8
REMARK    5  A    between atoms: C_8  and  N_9
REMARK    6  A    between atoms: C_15  and  C_16
REMARK                            x       y       z     vdW  Elec       q    Type
REMARK                         _______ _______ _______ _____ _____    ______ ____
ROOT
ATOM      1  N   UNL     1      46.240   5.767  13.347  0.00  0.00    +0.000 N 
ATOM      2  C   UNL     1      46.902   6.847  12.829  0.00  0.00    +0.000 A 
ATOM      3  N   UNL     1      47.994   7.124  13.506  0.00  0.00    +0.000 NA
ATOM      4  C   UNL     1      48.032   6.195  14.508  0.00  0.00    +0.000 A 
ATOM      5  N   UNL     1      48.994   6.108  15.452  0.00  0.00    +0.000 NA
ATOM      6  C   UNL     1      48.798   5.119  16.360  0.00  0.00    +0.000 A 
ATOM      7  C   UNL     1      47.718   4.235  16.395  0.00  0.00    +0.000 A 
ATOM      8  C   UNL     1      46.733   4.338  15.406  0.00  0.00    +0.000 A 
ATOM      9  C   UNL     1      46.932   5.345  14.455  0.00  0.00    +0.000 A 
ENDROOT
BRANCH   7  10
ATOM     10  C   UNL     1      47.673   3.231  17.486  0.00  0.00    +0.000 C 
ATOM     11  N   UNL     1      48.754   3.114  18.318  0.00  0.00    +0.000 N 
ATOM     12  O   UNL     1      46.695   2.511  17.650  0.00  0.00    +0.000 OA
ATOM     13  H   UNL     1      49.609   3.639  18.254  0.00  0.00    +0.000 HD
ATOM     14  H   UNL     1      48.689   2.406  19.040  0.00  0.00    +0.000 HD
ENDBRANCH   7  10
BRANCH   1  15
ATOM     15  C   UNL     1      44.997   5.219  12.830  0.00  0.00    +0.000 C 
BRANCH  15  19
ATOM     16  C   UNL     1      45.389   3.662   8.804  0.00  0.00    +0.000 A 
ATOM     17  C   UNL     1      45.711   4.996   9.083  0.00  0.00    +0.000 A 
ATOM     18  C   UNL     1      45.598   5.497  10.384  0.00  0.00    +0.000 A 
ATOM     19  C   UNL     1      45.168   4.673  11.434  0.00  0.00    +0.000 A 
ATOM     20  C   UNL     1      44.869   3.332  11.154  0.00  0.00    +0.000 A 
ATOM     21  C   UNL     1      44.984   2.832   9.854  0.00  0.00    +0.000 A 
BRANCH  16  22
ATOM     22  C   UNL     1      45.459   3.135   7.390  0.00  0.00    +0.000 C 
BRANCH  22  23
ATOM     23  C   UNL     1      46.850   3.281   6.766  0.00  0.00    +0.000 C 
BRANCH  23  24
ATOM     24  N   UNL     1      47.668   2.098   7.036  0.00  0.00    +0.000 NA
ATOM     25  H   UNL     1      48.389   2.332   7.718  0.00  0.00    +0.000 HD
ATOM     26  H   UNL     1      48.159   1.816   6.188  0.00  0.00    +0.000 HD
ENDBRANCH  23  24
ENDBRANCH  22  23
ENDBRANCH  16  22
ENDBRANCH  15  19
ENDBRANCH   1  15
TORSDOF 6
ENDMDL
MODEL 9
REMARK VINA RESULT:    -5.756      3.200      6.194
REMARK INTER + INTRA:          -8.274
REMARK INTER:                  -7.752
REMARK INTRA:                  -0.522
REMARK UNBOUND:                -0.667
REMARK  Name = 
REMARK  6 active torsions:
REMARK  status: ('A' for Active; 'I' for Inactive)
REMARK    1  A    between atoms: N_1  and  C_2
REMARK    2  A    between atoms: C_2  and  C_3
REMARK    3  A    between atoms: C_3  and  C_4
REMARK    4  A    between atoms: C_7  and  C_8
REMARK    5  A    between atoms: C_8  and  N_9
REMARK    6  A    between atoms: C_15  and  C_16
REMARK                            x       y       z     vdW  Elec       q    Type
REMARK                         _______ _______ _______ _____ _____    ______ ____
ROOT
ATOM      1  N   UNL     1      44.733   6.021  12.000  0.00  0.00    +0.000 N 
ATOM      2  C   UNL     1      44.090   5.425  13.051  0.00  0.00    +0.000 A 
ATOM      3  N   UNL     1      43.842   4.155  12.818  0.00  0.00    +0.000 NA
ATOM      4  C   UNL     1      44.332   3.925  11.563  0.00  0.00    +0.000 A 
ATOM      5  N   UNL     1      44.288   2.741  10.916  0.00  0.00    +0.000 NA
ATOM      6  C   UNL     1      44.814   2.767   9.665  0.00  0.00    +0.000 A 
ATOM      7  C   UNL     1      45.359   3.882   9.024  0.00  0.00    +0.000 A 
ATOM      8  C   UNL     1      45.399   5.100   9.713  0.00  0.00    +0.000 A 
ATOM      9  C   UNL     1      44.872   5.081  11.009  0.00  0.00    +0.000 A 
ENDROOT
BRANCH   7  10
ATOM     10  C   UNL     1      45.866   3.712   7.641  0.00  0.00    +0.000 C 
ATOM     11  N   UNL     1      47.062   4.284   7.302  0.00  0.00    +0.000 N 
ATOM     12  O   UNL     1      45.234   3.077   6.804  0.00  0.00    +0.000 OA
ATOM     13  H   UNL     1      47.643   4.840   7.906  0.00  0.00    +0.000 HD
ATOM     14  H   UNL     1      47.364   4.157   6.344  0.00  0.00    +0.000 HD
ENDBRANCH   7  10
BRANCH   1  15
ATOM     15  C   UNL     1      45.135   7.417  11.947  0.00  0.00    +0.000 C 
BRANCH  15  19
ATOM     16  C   UNL     1      49.420   7.904  12.373  0.00  0.00    +0.000 A 
ATOM     17  C   UNL     1      48.804   6.701  12.737  0.00  0.00    +0.000 A 
ATOM     18  C   UNL     1      47.423   6.536  12.588  0.00  0.00    +0.000 A 
ATOM     19  C   UNL     1      46.632   7.569  12.064  0.00  0.00    +0.000 A 
ATOM     20  C   UNL     1      47.257   8.764  11.680  0.00  0.00    +0.000 A 
ATOM     21  C   UNL     1      48.637   8.927  11.828  0.00  0.00    +0.000 A 
BRANCH  16  22
ATOM     22  C   UNL     1      50.903   8.102  12.585  0.00  0.00    +0.000 C 
BRANCH  22  23
ATOM     23  C   UNL     1      51.667   8.336  11.277  0.00  0.00    +0.000 C 
BRANCH  23  24
ATOM     24  N   UNL     1      51.847   7.080  10.549  0.00  0.00    +0.000 NA
ATOM     25  H   UNL     1      51.533   6.303  11.129  0.00  0.00    +0.000 HD
ATOM     26  H   UNL     1      52.838   6.921  10.373  0.00  0.00    +0.000 HD
ENDBRANCH  23  24
ENDBRANCH  22  23
ENDBRANCH  16  22
ENDBRANCH  15  19
ENDBRANCH   1  15
TORSDOF 6
ENDMDL
