MODEL 1
REMARK VINA RESULT:    -8.116      0.000      0.000
REMARK INTER + INTRA:         -11.767
REMARK INTER:                 -10.725
REMARK INTRA:                  -1.042
REMARK UNBOUND:                -1.042
REMARK  Name = 
REMARK  6 active torsions:
REMARK  status: ('A' for Active; 'I' for Inactive)
REMARK    1  A    between atoms: C_2  and  C_19
REMARK    2  A    between atoms: N_3  and  C_4
REMARK    3  A    between atoms: C_4  and  C_5
REMARK    4  A    between atoms: C_8  and  C_9
REMARK    5  A    between atoms: C_9  and  O_10
REMARK    6  A    between atoms: C_9  and  C_11
REMARK                            x       y       z     vdW  Elec       q    Type
REMARK                         _______ _______ _______ _____ _____    ______ ____
ROOT
ATOM      1  C   UNL     1      46.776   4.763  14.728  0.00  0.00    +0.000 C 
ENDROOT
BRANCH   1   2
ATOM      2  C   UNL     1      46.156   4.493  13.372  0.00  0.00    +0.000 A 
ATOM      3  C   UNL     1      46.091   5.498  12.411  0.00  0.00    +0.000 A 
ATOM      4  C   UNL     1      45.486   5.224  11.186  0.00  0.00    +0.000 A 
ATOM      5  C   UNL     1      44.956   3.955  10.930  0.00  0.00    +0.000 A 
ATOM      6  C   UNL     1      45.101   3.007  11.936  0.00  0.00    +0.000 A 
ATOM      7  N   UNL     1      45.690   3.240  13.134  0.00  0.00    +0.000 NA
BRANCH   5   8
ATOM      8  C   UNL     1      44.308   3.593   9.612  0.00  0.00    +0.000 C 
BRANCH   8   9
ATOM      9  C   UNL     1      45.319   3.103   8.581  0.00  0.00    +0.000 A 
ATOM     10  C   UNL     1      45.737   1.773   8.572  0.00  0.00    +0.000 A 
ATOM     11  C   UNL     1      46.725   1.387   7.671  0.00  0.00    +0.000 A 
ATOM     12  C   UNL     1      47.261   2.328   6.802  0.00  0.00    +0.000 A 
ATOM     13  C   UNL     1      46.769   3.621   6.851  0.00  0.00    +0.000 A 
ATOM     14  N   UNL     1      45.809   4.030   7.710  0.00  0.00    +0.000 NA
ENDBRANCH   8   9
BRANCH   8  15
ATOM     15  O   UNL     1      43.610   4.737   9.097  0.00  0.00    +0.000 OA
ATOM     16  H   UNL     1      43.988   4.875   8.206  0.00  0.00    +0.000 HD
ENDBRANCH   8  15
ENDBRANCH   5   8
ENDBRANCH   1   2
BRANCH   1  19
ATOM     17  O   UNL     1      49.080   5.285  16.267  0.00  0.00    +0.000 OA
ATOM     18  C   UNL     1      48.588   6.188  15.593  0.00  0.00    +0.000 C 
ATOM     19  N   UNL     1      47.524   5.997  14.754  0.00  0.00    +0.000 N 
ATOM     20  H   UNL     1      47.151   6.768  14.220  0.00  0.00    +0.000 HD
BRANCH  18  21
ATOM     21  C   UNL     1      49.140   7.543  15.594  0.00  0.00    +0.000 A 
ATOM     22  C   UNL     1      49.156   8.320  16.743  0.00  0.00    +0.000 A 
ATOM     23  S   UNL     1      49.910   9.837  16.520  0.00  0.00    +0.000 S 
ATOM     24  C   UNL     1      50.192   9.520  14.870  0.00  0.00    +0.000 A 
ATOM     25  N   UNL     1      50.826  10.423  14.074  0.00  0.00    +0.000 NA
ATOM     26  C   UNL     1      50.954  10.050  12.843  0.00  0.00    +0.000 A 
ATOM     27  N   UNL     1      50.493   8.863  12.333  0.00  0.00    +0.000 N 
ATOM     28  C   UNL     1      49.818   7.937  13.091  0.00  0.00    +0.000 A 
ATOM     29  O   UNL     1      49.376   6.910  12.588  0.00  0.00    +0.000 OA
ATOM     30  C   UNL     1      49.701   8.286  14.493  0.00  0.00    +0.000 A 
ATOM     31  H   UNL     1      50.607   8.636  11.357  0.00  0.00    +0.000 HD
ENDBRANCH  18  21
ENDBRANCH   1  19
TORSDOF 6
ENDMDL
MODEL 2
REMARK VINA RESULT:    -7.866      1.738      2.681
REMARK INTER + INTRA:         -11.436
REMARK INTER:                 -10.676
REMARK INTRA:                  -0.760
REMARK UNBOUND:                -1.042
REMARK  Name = 
REMARK  6 active torsions:
REMARK  status: ('A' for Active; 'I' for Inactive)
REMARK    1  A    between atoms: C_2  and  C_19
REMARK    2  A    between atoms: N_3  and  C_4
REMARK    3  A    between atoms: C_4  and  C_5
REMARK    4  A    between atoms: C_8  and  C_9
REMARK    5  A    between atoms: C_9  and  O_10
REMARK    6  A    between atoms: C_9  and  C_11
REMARK                            x       y       z     vdW  Elec       q    Type
REMARK                         _______ _______ _______ _____ _____    ______ ____
ROOT
ATOM      1  C   UNL     1      47.144   4.847  14.794  0.00  0.00    +0.000 C 
ENDROOT
BRANCH   1   2
ATOM      2  C   UNL     1      46.420   4.572  13.492  0.00  0.00    +0.000 A 
ATOM      3  C   UNL     1      46.186   5.600  12.582  0.00  0.00    +0.000 A 
ATOM      4  C   UNL     1      45.489   5.317  11.408  0.00  0.00    +0.000 A 
ATOM      5  C   UNL     1      45.038   4.018  11.151  0.00  0.00    +0.000 A 
ATOM      6  C   UNL     1      45.352   3.052  12.101  0.00  0.00    +0.000 A 
ATOM      7  N   UNL     1      46.034   3.294  13.248  0.00  0.00    +0.000 NA
BRANCH   5   8
ATOM      8  C   UNL     1      44.298   3.647   9.886  0.00  0.00    +0.000 C 
BRANCH   8   9
ATOM      9  C   UNL     1      45.230   3.135   8.794  0.00  0.00    +0.000 A 
ATOM     10  C   UNL     1      45.597   1.791   8.745  0.00  0.00    +0.000 A 
ATOM     11  C   UNL     1      46.518   1.381   7.786  0.00  0.00    +0.000 A 
ATOM     12  C   UNL     1      47.040   2.314   6.899  0.00  0.00    +0.000 A 
ATOM     13  C   UNL     1      46.601   3.624   6.991  0.00  0.00    +0.000 A 
ATOM     14  N   UNL     1      45.706   4.056   7.908  0.00  0.00    +0.000 NA
ENDBRANCH   8   9
BRANCH   8  15
ATOM     15  O   UNL     1      43.577   4.793   9.406  0.00  0.00    +0.000 OA
ATOM     16  H   UNL     1      43.659   4.745   8.433  0.00  0.00    +0.000 HD
ENDBRANCH   8  15
ENDBRANCH   5   8
ENDBRANCH   1   2
BRANCH   1  19
ATOM     17  O   UNL     1      49.452   5.772  16.125  0.00  0.00    +0.000 OA
ATOM     18  C   UNL     1      48.669   6.586  15.638  0.00  0.00    +0.000 C 
ATOM     19  N   UNL     1      47.574   6.220  14.904  0.00  0.00    +0.000 N 
ATOM     20  H   UNL     1      46.956   6.924  14.525  0.00  0.00    +0.000 HD
BRANCH  18  21
ATOM     21  C   UNL     1      48.877   8.029  15.763  0.00  0.00    +0.000 A 
ATOM     22  C   UNL     1      49.503   8.761  14.765  0.00  0.00    +0.000 A 
ATOM     23  S   UNL     1      49.571  10.436  15.100  0.00  0.00    +0.000 S 
ATOM     24  C   UNL     1      48.810  10.224  16.609  0.00  0.00    +0.000 A 
ATOM     25  N   UNL     1      48.547  11.282  17.424  0.00  0.00    +0.000 NA
ATOM     26  C   UNL     1      47.981  10.965  18.542  0.00  0.00    +0.000 A 
ATOM     27  N   UNL     1      47.667   9.686  18.925  0.00  0.00    +0.000 N 
ATOM     28  C   UNL     1      47.945   8.585  18.151  0.00  0.00    +0.000 A 
ATOM     29  O   UNL     1      47.697   7.453  18.550  0.00  0.00    +0.000 OA
ATOM     30  C   UNL     1      48.528   8.896  16.861  0.00  0.00    +0.000 A 
ATOM     31  H   UNL     1      47.243   9.500  19.821  0.00  0.00    +0.000 HD
ENDBRANCH  18  21
ENDBRANCH   1  19
TORSDOF 6
ENDMDL
MODEL 3
REMARK VINA RESULT:    -7.838      2.737      4.051
REMARK INTER + INTRA:         -11.400
REMARK INTER:                 -10.508
REMARK INTRA:                  -0.892
REMARK UNBOUND:                -1.042
REMARK  Name = 
REMARK  6 active torsions:
REMARK  status: ('A' for Active; 'I' for Inactive)
REMARK    1  A    between atoms: C_2  and  C_19
REMARK    2  A    between atoms: N_3  and  C_4
REMARK    3  A    between atoms: C_4  and  C_5
REMARK    4  A    between atoms: C_8  and  C_9
REMARK    5  A    between atoms: C_9  and  O_10
REMARK    6  A    between atoms: C_9  and  C_11
REMARK                            x       y       z     vdW  Elec       q    Type
REMARK                         _______ _______ _______ _____ _____    ______ ____
ROOT
ATOM      1  C   UNL     1      47.960   7.234  13.819  0.00  0.00    +0.000 C 
ENDROOT
BRANCH   1   2
ATOM      2  C   UNL     1      47.004   6.437  12.955  0.00  0.00    +0.000 A 
ATOM      3  C   UNL     1      46.572   5.175  13.357  0.00  0.00    +0.000 A 
ATOM      4  C   UNL     1      45.717   4.456  12.523  0.00  0.00    +0.000 A 
ATOM      5  C   UNL     1      45.300   5.001  11.303  0.00  0.00    +0.000 A 
ATOM      6  C   UNL     1      45.755   6.280  11.006  0.00  0.00    +0.000 A 
ATOM      7  N   UNL     1      46.580   7.007  11.799  0.00  0.00    +0.000 NA
BRANCH   5   8
ATOM      8  C   UNL     1      44.356   4.277  10.369  0.00  0.00    +0.000 C 
BRANCH   8   9
ATOM      9  C   UNL     1      45.090   3.554   9.246  0.00  0.00    +0.000 A 
ATOM     10  C   UNL     1      45.233   2.168   9.268  0.00  0.00    +0.000 A 
ATOM     11  C   UNL     1      45.984   1.554   8.269  0.00  0.00    +0.000 A 
ATOM     12  C   UNL     1      46.563   2.333   7.275  0.00  0.00    +0.000 A 
ATOM     13  C   UNL     1      46.347   3.700   7.305  0.00  0.00    +0.000 A 
ATOM     14  N   UNL     1      45.621   4.328   8.257  0.00  0.00    +0.000 NA
ENDBRANCH   8   9
BRANCH   8  15
ATOM     15  O   UNL     1      43.429   5.220   9.809  0.00  0.00    +0.000 OA
ATOM     16  H   UNL     1      43.711   6.085  10.166  0.00  0.00    +0.000 HD
ENDBRANCH   8  15
ENDBRANCH   5   8
ENDBRANCH   1   2
BRANCH   1  19
ATOM     17  O   UNL     1      50.179   6.623  15.448  0.00  0.00    +0.000 OA
ATOM     18  C   UNL     1      49.044   6.476  15.896  0.00  0.00    +0.000 C 
ATOM     19  N   UNL     1      47.917   6.829  15.204  0.00  0.00    +0.000 N 
ATOM     20  H   UNL     1      47.004   6.689  15.610  0.00  0.00    +0.000 HD
BRANCH  18  21
ATOM     21  C   UNL     1      48.804   5.954  17.242  0.00  0.00    +0.000 A 
ATOM     22  C   UNL     1      48.991   4.614  17.545  0.00  0.00    +0.000 A 
ATOM     23  S   UNL     1      48.717   4.251  19.193  0.00  0.00    +0.000 S 
ATOM     24  C   UNL     1      48.294   5.865  19.538  0.00  0.00    +0.000 A 
ATOM     25  N   UNL     1      47.954   6.254  20.797  0.00  0.00    +0.000 NA
ATOM     26  C   UNL     1      47.642   7.504  20.902  0.00  0.00    +0.000 A 
ATOM     27  N   UNL     1      47.627   8.397  19.861  0.00  0.00    +0.000 N 
ATOM     28  C   UNL     1      47.930   8.042  18.569  0.00  0.00    +0.000 A 
ATOM     29  O   UNL     1      47.855   8.856  17.655  0.00  0.00    +0.000 OA
ATOM     30  C   UNL     1      48.342   6.661  18.411  0.00  0.00    +0.000 A 
ATOM     31  H   UNL     1      47.356   9.358  20.003  0.00  0.00    +0.000 HD
ENDBRANCH  18  21
ENDBRANCH   1  19
TORSDOF 6
ENDMDL
MODEL 4
REMARK VINA RESULT:    -7.754      2.207      3.888
REMARK INTER + INTRA:         -11.289
REMARK INTER:                 -10.486
REMARK INTRA:                  -0.802
REMARK UNBOUND:                -1.042
REMARK  Name = 
REMARK  6 active torsions:
REMARK  status: ('A' for Active; 'I' for Inactive)
REMARK    1  A    between atoms: C_2  and  C_19
REMARK    2  A    between atoms: N_3  and  C_4
REMARK    3  A    between atoms: C_4  and  C_5
REMARK    4  A    between atoms: C_8  and  C_9
REMARK    5  A    between atoms: C_9  and  O_10
REMARK    6  A    between atoms: C_9  and  C_11
REMARK                            x       y       z     vdW  Elec       q    Type
REMARK                         _______ _______ _______ _____ _____    ______ ____
ROOT
ATOM      1  C   UNL     1      47.590   8.136  13.612  0.00  0.00    +0.000 C 
ENDROOT
BRANCH   1   2
ATOM      2  C   UNL     1      46.676   7.253  12.788  0.00  0.00    +0.000 A 
ATOM      3  C   UNL     1      45.502   7.765  12.240  0.00  0.00    +0.000 A 
ATOM      4  C   UNL     1      44.668   6.916  11.514  0.00  0.00    +0.000 A 
ATOM      5  C   UNL     1      45.012   5.572  11.337  0.00  0.00    +0.000 A 
ATOM      6  C   UNL     1      46.221   5.162  11.890  0.00  0.00    +0.000 A 
ATOM      7  N   UNL     1      47.056   5.964  12.595  0.00  0.00    +0.000 NA
BRANCH   5   8
ATOM      8  C   UNL     1      44.159   4.610  10.541  0.00  0.00    +0.000 C 
BRANCH   8   9
ATOM      9  C   UNL     1      44.951   3.893   9.454  0.00  0.00    +0.000 A 
ATOM     10  C   UNL     1      45.052   2.502   9.448  0.00  0.00    +0.000 A 
ATOM     11  C   UNL     1      45.854   1.891   8.490  0.00  0.00    +0.000 A 
ATOM     12  C   UNL     1      46.526   2.676   7.561  0.00  0.00    +0.000 A 
ATOM     13  C   UNL     1      46.349   4.048   7.612  0.00  0.00    +0.000 A 
ATOM     14  N   UNL     1      45.575   4.674   8.527  0.00  0.00    +0.000 NA
ENDBRANCH   8   9
BRANCH   8  15
ATOM     15  O   UNL     1      43.066   5.327   9.947  0.00  0.00    +0.000 OA
ATOM     16  H   UNL     1      42.350   4.665   9.871  0.00  0.00    +0.000 HD
ENDBRANCH   8  15
ENDBRANCH   5   8
ENDBRANCH   1   2
BRANCH   1  19
ATOM     17  O   UNL     1      50.097   7.098  14.380  0.00  0.00    +0.000 OA
ATOM     18  C   UNL     1      49.142   6.999  15.148  0.00  0.00    +0.000 C 
ATOM     19  N   UNL     1      47.917   7.549  14.890  0.00  0.00    +0.000 N 
ATOM     20  H   UNL     1      47.159   7.440  15.549  0.00  0.00    +0.000 HD
BRANCH  18  21
ATOM     21  C   UNL     1      49.256   6.320  16.440  0.00  0.00    +0.000 A 
ATOM     22  C   UNL     1      50.068   6.813  17.450  0.00  0.00    +0.000 A 
ATOM     23  S   UNL     1      49.986   5.894  18.889  0.00  0.00    +0.000 S 
ATOM     24  C   UNL     1      48.900   4.784  18.188  0.00  0.00    +0.000 A 
ATOM     25  N   UNL     1      48.409   3.731  18.895  0.00  0.00    +0.000 NA
ATOM     26  C   UNL     1      47.610   2.966  18.226  0.00  0.00    +0.000 A 
ATOM     27  N   UNL     1      47.268   3.152  16.911  0.00  0.00    +0.000 N 
ATOM     28  C   UNL     1      47.765   4.181  16.148  0.00  0.00    +0.000 A 
ATOM     29  O   UNL     1      47.477   4.285  14.962  0.00  0.00    +0.000 OA
ATOM     30  C   UNL     1      48.622   5.099  16.872  0.00  0.00    +0.000 A 
ATOM     31  H   UNL     1      46.652   2.509  16.437  0.00  0.00    +0.000 HD
ENDBRANCH  18  21
ENDBRANCH   1  19
TORSDOF 6
ENDMDL
MODEL 5
REMARK VINA RESULT:    -7.504      1.298      1.713
REMARK INTER + INTRA:         -10.958
REMARK INTER:                  -9.984
REMARK INTRA:                  -0.974
REMARK UNBOUND:                -1.042
REMARK  Name = 
REMARK  6 active torsions:
REMARK  status: ('A' for Active; 'I' for Inactive)
REMARK    1  A    between atoms: C_2  and  C_19
REMARK    2  A    between atoms: N_3  and  C_4
REMARK    3  A    between atoms: C_4  and  C_5
REMARK    4  A    between atoms: C_8  and  C_9
REMARK    5  A    between atoms: C_9  and  O_10
REMARK    6  A    between atoms: C_9  and  C_11
REMARK                            x       y       z     vdW  Elec       q    Type
REMARK                         _______ _______ _______ _____ _____    ______ ____
ROOT
ATOM      1  C   UNL     1      46.702   5.532  14.174  0.00  0.00    +0.000 C 
ENDROOT
BRANCH   1   2
ATOM      2  C   UNL     1      46.087   4.949  12.918  0.00  0.00    +0.000 A 
ATOM      3  C   UNL     1      45.652   3.626  12.891  0.00  0.00    +0.000 A 
ATOM      4  C   UNL     1      45.121   3.113  11.709  0.00  0.00    +0.000 A 
ATOM      5  C   UNL     1      45.024   3.921  10.570  0.00  0.00    +0.000 A 
ATOM      6  C   UNL     1      45.450   5.238  10.705  0.00  0.00    +0.000 A 
ATOM      7  N   UNL     1      45.964   5.768  11.842  0.00  0.00    +0.000 NA
BRANCH   5   8
ATOM      8  C   UNL     1      44.435   3.427   9.268  0.00  0.00    +0.000 C 
BRANCH   8   9
ATOM      9  C   UNL     1      45.484   2.804   8.355  0.00  0.00    +0.000 A 
ATOM     10  C   UNL     1      46.016   3.525   7.287  0.00  0.00    +0.000 A 
ATOM     11  C   UNL     1      46.907   2.891   6.426  0.00  0.00    +0.000 A 
ATOM     12  C   UNL     1      47.249   1.564   6.654  0.00  0.00    +0.000 A 
ATOM     13  C   UNL     1      46.703   0.926   7.755  0.00  0.00    +0.000 A 
ATOM     14  N   UNL     1      45.838   1.513   8.613  0.00  0.00    +0.000 NA
ENDBRANCH   8   9
BRANCH   8  15
ATOM     15  O   UNL     1      43.796   4.520   8.592  0.00  0.00    +0.000 OA
ATOM     16  H   UNL     1      44.203   4.531   7.702  0.00  0.00    +0.000 HD
ENDBRANCH   8  15
ENDBRANCH   5   8
ENDBRANCH   1   2
BRANCH   1  19
ATOM     17  O   UNL     1      49.133   6.360  15.337  0.00  0.00    +0.000 OA
ATOM     18  C   UNL     1      48.527   7.129  14.595  0.00  0.00    +0.000 C 
ATOM     19  N   UNL     1      47.388   6.776  13.924  0.00  0.00    +0.000 N 
ATOM     20  H   UNL     1      46.922   7.442  13.325  0.00  0.00    +0.000 HD
BRANCH  18  21
ATOM     21  C   UNL     1      49.009   8.484  14.324  0.00  0.00    +0.000 A 
ATOM     22  C   UNL     1      48.815   9.518  15.227  0.00  0.00    +0.000 A 
ATOM     23  S   UNL     1      49.525  10.991  14.728  0.00  0.00    +0.000 S 
ATOM     24  C   UNL     1      50.069  10.302  13.268  0.00  0.00    +0.000 A 
ATOM     25  N   UNL     1      50.775  11.030  12.361  0.00  0.00    +0.000 NA
ATOM     26  C   UNL     1      51.105  10.377  11.295  0.00  0.00    +0.000 A 
ATOM     27  N   UNL     1      50.782   9.067  11.049  0.00  0.00    +0.000 N 
ATOM     28  C   UNL     1      50.042   8.304  11.919  0.00  0.00    +0.000 A 
ATOM     29  O   UNL     1      49.729   7.152  11.640  0.00  0.00    +0.000 OA
ATOM     30  C   UNL     1      49.697   8.976  13.156  0.00  0.00    +0.000 A 
ATOM     31  H   UNL     1      51.053   8.618  10.187  0.00  0.00    +0.000 HD
ENDBRANCH  18  21
ENDBRANCH   1  19
TORSDOF 6
ENDMDL
MODEL 6
REMARK VINA RESULT:    -7.432      1.963      2.619
REMARK INTER + INTRA:         -10.863
REMARK INTER:                  -9.908
REMARK INTRA:                  -0.955
REMARK UNBOUND:                -1.042
REMARK  Name = 
REMARK  6 active torsions:
REMARK  status: ('A' for Active; 'I' for Inactive)
REMARK    1  A    between atoms: C_2  and  C_19
REMARK    2  A    between atoms: N_3  and  C_4
REMARK    3  A    between atoms: C_4  and  C_5
REMARK    4  A    between atoms: C_8  and  C_9
REMARK    5  A    between atoms: C_9  and  O_10
REMARK    6  A    between atoms: C_9  and  C_11
REMARK                            x       y       z     vdW  Elec       q    Type
REMARK                         _______ _______ _______ _____ _____    ______ ____
ROOT
ATOM      1  C   UNL     1      46.754   5.716  14.030  0.00  0.00    +0.000 C 
ENDROOT
BRANCH   1   2
ATOM      2  C   UNL     1      46.128   5.065  12.815  0.00  0.00    +0.000 A 
ATOM      3  C   UNL     1      45.717   3.735  12.857  0.00  0.00    +0.000 A 
ATOM      4  C   UNL     1      45.173   3.158  11.710  0.00  0.00    +0.000 A 
ATOM      5  C   UNL     1      45.039   3.911  10.538  0.00  0.00    +0.000 A 
ATOM      6  C   UNL     1      45.443   5.240  10.604  0.00  0.00    +0.000 A 
ATOM      7  N   UNL     1      45.969   5.831  11.705  0.00  0.00    +0.000 NA
BRANCH   5   8
ATOM      8  C   UNL     1      44.436   3.346   9.272  0.00  0.00    +0.000 C 
BRANCH   8   9
ATOM      9  C   UNL     1      45.487   2.756   8.339  0.00  0.00    +0.000 A 
ATOM     10  C   UNL     1      45.990   3.500   7.273  0.00  0.00    +0.000 A 
ATOM     11  C   UNL     1      46.883   2.894   6.394  0.00  0.00    +0.000 A 
ATOM     12  C   UNL     1      47.257   1.573   6.604  0.00  0.00    +0.000 A 
ATOM     13  C   UNL     1      46.739   0.912   7.705  0.00  0.00    +0.000 A 
ATOM     14  N   UNL     1      45.872   1.470   8.580  0.00  0.00    +0.000 NA
ENDBRANCH   8   9
BRANCH   8  15
ATOM     15  O   UNL     1      43.713   4.382   8.589  0.00  0.00    +0.000 OA
ATOM     16  H   UNL     1      43.350   3.945   7.793  0.00  0.00    +0.000 HD
ENDBRANCH   8  15
ENDBRANCH   5   8
ENDBRANCH   1   2
BRANCH   1  19
ATOM     17  O   UNL     1      47.261   8.490  14.020  0.00  0.00    +0.000 OA
ATOM     18  C   UNL     1      48.147   7.714  13.669  0.00  0.00    +0.000 C 
ATOM     19  N   UNL     1      48.013   6.353  13.725  0.00  0.00    +0.000 N 
ATOM     20  H   UNL     1      48.767   5.753  13.424  0.00  0.00    +0.000 HD
BRANCH  18  21
ATOM     21  C   UNL     1      49.452   8.188  13.205  0.00  0.00    +0.000 A 
ATOM     22  C   UNL     1      49.590   8.884  12.014  0.00  0.00    +0.000 A 
ATOM     23  S   UNL     1      51.194   9.395  11.715  0.00  0.00    +0.000 S 
ATOM     24  C   UNL     1      51.758   8.658  13.144  0.00  0.00    +0.000 A 
ATOM     25  N   UNL     1      53.067   8.727  13.506  0.00  0.00    +0.000 NA
ATOM     26  C   UNL     1      53.348   8.107  14.605  0.00  0.00    +0.000 A 
ATOM     27  N   UNL     1      52.442   7.414  15.366  0.00  0.00    +0.000 N 
ATOM     28  C   UNL     1      51.118   7.289  15.022  0.00  0.00    +0.000 A 
ATOM     29  O   UNL     1      50.348   6.618  15.700  0.00  0.00    +0.000 OA
ATOM     30  C   UNL     1      50.742   8.017  13.825  0.00  0.00    +0.000 A 
ATOM     31  H   UNL     1      52.726   6.934  16.207  0.00  0.00    +0.000 HD
ENDBRANCH  18  21
ENDBRANCH   1  19
TORSDOF 6
ENDMDL
MODEL 7
REMARK VINA RESULT:    -7.404      2.531      4.066
REMARK INTER + INTRA:         -10.826
REMARK INTER:                 -10.145
REMARK INTRA:                  -0.681
REMARK UNBOUND:                -1.042
REMARK  Name = 
REMARK  6 active torsions:
REMARK  status: ('A' for Active; 'I' for Inactive)
REMARK    1  A    between atoms: C_2  and  C_19
REMARK    2  A    between atoms: N_3  and  C_4
REMARK    3  A    between atoms: C_4  and  C_5
REMARK    4  A    between atoms: C_8  and  C_9
REMARK    5  A    between atoms: C_9  and  O_10
REMARK    6  A    between atoms: C_9  and  C_11
REMARK                            x       y       z     vdW  Elec       q    Type
REMARK                         _______ _______ _______ _____ _____    ______ ____
ROOT
ATOM      1  C   UNL     1      48.434   7.191  13.681  0.00  0.00    +0.000 C 
ENDROOT
BRANCH   1   2
ATOM      2  C   UNL     1      47.361   6.442  12.916  0.00  0.00    +0.000 A 
ATOM      3  C   UNL     1      46.802   5.279  13.439  0.00  0.00    +0.000 A 
ATOM      4  C   UNL     1      45.840   4.598  12.694  0.00  0.00    +0.000 A 
ATOM      5  C   UNL     1      45.442   5.084  11.444  0.00  0.00    +0.000 A 
ATOM      6  C   UNL     1      46.030   6.272  11.024  0.00  0.00    +0.000 A 
ATOM      7  N   UNL     1      46.962   6.961  11.727  0.00  0.00    +0.000 NA
BRANCH   5   8
ATOM      8  C   UNL     1      44.387   4.402  10.602  0.00  0.00    +0.000 C 
BRANCH   8   9
ATOM      9  C   UNL     1      44.986   3.627   9.434  0.00  0.00    +0.000 A 
ATOM     10  C   UNL     1      45.102   2.239   9.487  0.00  0.00    +0.000 A 
ATOM     11  C   UNL     1      45.732   1.577   8.438  0.00  0.00    +0.000 A 
ATOM     12  C   UNL     1      46.221   2.311   7.364  0.00  0.00    +0.000 A 
ATOM     13  C   UNL     1      46.038   3.683   7.371  0.00  0.00    +0.000 A 
ATOM     14  N   UNL     1      45.428   4.357   8.371  0.00  0.00    +0.000 NA
ENDBRANCH   8   9
BRANCH   8  15
ATOM     15  O   UNL     1      43.467   5.386  10.106  0.00  0.00    +0.000 OA
ATOM     16  H   UNL     1      43.497   6.106  10.767  0.00  0.00    +0.000 HD
ENDBRANCH   8  15
ENDBRANCH   5   8
ENDBRANCH   1   2
BRANCH   1  19
ATOM     17  O   UNL     1      50.381   7.300  15.717  0.00  0.00    +0.000 OA
ATOM     18  C   UNL     1      49.196   7.187  16.022  0.00  0.00    +0.000 C 
ATOM     19  N   UNL     1      48.183   7.212  15.102  0.00  0.00    +0.000 N 
ATOM     20  H   UNL     1      47.223   7.114  15.397  0.00  0.00    +0.000 HD
BRANCH  18  21
ATOM     21  C   UNL     1      48.762   7.067  17.415  0.00  0.00    +0.000 A 
ATOM     22  C   UNL     1      48.187   8.132  18.091  0.00  0.00    +0.000 A 
ATOM     23  S   UNL     1      47.699   7.737  19.680  0.00  0.00    +0.000 S 
ATOM     24  C   UNL     1      48.286   6.144  19.528  0.00  0.00    +0.000 A 
ATOM     25  N   UNL     1      48.173   5.248  20.544  0.00  0.00    +0.000 NA
ATOM     26  C   UNL     1      48.678   4.086  20.288  0.00  0.00    +0.000 A 
ATOM     27  N   UNL     1      49.297   3.744  19.113  0.00  0.00    +0.000 N 
ATOM     28  C   UNL     1      49.464   4.626  18.073  0.00  0.00    +0.000 A 
ATOM     29  O   UNL     1      50.069   4.299  17.058  0.00  0.00    +0.000 OA
ATOM     30  C   UNL     1      48.862   5.926  18.292  0.00  0.00    +0.000 A 
ATOM     31  H   UNL     1      49.689   2.824  18.979  0.00  0.00    +0.000 HD
ENDBRANCH  18  21
ENDBRANCH   1  19
TORSDOF 6
ENDMDL
MODEL 8
REMARK VINA RESULT:    -7.345      2.243      2.737
REMARK INTER + INTRA:         -10.748
REMARK INTER:                 -10.081
REMARK INTRA:                  -0.667
REMARK UNBOUND:                -1.042
REMARK  Name = 
REMARK  6 active torsions:
REMARK  status: ('A' for Active; 'I' for Inactive)
REMARK    1  A    between atoms: C_2  and  C_19
REMARK    2  A    between atoms: N_3  and  C_4
REMARK    3  A    between atoms: C_4  and  C_5
REMARK    4  A    between atoms: C_8  and  C_9
REMARK    5  A    between atoms: C_9  and  O_10
REMARK    6  A    between atoms: C_9  and  C_11
REMARK                            x       y       z     vdW  Elec       q    Type
REMARK                         _______ _______ _______ _____ _____    ______ ____
ROOT
ATOM      1  C   UNL     1      47.651   4.140  15.461  0.00  0.00    +0.000 C 
ENDROOT
BRANCH   1   2
ATOM      2  C   UNL     1      46.817   4.288  14.205  0.00  0.00    +0.000 A 
ATOM      3  C   UNL     1      46.523   5.551  13.696  0.00  0.00    +0.000 A 
ATOM      4  C   UNL     1      45.728   5.651  12.556  0.00  0.00    +0.000 A 
ATOM      5  C   UNL     1      45.239   4.498  11.934  0.00  0.00    +0.000 A 
ATOM      6  C   UNL     1      45.616   3.282  12.494  0.00  0.00    +0.000 A 
ATOM      7  N   UNL     1      46.393   3.151  13.596  0.00  0.00    +0.000 NA
BRANCH   5   8
ATOM      8  C   UNL     1      44.391   4.544  10.682  0.00  0.00    +0.000 C 
BRANCH   8   9
ATOM      9  C   UNL     1      45.078   3.891   9.489  0.00  0.00    +0.000 A 
ATOM     10  C   UNL     1      45.089   2.505   9.346  0.00  0.00    +0.000 A 
ATOM     11  C   UNL     1      45.801   1.944   8.289  0.00  0.00    +0.000 A 
ATOM     12  C   UNL     1      46.473   2.776   7.402  0.00  0.00    +0.000 A 
ATOM     13  C   UNL     1      46.386   4.145   7.593  0.00  0.00    +0.000 A 
ATOM     14  N   UNL     1      45.701   4.722   8.606  0.00  0.00    +0.000 NA
ENDBRANCH   8   9
BRANCH   8  15
ATOM     15  O   UNL     1      44.079   5.910  10.371  0.00  0.00    +0.000 OA
ATOM     16  H   UNL     1      44.226   5.983   9.407  0.00  0.00    +0.000 HD
ENDBRANCH   8  15
ENDBRANCH   5   8
ENDBRANCH   1   2
BRANCH   1  19
ATOM     17  O   UNL     1      49.816   5.560  16.578  0.00  0.00    +0.000 OA
ATOM     18  C   UNL     1      48.667   5.876  16.881  0.00  0.00    +0.000 C 
ATOM     19  N   UNL     1      47.562   5.296  16.320  0.00  0.00    +0.000 N 
ATOM     20  H   UNL     1      46.636   5.586  16.601  0.00  0.00    +0.000 HD
BRANCH  18  21
ATOM     21  C   UNL     1      48.386   6.947  17.838  0.00  0.00    +0.000 A 
ATOM     22  C   UNL     1      48.180   6.682  19.183  0.00  0.00    +0.000 A 
ATOM     23  S   UNL     1      47.938   8.093  20.118  0.00  0.00    +0.000 S 
ATOM     24  C   UNL     1      48.052   9.094  18.743  0.00  0.00    +0.000 A 
ATOM     25  N   UNL     1      47.944  10.446  18.842  0.00  0.00    +0.000 NA
ATOM     26  C   UNL     1      48.034  11.071  17.714  0.00  0.00    +0.000 A 
ATOM     27  N   UNL     1      48.209  10.465  16.496  0.00  0.00    +0.000 N 
ATOM     28  C   UNL     1      48.289   9.102  16.344  0.00  0.00    +0.000 A 
ATOM     29  O   UNL     1      48.394   8.594  15.234  0.00  0.00    +0.000 OA
ATOM     30  C   UNL     1      48.251   8.361  17.590  0.00  0.00    +0.000 A 
ATOM     31  H   UNL     1      48.253  11.007  15.646  0.00  0.00    +0.000 HD
ENDBRANCH  18  21
ENDBRANCH   1  19
TORSDOF 6
ENDMDL
MODEL 9
REMARK VINA RESULT:    -7.156      3.730      8.462
REMARK INTER + INTRA:         -10.498
REMARK INTER:                  -9.568
REMARK INTRA:                  -0.930
REMARK UNBOUND:                -1.042
REMARK  Name = 
REMARK  6 active torsions:
REMARK  status: ('A' for Active; 'I' for Inactive)
REMARK    1  A    between atoms: C_2  and  C_19
REMARK    2  A    between atoms: N_3  and  C_4
REMARK    3  A    between atoms: C_4  and  C_5
REMARK    4  A    between atoms: C_8  and  C_9
REMARK    5  A    between atoms: C_9  and  O_10
REMARK    6  A    between atoms: C_9  and  C_11
REMARK                            x       y       z     vdW  Elec       q    Type
REMARK                         _______ _______ _______ _____ _____    ______ ____
ROOT
ATOM      1  C   UNL     1      48.244   7.393  12.969  0.00  0.00    +0.000 C 
ENDROOT
BRANCH   1   2
ATOM      2  C   UNL     1      48.594   6.757  14.298  0.00  0.00    +0.000 A 
ATOM      3  C   UNL     1      49.653   7.246  15.060  0.00  0.00    +0.000 A 
ATOM      4  C   UNL     1      49.967   6.617  16.263  0.00  0.00    +0.000 A 
ATOM      5  C   UNL     1      49.222   5.514  16.698  0.00  0.00    +0.000 A 
ATOM      6  C   UNL     1      48.162   5.123  15.888  0.00  0.00    +0.000 A 
ATOM      7  N   UNL     1      47.827   5.717  14.717  0.00  0.00    +0.000 NA
BRANCH   5   8
ATOM      8  C   UNL     1      49.502   4.806  18.005  0.00  0.00    +0.000 C 
BRANCH   8   9
ATOM      9  C   UNL     1      50.548   3.707  17.859  0.00  0.00    +0.000 A 
ATOM     10  C   UNL     1      50.198   2.455  17.358  0.00  0.00    +0.000 A 
ATOM     11  C   UNL     1      51.163   1.452  17.323  0.00  0.00    +0.000 A 
ATOM     12  C   UNL     1      52.447   1.725  17.777  0.00  0.00    +0.000 A 
ATOM     13  C   UNL     1      52.724   3.004  18.230  0.00  0.00    +0.000 A 
ATOM     14  N   UNL     1      51.813   4.001  18.275  0.00  0.00    +0.000 NA
ENDBRANCH   8   9
BRANCH   8  15
ATOM     15  O   UNL     1      48.281   4.245  18.510  0.00  0.00    +0.000 OA
ATOM     16  H   UNL     1      48.065   3.524  17.887  0.00  0.00    +0.000 HD
ENDBRANCH   8  15
ENDBRANCH   5   8
ENDBRANCH   1   2
BRANCH   1  19
ATOM     17  O   UNL     1      45.761   7.878  11.724  0.00  0.00    +0.000 OA
ATOM     18  C   UNL     1      46.293   6.778  11.598  0.00  0.00    +0.000 C 
ATOM     19  N   UNL     1      47.535   6.488  12.096  0.00  0.00    +0.000 N 
ATOM     20  H   UNL     1      47.933   5.569  11.970  0.00  0.00    +0.000 HD
BRANCH  18  21
ATOM     21  C   UNL     1      45.659   5.692  10.850  0.00  0.00    +0.000 A 
ATOM     22  C   UNL     1      45.799   5.578   9.475  0.00  0.00    +0.000 A 
ATOM     23  S   UNL     1      45.027   4.195   8.832  0.00  0.00    +0.000 S 
ATOM     24  C   UNL     1      44.443   3.735  10.365  0.00  0.00    +0.000 A 
ATOM     25  N   UNL     1      43.700   2.608  10.530  0.00  0.00    +0.000 NA
ATOM     26  C   UNL     1      43.314   2.398  11.746  0.00  0.00    +0.000 A 
ATOM     27  N   UNL     1      43.593   3.220  12.808  0.00  0.00    +0.000 N 
ATOM     28  C   UNL     1      44.310   4.385  12.683  0.00  0.00    +0.000 A 
ATOM     29  O   UNL     1      44.496   5.120  13.646  0.00  0.00    +0.000 OA
ATOM     30  C   UNL     1      44.814   4.633  11.346  0.00  0.00    +0.000 A 
ATOM     31  H   UNL     1      43.247   3.012  13.733  0.00  0.00    +0.000 HD
ENDBRANCH  18  21
ENDBRANCH   1  19
TORSDOF 6
ENDMDL
