MODEL 1
REMARK VINA RESULT:    -7.702      0.000      0.000
REMARK INTER + INTRA:         -11.927
REMARK INTER:                 -11.529
REMARK INTRA:                  -0.398
REMARK UNBOUND:                -0.398
REMARK  Name = 
REMARK  9 active torsions:
REMARK  status: ('A' for Active; 'I' for Inactive)
REMARK    1  A    between atoms: N_1  and  C_2
REMARK    2  A    between atoms: C_2  and  C_3
REMARK    3  A    between atoms: C_3  and  C_4
REMARK    4  A    between atoms: C_3  and  C_19
REMARK    5  A    between atoms: C_4  and  C_5
REMARK    6  A    between atoms: C_8  and  C_9
REMARK    7  A    between atoms: C_9  and  N_10
REMARK    8  A    between atoms: N_10  and  C_11
REMARK    9  A    between atoms: C_11  and  C_12
REMARK                            x       y       z     vdW  Elec       q    Type
REMARK                         _______ _______ _______ _____ _____    ______ ____
ROOT
ATOM      1  C   UNL     1      47.936   4.140  15.415  0.00  0.00    +0.000 C 
ENDROOT
BRANCH   1   2
ATOM      2  C   UNL     1      47.087   4.819  14.360  0.00  0.00    +0.000 A 
ATOM      3  C   UNL     1      45.805   4.412  13.995  0.00  0.00    +0.000 A 
ATOM      4  C   UNL     1      45.139   5.012  12.926  0.00  0.00    +0.000 A 
ATOM      5  C   UNL     1      45.719   6.068  12.205  0.00  0.00    +0.000 A 
ATOM      6  C   UNL     1      46.981   6.524  12.598  0.00  0.00    +0.000 A 
ATOM      7  C   UNL     1      47.651   5.906  13.661  0.00  0.00    +0.000 A 
BRANCH   5   8
ATOM      8  C   UNL     1      44.986   6.665  11.026  0.00  0.00    +0.000 C 
BRANCH   8   9
ATOM      9  N   UNL     1      44.446   5.604  10.179  0.00  0.00    +0.000 NA
ATOM     10  H   UNL     1      43.797   6.020   9.511  0.00  0.00    +0.000 HD
BRANCH   9  11
ATOM     11  C   UNL     1      45.489   4.866   9.460  0.00  0.00    +0.000 C 
BRANCH  11  12
ATOM     12  C   UNL     1      44.840   4.006   8.343  0.00  0.00    +0.000 C 
ATOM     13  C   UNL     1      45.827   3.528   7.295  0.00  0.00    +0.000 C 
ATOM     14  C   UNL     1      46.415   2.269   7.902  0.00  0.00    +0.000 C 
ATOM     15  C   UNL     1      45.326   1.738   8.825  0.00  0.00    +0.000 C 
ATOM     16  N   UNL     1      44.267   2.750   8.858  0.00  0.00    +0.000 NA
ATOM     17  H   UNL     1      43.955   2.912   9.820  0.00  0.00    +0.000 HD
ENDBRANCH  11  12
ENDBRANCH   9  11
ENDBRANCH   8   9
ENDBRANCH   5   8
ENDBRANCH   1   2
BRANCH   1  18
ATOM     18  C   UNL     1      48.172   4.736  16.836  0.00  0.00    +0.000 C 
BRANCH  18  19
ATOM     19  C   UNL     1      49.619   4.628  17.355  0.00  0.00    +0.000 A 
ATOM     20  C   UNL     1      50.364   5.695  17.845  0.00  0.00    +0.000 A 
ATOM     21  S   UNL     1      51.921   5.267  18.389  0.00  0.00    +0.000 S 
ATOM     22  C   UNL     1      51.685   3.643  17.951  0.00  0.00    +0.000 A 
ATOM     23  N   UNL     1      52.660   2.720  18.165  0.00  0.00    +0.000 NA
ATOM     24  C   UNL     1      52.351   1.527  17.781  0.00  0.00    +0.000 A 
ATOM     25  N   UNL     1      51.162   1.178  17.192  0.00  0.00    +0.000 N 
ATOM     26  C   UNL     1      50.171   2.088  16.902  0.00  0.00    +0.000 A 
ATOM     27  O   UNL     1      49.178   1.758  16.264  0.00  0.00    +0.000 OA
ATOM     28  C   UNL     1      50.443   3.434  17.376  0.00  0.00    +0.000 A 
ATOM     29  H   UNL     1      51.001   0.235  16.873  0.00  0.00    +0.000 HD
ENDBRANCH  18  19
BRANCH  18  30
ATOM     30  C   UNL     1      47.131   4.246  17.888  0.00  0.00    +0.000 C 
BRANCH  30  31
ATOM     31  N   UNL     1      46.659   2.871  17.721  0.00  0.00    +0.000 NA
ATOM     32  H   UNL     1      47.342   2.357  17.161  0.00  0.00    +0.000 HD
ATOM     33  H   UNL     1      45.806   2.877  17.160  0.00  0.00    +0.000 HD
ENDBRANCH  30  31
ENDBRANCH  18  30
ENDBRANCH   1  18
TORSDOF 9
ENDMDL
MODEL 2
REMARK VINA RESULT:    -7.609      2.375      3.564
REMARK INTER + INTRA:         -11.787
REMARK INTER:                 -10.653
REMARK INTRA:                  -1.134
REMARK UNBOUND:                -0.398
REMARK  Name = 
REMARK  9 active torsions:
REMARK  status: ('A' for Active; 'I' for Inactive)
REMARK    1  A    between atoms: N_1  and  C_2
REMARK    2  A    between atoms: C_2  and  C_3
REMARK    3  A    between atoms: C_3  and  C_4
REMARK    4  A    between atoms: C_3  and  C_19
REMARK    5  A    between atoms: C_4  and  C_5
REMARK    6  A    between atoms: C_8  and  C_9
REMARK    7  A    between atoms: C_9  and  N_10
REMARK    8  A    between atoms: N_10  and  C_11
REMARK    9  A    between atoms: C_11  and  C_12
REMARK                            x       y       z     vdW  Elec       q    Type
REMARK                         _______ _______ _______ _____ _____    ______ ____
ROOT
ATOM      1  C   UNL     1      47.111   7.317  13.648  0.00  0.00    +0.000 C 
ENDROOT
BRANCH   1   2
ATOM      2  C   UNL     1      46.171   6.613  12.689  0.00  0.00    +0.000 A 
ATOM      3  C   UNL     1      45.020   5.928  13.073  0.00  0.00    +0.000 A 
ATOM      4  C   UNL     1      44.276   5.199  12.144  0.00  0.00    +0.000 A 
ATOM      5  C   UNL     1      44.638   5.161  10.788  0.00  0.00    +0.000 A 
ATOM      6  C   UNL     1      45.758   5.893  10.381  0.00  0.00    +0.000 A 
ATOM      7  C   UNL     1      46.511   6.607  11.321  0.00  0.00    +0.000 A 
BRANCH   5   8
ATOM      8  C   UNL     1      43.833   4.327   9.818  0.00  0.00    +0.000 C 
BRANCH   8   9
ATOM      9  N   UNL     1      44.638   3.213   9.323  0.00  0.00    +0.000 NA
ATOM     10  H   UNL     1      44.131   2.344   9.494  0.00  0.00    +0.000 HD
BRANCH   9  11
ATOM     11  C   UNL     1      44.951   3.330   7.896  0.00  0.00    +0.000 C 
BRANCH  11  12
ATOM     12  C   UNL     1      46.490   3.381   7.706  0.00  0.00    +0.000 C 
ATOM     13  C   UNL     1      47.129   2.012   7.556  0.00  0.00    +0.000 C 
ATOM     14  C   UNL     1      46.972   1.702   6.080  0.00  0.00    +0.000 C 
ATOM     15  C   UNL     1      46.929   3.064   5.399  0.00  0.00    +0.000 C 
ATOM     16  N   UNL     1      46.884   4.069   6.464  0.00  0.00    +0.000 NA
ATOM     17  H   UNL     1      46.178   4.781   6.256  0.00  0.00    +0.000 HD
ENDBRANCH  11  12
ENDBRANCH   9  11
ENDBRANCH   8   9
ENDBRANCH   5   8
ENDBRANCH   1   2
BRANCH   1  18
ATOM     18  C   UNL     1      48.502   6.745  14.055  0.00  0.00    +0.000 C 
BRANCH  18  19
ATOM     19  C   UNL     1      48.660   6.424  15.555  0.00  0.00    +0.000 A 
ATOM     20  C   UNL     1      49.331   7.230  16.468  0.00  0.00    +0.000 A 
ATOM     21  S   UNL     1      49.306   6.641  18.067  0.00  0.00    +0.000 S 
ATOM     22  C   UNL     1      48.436   5.259  17.601  0.00  0.00    +0.000 A 
ATOM     23  N   UNL     1      48.075   4.326  18.520  0.00  0.00    +0.000 NA
ATOM     24  C   UNL     1      47.423   3.325  18.029  0.00  0.00    +0.000 A 
ATOM     25  N   UNL     1      47.113   3.169  16.702  0.00  0.00    +0.000 N 
ATOM     26  C   UNL     1      47.509   4.057  15.727  0.00  0.00    +0.000 A 
ATOM     27  O   UNL     1      47.320   3.818  14.541  0.00  0.00    +0.000 OA
ATOM     28  C   UNL     1      48.188   5.236  16.238  0.00  0.00    +0.000 A 
ATOM     29  H   UNL     1      46.640   2.340  16.377  0.00  0.00    +0.000 HD
ENDBRANCH  18  19
BRANCH  18  30
ATOM     30  C   UNL     1      49.695   7.581  13.503  0.00  0.00    +0.000 C 
BRANCH  30  31
ATOM     31  N   UNL     1      50.181   7.195  12.178  0.00  0.00    +0.000 NA
ATOM     32  H   UNL     1      49.825   7.862  11.492  0.00  0.00    +0.000 HD
ATOM     33  H   UNL     1      49.767   6.299  11.918  0.00  0.00    +0.000 HD
ENDBRANCH  30  31
ENDBRANCH  18  30
ENDBRANCH   1  18
TORSDOF 9
ENDMDL
MODEL 3
REMARK VINA RESULT:    -7.324      2.575      3.398
REMARK INTER + INTRA:         -11.361
REMARK INTER:                 -10.486
REMARK INTRA:                  -0.875
REMARK UNBOUND:                -0.398
REMARK  Name = 
REMARK  9 active torsions:
REMARK  status: ('A' for Active; 'I' for Inactive)
REMARK    1  A    between atoms: N_1  and  C_2
REMARK    2  A    between atoms: C_2  and  C_3
REMARK    3  A    between atoms: C_3  and  C_4
REMARK    4  A    between atoms: C_3  and  C_19
REMARK    5  A    between atoms: C_4  and  C_5
REMARK    6  A    between atoms: C_8  and  C_9
REMARK    7  A    between atoms: C_9  and  N_10
REMARK    8  A    between atoms: N_10  and  C_11
REMARK    9  A    between atoms: C_11  and  C_12
REMARK                            x       y       z     vdW  Elec       q    Type
REMARK                         _______ _______ _______ _____ _____    ______ ____
ROOT
ATOM      1  C   UNL     1      47.809   5.431  14.478  0.00  0.00    +0.000 C 
ENDROOT
BRANCH   1   2
ATOM      2  C   UNL     1      46.715   5.112  13.480  0.00  0.00    +0.000 A 
ATOM      3  C   UNL     1      46.200   3.837  13.253  0.00  0.00    +0.000 A 
ATOM      4  C   UNL     1      45.282   3.605  12.228  0.00  0.00    +0.000 A 
ATOM      5  C   UNL     1      44.819   4.652  11.414  0.00  0.00    +0.000 A 
ATOM      6  C   UNL     1      45.284   5.945  11.669  0.00  0.00    +0.000 A 
ATOM      7  C   UNL     1      46.218   6.168  12.689  0.00  0.00    +0.000 A 
BRANCH   5   8
ATOM      8  C   UNL     1      43.858   4.356  10.285  0.00  0.00    +0.000 C 
BRANCH   8   9
ATOM      9  N   UNL     1      44.477   4.674   9.001  0.00  0.00    +0.000 NA
ATOM     10  H   UNL     1      45.335   5.197   9.173  0.00  0.00    +0.000 HD
BRANCH   9  11
ATOM     11  C   UNL     1      44.779   3.479   8.207  0.00  0.00    +0.000 C 
BRANCH  11  12
ATOM     12  C   UNL     1      46.317   3.315   8.083  0.00  0.00    +0.000 C 
ATOM     13  C   UNL     1      46.749   1.907   7.714  0.00  0.00    +0.000 C 
ATOM     14  C   UNL     1      46.640   1.882   6.201  0.00  0.00    +0.000 C 
ATOM     15  C   UNL     1      46.846   3.329   5.773  0.00  0.00    +0.000 C 
ATOM     16  N   UNL     1      46.888   4.132   6.998  0.00  0.00    +0.000 NA
ATOM     17  H   UNL     1      46.312   4.972   6.895  0.00  0.00    +0.000 HD
ENDBRANCH  11  12
ENDBRANCH   9  11
ENDBRANCH   8   9
ENDBRANCH   5   8
ENDBRANCH   1   2
BRANCH   1  18
ATOM     18  C   UNL     1      47.690   5.129  16.003  0.00  0.00    +0.000 C 
BRANCH  18  19
ATOM     19  C   UNL     1      48.678   5.903  16.899  0.00  0.00    +0.000 A 
ATOM     20  C   UNL     1      49.974   6.247  16.531  0.00  0.00    +0.000 A 
ATOM     21  S   UNL     1      50.819   7.140  17.711  0.00  0.00    +0.000 S 
ATOM     22  C   UNL     1      49.505   7.067  18.784  0.00  0.00    +0.000 A 
ATOM     23  N   UNL     1      49.574   7.660  20.005  0.00  0.00    +0.000 NA
ATOM     24  C   UNL     1      48.508   7.522  20.721  0.00  0.00    +0.000 A 
ATOM     25  N   UNL     1      47.388   6.835  20.330  0.00  0.00    +0.000 N 
ATOM     26  C   UNL     1      47.294   6.169  19.129  0.00  0.00    +0.000 A 
ATOM     27  O   UNL     1      46.325   5.465  18.871  0.00  0.00    +0.000 OA
ATOM     28  C   UNL     1      48.443   6.350  18.258  0.00  0.00    +0.000 A 
ATOM     29  H   UNL     1      46.604   6.726  20.956  0.00  0.00    +0.000 HD
ENDBRANCH  18  19
BRANCH  18  30
ATOM     30  C   UNL     1      47.672   3.605  16.327  0.00  0.00    +0.000 C 
BRANCH  30  31
ATOM     31  N   UNL     1      46.650   3.172  17.281  0.00  0.00    +0.000 NA
ATOM     32  H   UNL     1      45.874   3.836  17.252  0.00  0.00    +0.000 HD
ATOM     33  H   UNL     1      47.025   3.242  18.227  0.00  0.00    +0.000 HD
ENDBRANCH  30  31
ENDBRANCH  18  30
ENDBRANCH   1  18
TORSDOF 9
ENDMDL
MODEL 4
REMARK VINA RESULT:    -7.113      3.285      8.432
REMARK INTER + INTRA:         -11.045
REMARK INTER:                  -9.724
REMARK INTRA:                  -1.322
REMARK UNBOUND:                -0.398
REMARK  Name = 
REMARK  9 active torsions:
REMARK  status: ('A' for Active; 'I' for Inactive)
REMARK    1  A    between atoms: N_1  and  C_2
REMARK    2  A    between atoms: C_2  and  C_3
REMARK    3  A    between atoms: C_3  and  C_4
REMARK    4  A    between atoms: C_3  and  C_19
REMARK    5  A    between atoms: C_4  and  C_5
REMARK    6  A    between atoms: C_8  and  C_9
REMARK    7  A    between atoms: C_9  and  N_10
REMARK    8  A    between atoms: N_10  and  C_11
REMARK    9  A    between atoms: C_11  and  C_12
REMARK                            x       y       z     vdW  Elec       q    Type
REMARK                         _______ _______ _______ _____ _____    ______ ____
ROOT
ATOM      1  C   UNL     1      47.495   7.281  11.664  0.00  0.00    +0.000 C 
ENDROOT
BRANCH   1   2
ATOM      2  C   UNL     1      48.372   7.334  12.899  0.00  0.00    +0.000 A 
ATOM      3  C   UNL     1      49.653   7.881  12.935  0.00  0.00    +0.000 A 
ATOM      4  C   UNL     1      50.446   7.778  14.079  0.00  0.00    +0.000 A 
ATOM      5  C   UNL     1      49.969   7.155  15.242  0.00  0.00    +0.000 A 
ATOM      6  C   UNL     1      48.663   6.653  15.238  0.00  0.00    +0.000 A 
ATOM      7  C   UNL     1      47.880   6.744  14.081  0.00  0.00    +0.000 A 
BRANCH   5   8
ATOM      8  C   UNL     1      50.871   7.023  16.448  0.00  0.00    +0.000 C 
BRANCH   8   9
ATOM      9  N   UNL     1      50.259   6.144  17.442  0.00  0.00    +0.000 NA
ATOM     10  H   UNL     1      49.261   6.078  17.246  0.00  0.00    +0.000 HD
BRANCH   9  11
ATOM     11  C   UNL     1      50.851   4.803  17.452  0.00  0.00    +0.000 C 
BRANCH  11  12
ATOM     12  C   UNL     1      49.929   3.836  18.242  0.00  0.00    +0.000 C 
ATOM     13  C   UNL     1      48.452   4.044  17.963  0.00  0.00    +0.000 C 
ATOM     14  C   UNL     1      48.205   3.230  16.707  0.00  0.00    +0.000 C 
ATOM     15  C   UNL     1      49.253   2.126  16.748  0.00  0.00    +0.000 C 
ATOM     16  N   UNL     1      50.141   2.425  17.874  0.00  0.00    +0.000 NA
ATOM     17  H   UNL     1      51.121   2.312  17.598  0.00  0.00    +0.000 HD
ENDBRANCH  11  12
ENDBRANCH   9  11
ENDBRANCH   8   9
ENDBRANCH   5   8
ENDBRANCH   1   2
BRANCH   1  18
ATOM     18  C   UNL     1      45.963   7.001  11.715  0.00  0.00    +0.000 C 
BRANCH  18  19
ATOM     19  C   UNL     1      45.496   5.785  10.889  0.00  0.00    +0.000 A 
ATOM     20  C   UNL     1      45.758   5.603   9.536  0.00  0.00    +0.000 A 
ATOM     21  S   UNL     1      45.152   4.142   8.900  0.00  0.00    +0.000 S 
ATOM     22  C   UNL     1      44.473   3.711  10.395  0.00  0.00    +0.000 A 
ATOM     23  N   UNL     1      43.803   2.537  10.538  0.00  0.00    +0.000 NA
ATOM     24  C   UNL     1      43.335   2.337  11.725  0.00  0.00    +0.000 A 
ATOM     25  N   UNL     1      43.464   3.211  12.774  0.00  0.00    +0.000 N 
ATOM     26  C   UNL     1      44.081   4.436  12.661  0.00  0.00    +0.000 A 
ATOM     27  O   UNL     1      44.067   5.238  13.587  0.00  0.00    +0.000 OA
ATOM     28  C   UNL     1      44.686   4.680  11.362  0.00  0.00    +0.000 A 
ATOM     29  H   UNL     1      43.034   3.015  13.665  0.00  0.00    +0.000 HD
ENDBRANCH  18  19
BRANCH  18  30
ATOM     30  C   UNL     1      45.097   8.267  11.441  0.00  0.00    +0.000 C 
BRANCH  30  31
ATOM     31  N   UNL     1      43.679   8.021  11.179  0.00  0.00    +0.000 NA
ATOM     32  H   UNL     1      43.204   7.866  12.070  0.00  0.00    +0.000 HD
ATOM     33  H   UNL     1      43.580   7.142  10.669  0.00  0.00    +0.000 HD
ENDBRANCH  30  31
ENDBRANCH  18  30
ENDBRANCH   1  18
TORSDOF 9
ENDMDL
MODEL 5
REMARK VINA RESULT:    -7.069      3.131      8.513
REMARK INTER + INTRA:         -10.979
REMARK INTER:                 -10.319
REMARK INTRA:                  -0.660
REMARK UNBOUND:                -0.398
REMARK  Name = 
REMARK  9 active torsions:
REMARK  status: ('A' for Active; 'I' for Inactive)
REMARK    1  A    between atoms: N_1  and  C_2
REMARK    2  A    between atoms: C_2  and  C_3
REMARK    3  A    between atoms: C_3  and  C_4
REMARK    4  A    between atoms: C_3  and  C_19
REMARK    5  A    between atoms: C_4  and  C_5
REMARK    6  A    between atoms: C_8  and  C_9
REMARK    7  A    between atoms: C_9  and  N_10
REMARK    8  A    between atoms: N_10  and  C_11
REMARK    9  A    between atoms: C_11  and  C_12
REMARK                            x       y       z     vdW  Elec       q    Type
REMARK                         _______ _______ _______ _____ _____    ______ ____
ROOT
ATOM      1  C   UNL     1      46.811   6.835  11.688  0.00  0.00    +0.000 C 
ENDROOT
BRANCH   1   2
ATOM      2  C   UNL     1      47.779   6.953  12.847  0.00  0.00    +0.000 A 
ATOM      3  C   UNL     1      48.998   7.627  12.792  0.00  0.00    +0.000 A 
ATOM      4  C   UNL     1      49.891   7.584  13.864  0.00  0.00    +0.000 A 
ATOM      5  C   UNL     1      49.579   6.894  15.046  0.00  0.00    +0.000 A 
ATOM      6  C   UNL     1      48.334   6.262  15.135  0.00  0.00    +0.000 A 
ATOM      7  C   UNL     1      47.451   6.295  14.049  0.00  0.00    +0.000 A 
BRANCH   5   8
ATOM      8  C   UNL     1      50.588   6.832  16.169  0.00  0.00    +0.000 C 
BRANCH   8   9
ATOM      9  N   UNL     1      50.720   5.461  16.654  0.00  0.00    +0.000 NA
ATOM     10  H   UNL     1      51.695   5.296  16.903  0.00  0.00    +0.000 HD
BRANCH   9  11
ATOM     11  C   UNL     1      49.862   5.184  17.810  0.00  0.00    +0.000 C 
BRANCH  11  12
ATOM     12  C   UNL     1      49.713   3.650  17.989  0.00  0.00    +0.000 C 
ATOM     13  C   UNL     1      48.428   3.243  18.688  0.00  0.00    +0.000 C 
ATOM     14  C   UNL     1      47.408   3.197  17.566  0.00  0.00    +0.000 C 
ATOM     15  C   UNL     1      48.220   2.885  16.316  0.00  0.00    +0.000 C 
ATOM     16  N   UNL     1      49.632   2.936  16.703  0.00  0.00    +0.000 NA
ATOM     17  H   UNL     1      50.175   3.461  16.012  0.00  0.00    +0.000 HD
ENDBRANCH  11  12
ENDBRANCH   9  11
ENDBRANCH   8   9
ENDBRANCH   5   8
ENDBRANCH   1   2
BRANCH   1  18
ATOM     18  C   UNL     1      45.273   6.666  11.873  0.00  0.00    +0.000 C 
BRANCH  18  19
ATOM     19  C   UNL     1      44.749   5.227  11.695  0.00  0.00    +0.000 A 
ATOM     20  C   UNL     1      44.126   4.485  12.691  0.00  0.00    +0.000 A 
ATOM     21  S   UNL     1      43.614   2.938  12.191  0.00  0.00    +0.000 S 
ATOM     22  C   UNL     1      44.243   3.176  10.632  0.00  0.00    +0.000 A 
ATOM     23  N   UNL     1      44.126   2.209   9.683  0.00  0.00    +0.000 NA
ATOM     24  C   UNL     1      44.654   2.519   8.546  0.00  0.00    +0.000 A 
ATOM     25  N   UNL     1      45.297   3.700   8.278  0.00  0.00    +0.000 N 
ATOM     26  C   UNL     1      45.492   4.682   9.223  0.00  0.00    +0.000 A 
ATOM     27  O   UNL     1      46.178   5.666   8.977  0.00  0.00    +0.000 OA
ATOM     28  C   UNL     1      44.857   4.411  10.501  0.00  0.00    +0.000 A 
ATOM     29  H   UNL     1      45.728   3.861   7.380  0.00  0.00    +0.000 HD
ENDBRANCH  18  19
BRANCH  18  30
ATOM     30  C   UNL     1      44.440   7.701  11.059  0.00  0.00    +0.000 C 
BRANCH  30  31
ATOM     31  N   UNL     1      42.990   7.503  11.076  0.00  0.00    +0.000 NA
ATOM     32  H   UNL     1      42.792   6.571  11.445  0.00  0.00    +0.000 HD
ATOM     33  H   UNL     1      42.643   7.487  10.116  0.00  0.00    +0.000 HD
ENDBRANCH  30  31
ENDBRANCH  18  30
ENDBRANCH   1  18
TORSDOF 9
ENDMDL
MODEL 6
REMARK VINA RESULT:    -6.982      2.324      3.283
REMARK INTER + INTRA:         -10.849
REMARK INTER:                  -9.717
REMARK INTRA:                  -1.132
REMARK UNBOUND:                -0.398
REMARK  Name = 
REMARK  9 active torsions:
REMARK  status: ('A' for Active; 'I' for Inactive)
REMARK    1  A    between atoms: N_1  and  C_2
REMARK    2  A    between atoms: C_2  and  C_3
REMARK    3  A    between atoms: C_3  and  C_4
REMARK    4  A    between atoms: C_3  and  C_19
REMARK    5  A    between atoms: C_4  and  C_5
REMARK    6  A    between atoms: C_8  and  C_9
REMARK    7  A    between atoms: C_9  and  N_10
REMARK    8  A    between atoms: N_10  and  C_11
REMARK    9  A    between atoms: C_11  and  C_12
REMARK                            x       y       z     vdW  Elec       q    Type
REMARK                         _______ _______ _______ _____ _____    ______ ____
ROOT
ATOM      1  C   UNL     1      48.684   7.222  14.262  0.00  0.00    +0.000 C 
ENDROOT
BRANCH   1   2
ATOM      2  C   UNL     1      47.453   6.421  13.892  0.00  0.00    +0.000 A 
ATOM      3  C   UNL     1      47.237   5.093  14.254  0.00  0.00    +0.000 A 
ATOM      4  C   UNL     1      46.136   4.386  13.769  0.00  0.00    +0.000 A 
ATOM      5  C   UNL     1      45.190   4.997  12.931  0.00  0.00    +0.000 A 
ATOM      6  C   UNL     1      45.364   6.346  12.607  0.00  0.00    +0.000 A 
ATOM      7  C   UNL     1      46.480   7.044  13.084  0.00  0.00    +0.000 A 
BRANCH   5   8
ATOM      8  C   UNL     1      44.033   4.189  12.389  0.00  0.00    +0.000 C 
BRANCH   8   9
ATOM      9  N   UNL     1      44.528   3.007  11.688  0.00  0.00    +0.000 NA
ATOM     10  H   UNL     1      43.734   2.415  11.446  0.00  0.00    +0.000 HD
BRANCH   9  11
ATOM     11  C   UNL     1      45.283   3.341  10.476  0.00  0.00    +0.000 C 
BRANCH  11  12
ATOM     12  C   UNL     1      44.628   2.649   9.251  0.00  0.00    +0.000 C 
ATOM     13  C   UNL     1      44.779   3.433   7.960  0.00  0.00    +0.000 C 
ATOM     14  C   UNL     1      46.144   3.019   7.445  0.00  0.00    +0.000 C 
ATOM     15  C   UNL     1      46.364   1.622   8.009  0.00  0.00    +0.000 C 
ATOM     16  N   UNL     1      45.256   1.356   8.930  0.00  0.00    +0.000 NA
ATOM     17  H   UNL     1      45.604   0.945   9.801  0.00  0.00    +0.000 HD
ENDBRANCH  11  12
ENDBRANCH   9  11
ENDBRANCH   8   9
ENDBRANCH   5   8
ENDBRANCH   1   2
BRANCH   1  18
ATOM     18  C   UNL     1      49.660   6.813  15.406  0.00  0.00    +0.000 C 
BRANCH  18  19
ATOM     19  C   UNL     1      49.090   6.960  16.831  0.00  0.00    +0.000 A 
ATOM     20  C   UNL     1      48.501   8.116  17.330  0.00  0.00    +0.000 A 
ATOM     21  S   UNL     1      47.923   7.970  18.927  0.00  0.00    +0.000 S 
ATOM     22  C   UNL     1      48.475   6.368  19.037  0.00  0.00    +0.000 A 
ATOM     23  N   UNL     1      48.283   5.646  20.172  0.00  0.00    +0.000 NA
ATOM     24  C   UNL     1      48.757   4.446  20.122  0.00  0.00    +0.000 A 
ATOM     25  N   UNL     1      49.416   3.910  19.045  0.00  0.00    +0.000 N 
ATOM     26  C   UNL     1      49.686   4.622  17.897  0.00  0.00    +0.000 A 
ATOM     27  O   UNL     1      50.384   4.147  17.010  0.00  0.00    +0.000 OA
ATOM     28  C   UNL     1      49.113   5.957  17.878  0.00  0.00    +0.000 A 
ATOM     29  H   UNL     1      49.802   2.979  19.087  0.00  0.00    +0.000 HD
ENDBRANCH  18  19
BRANCH  18  30
ATOM     30  C   UNL     1      51.073   7.455  15.268  0.00  0.00    +0.000 C 
BRANCH  30  31
ATOM     31  N   UNL     1      52.108   6.904  16.143  0.00  0.00    +0.000 NA
ATOM     32  H   UNL     1      51.713   6.774  17.075  0.00  0.00    +0.000 HD
ATOM     33  H   UNL     1      52.848   7.597  16.262  0.00  0.00    +0.000 HD
ENDBRANCH  30  31
ENDBRANCH  18  30
ENDBRANCH   1  18
TORSDOF 9
ENDMDL
MODEL 7
REMARK VINA RESULT:    -6.793      2.897      4.126
REMARK INTER + INTRA:         -10.566
REMARK INTER:                  -9.301
REMARK INTRA:                  -1.266
REMARK UNBOUND:                -0.398
REMARK  Name = 
REMARK  9 active torsions:
REMARK  status: ('A' for Active; 'I' for Inactive)
REMARK    1  A    between atoms: N_1  and  C_2
REMARK    2  A    between atoms: C_2  and  C_3
REMARK    3  A    between atoms: C_3  and  C_4
REMARK    4  A    between atoms: C_3  and  C_19
REMARK    5  A    between atoms: C_4  and  C_5
REMARK    6  A    between atoms: C_8  and  C_9
REMARK    7  A    between atoms: C_9  and  N_10
REMARK    8  A    between atoms: N_10  and  C_11
REMARK    9  A    between atoms: C_11  and  C_12
REMARK                            x       y       z     vdW  Elec       q    Type
REMARK                         _______ _______ _______ _____ _____    ______ ____
ROOT
ATOM      1  C   UNL     1      49.315   7.570  13.461  0.00  0.00    +0.000 C 
ENDROOT
BRANCH   1   2
ATOM      2  C   UNL     1      47.882   7.095  13.335  0.00  0.00    +0.000 A 
ATOM      3  C   UNL     1      47.459   5.789  13.572  0.00  0.00    +0.000 A 
ATOM      4  C   UNL     1      46.144   5.402  13.311  0.00  0.00    +0.000 A 
ATOM      5  C   UNL     1      45.194   6.321  12.837  0.00  0.00    +0.000 A 
ATOM      6  C   UNL     1      45.592   7.648  12.651  0.00  0.00    +0.000 A 
ATOM      7  C   UNL     1      46.917   8.025  12.898  0.00  0.00    +0.000 A 
BRANCH   5   8
ATOM      8  C   UNL     1      43.790   5.856  12.525  0.00  0.00    +0.000 C 
BRANCH   8   9
ATOM      9  N   UNL     1      43.500   6.045  11.106  0.00  0.00    +0.000 NA
ATOM     10  H   UNL     1      44.196   6.679  10.714  0.00  0.00    +0.000 HD
BRANCH   9  11
ATOM     11  C   UNL     1      43.501   4.786  10.355  0.00  0.00    +0.000 C 
BRANCH  11  12
ATOM     12  C   UNL     1      44.958   4.408   9.978  0.00  0.00    +0.000 C 
ATOM     13  C   UNL     1      45.258   2.928  10.126  0.00  0.00    +0.000 C 
ATOM     14  C   UNL     1      44.781   2.332   8.815  0.00  0.00    +0.000 C 
ATOM     15  C   UNL     1      44.904   3.465   7.805  0.00  0.00    +0.000 C 
ATOM     16  N   UNL     1      45.261   4.669   8.560  0.00  0.00    +0.000 NA
ATOM     17  H   UNL     1      44.694   5.465   8.254  0.00  0.00    +0.000 HD
ENDBRANCH  11  12
ENDBRANCH   9  11
ENDBRANCH   8   9
ENDBRANCH   5   8
ENDBRANCH   1   2
BRANCH   1  18
ATOM     18  C   UNL     1      50.130   7.487  14.787  0.00  0.00    +0.000 C 
BRANCH  18  19
ATOM     19  C   UNL     1      49.392   8.002  16.039  0.00  0.00    +0.000 A 
ATOM     20  C   UNL     1      49.260   9.343  16.381  0.00  0.00    +0.000 A 
ATOM     21  S   UNL     1      48.353   9.615  17.798  0.00  0.00    +0.000 S 
ATOM     22  C   UNL     1      48.136   7.949  18.042  0.00  0.00    +0.000 A 
ATOM     23  N   UNL     1      47.421   7.492  19.104  0.00  0.00    +0.000 NA
ATOM     24  C   UNL     1      47.339   6.205  19.172  0.00  0.00    +0.000 A 
ATOM     25  N   UNL     1      47.917   5.337  18.282  0.00  0.00    +0.000 N 
ATOM     26  C   UNL     1      48.699   5.751  17.226  0.00  0.00    +0.000 A 
ATOM     27  O   UNL     1      49.298   4.941  16.529  0.00  0.00    +0.000 OA
ATOM     28  C   UNL     1      48.766   7.194  17.067  0.00  0.00    +0.000 A 
ATOM     29  H   UNL     1      47.853   4.339  18.418  0.00  0.00    +0.000 HD
ENDBRANCH  18  19
BRANCH  18  30
ATOM     30  C   UNL     1      51.566   8.080  14.665  0.00  0.00    +0.000 C 
BRANCH  30  31
ATOM     31  N   UNL     1      52.153   8.047  13.325  0.00  0.00    +0.000 NA
ATOM     32  H   UNL     1      52.023   7.113  12.934  0.00  0.00    +0.000 HD
ATOM     33  H   UNL     1      53.164   8.164  13.401  0.00  0.00    +0.000 HD
ENDBRANCH  30  31
ENDBRANCH  18  30
ENDBRANCH   1  18
TORSDOF 9
ENDMDL
MODEL 8
REMARK VINA RESULT:    -6.584      3.173      4.415
REMARK INTER + INTRA:         -10.253
REMARK INTER:                  -8.804
REMARK INTRA:                  -1.449
REMARK UNBOUND:                -0.398
REMARK  Name = 
REMARK  9 active torsions:
REMARK  status: ('A' for Active; 'I' for Inactive)
REMARK    1  A    between atoms: N_1  and  C_2
REMARK    2  A    between atoms: C_2  and  C_3
REMARK    3  A    between atoms: C_3  and  C_4
REMARK    4  A    between atoms: C_3  and  C_19
REMARK    5  A    between atoms: C_4  and  C_5
REMARK    6  A    between atoms: C_8  and  C_9
REMARK    7  A    between atoms: C_9  and  N_10
REMARK    8  A    between atoms: N_10  and  C_11
REMARK    9  A    between atoms: C_11  and  C_12
REMARK                            x       y       z     vdW  Elec       q    Type
REMARK                         _______ _______ _______ _____ _____    ______ ____
ROOT
ATOM      1  C   UNL     1      50.441   8.038  14.551  0.00  0.00    +0.000 C 
ENDROOT
BRANCH   1   2
ATOM      2  C   UNL     1      49.068   7.920  13.922  0.00  0.00    +0.000 A 
ATOM      3  C   UNL     1      48.018   8.808  14.146  0.00  0.00    +0.000 A 
ATOM      4  C   UNL     1      46.745   8.560  13.629  0.00  0.00    +0.000 A 
ATOM      5  C   UNL     1      46.487   7.430  12.838  0.00  0.00    +0.000 A 
ATOM      6  C   UNL     1      47.547   6.561  12.558  0.00  0.00    +0.000 A 
ATOM      7  C   UNL     1      48.817   6.807  13.094  0.00  0.00    +0.000 A 
BRANCH   5   8
ATOM      8  C   UNL     1      45.087   7.171  12.331  0.00  0.00    +0.000 C 
BRANCH   8   9
ATOM      9  N   UNL     1      44.355   6.334  13.278  0.00  0.00    +0.000 NA
ATOM     10  H   UNL     1      43.967   6.931  14.008  0.00  0.00    +0.000 HD
BRANCH   9  11
ATOM     11  C   UNL     1      43.278   5.568  12.643  0.00  0.00    +0.000 C 
BRANCH  11  12
ATOM     12  C   UNL     1      43.465   4.059  12.950  0.00  0.00    +0.000 C 
ATOM     13  C   UNL     1      43.225   3.161  11.750  0.00  0.00    +0.000 C 
ATOM     14  C   UNL     1      44.558   3.163  11.027  0.00  0.00    +0.000 C 
ATOM     15  C   UNL     1      45.590   3.425  12.116  0.00  0.00    +0.000 C 
ATOM     16  N   UNL     1      44.847   3.728  13.342  0.00  0.00    +0.000 NA
ATOM     17  H   UNL     1      45.249   4.544  13.812  0.00  0.00    +0.000 HD
ENDBRANCH  11  12
ENDBRANCH   9  11
ENDBRANCH   8   9
ENDBRANCH   5   8
ENDBRANCH   1   2
BRANCH   1  18
ATOM     18  C   UNL     1      50.929   7.125  15.716  0.00  0.00    +0.000 C 
BRANCH  18  19
ATOM     19  C   UNL     1      50.172   7.308  17.047  0.00  0.00    +0.000 A 
ATOM     20  C   UNL     1      50.528   8.213  18.040  0.00  0.00    +0.000 A 
ATOM     21  S   UNL     1      49.479   8.223  19.383  0.00  0.00    +0.000 S 
ATOM     22  C   UNL     1      48.528   6.984  18.716  0.00  0.00    +0.000 A 
ATOM     23  N   UNL     1      47.435   6.518  19.377  0.00  0.00    +0.000 NA
ATOM     24  C   UNL     1      46.808   5.573  18.759  0.00  0.00    +0.000 A 
ATOM     25  N   UNL     1      47.183   5.045  17.551  0.00  0.00    +0.000 N 
ATOM     26  C   UNL     1      48.314   5.442  16.874  0.00  0.00    +0.000 A 
ATOM     27  O   UNL     1      48.681   4.860  15.861  0.00  0.00    +0.000 OA
ATOM     28  C   UNL     1      49.018   6.552  17.495  0.00  0.00    +0.000 A 
ATOM     29  H   UNL     1      46.674   4.275  17.143  0.00  0.00    +0.000 HD
ENDBRANCH  18  19
BRANCH  18  30
ATOM     30  C   UNL     1      52.475   7.151  15.910  0.00  0.00    +0.000 C 
BRANCH  30  31
ATOM     31  N   UNL     1      53.266   7.267  14.685  0.00  0.00    +0.000 NA
ATOM     32  H   UNL     1      52.636   7.471  13.907  0.00  0.00    +0.000 HD
ATOM     33  H   UNL     1      53.675   6.358  14.464  0.00  0.00    +0.000 HD
ENDBRANCH  30  31
ENDBRANCH  18  30
ENDBRANCH   1  18
TORSDOF 9
ENDMDL
MODEL 9
REMARK VINA RESULT:    -6.231      3.082      9.216
REMARK INTER + INTRA:          -9.724
REMARK INTER:                  -9.081
REMARK INTRA:                  -0.643
REMARK UNBOUND:                -0.398
REMARK  Name = 
REMARK  9 active torsions:
REMARK  status: ('A' for Active; 'I' for Inactive)
REMARK    1  A    between atoms: N_1  and  C_2
REMARK    2  A    between atoms: C_2  and  C_3
REMARK    3  A    between atoms: C_3  and  C_4
REMARK    4  A    between atoms: C_3  and  C_19
REMARK    5  A    between atoms: C_4  and  C_5
REMARK    6  A    between atoms: C_8  and  C_9
REMARK    7  A    between atoms: C_9  and  N_10
REMARK    8  A    between atoms: N_10  and  C_11
REMARK    9  A    between atoms: C_11  and  C_12
REMARK                            x       y       z     vdW  Elec       q    Type
REMARK                         _______ _______ _______ _____ _____    ______ ____
ROOT
ATOM      1  C   UNL     1      46.732   6.421  12.608  0.00  0.00    +0.000 C 
ENDROOT
BRANCH   1   2
ATOM      2  C   UNL     1      47.329   6.039  13.947  0.00  0.00    +0.000 A 
ATOM      3  C   UNL     1      48.294   6.784  14.622  0.00  0.00    +0.000 A 
ATOM      4  C   UNL     1      48.886   6.301  15.790  0.00  0.00    +0.000 A 
ATOM      5  C   UNL     1      48.506   5.068  16.344  0.00  0.00    +0.000 A 
ATOM      6  C   UNL     1      47.498   4.338  15.707  0.00  0.00    +0.000 A 
ATOM      7  C   UNL     1      46.920   4.821  14.526  0.00  0.00    +0.000 A 
BRANCH   5   8
ATOM      8  C   UNL     1      49.199   4.556  17.586  0.00  0.00    +0.000 C 
BRANCH   8   9
ATOM      9  N   UNL     1      50.065   3.428  17.251  0.00  0.00    +0.000 NA
ATOM     10  H   UNL     1      50.138   3.365  16.235  0.00  0.00    +0.000 HD
BRANCH   9  11
ATOM     11  C   UNL     1      51.404   3.549  17.835  0.00  0.00    +0.000 C 
BRANCH  11  12
ATOM     12  C   UNL     1      51.747   5.049  18.040  0.00  0.00    +0.000 C 
ATOM     13  C   UNL     1      52.487   5.331  19.335  0.00  0.00    +0.000 C 
ATOM     14  C   UNL     1      53.938   5.062  18.986  0.00  0.00    +0.000 C 
ATOM     15  C   UNL     1      54.034   5.333  17.490  0.00  0.00    +0.000 C 
ATOM     16  N   UNL     1      52.668   5.564  17.012  0.00  0.00    +0.000 NA
ATOM     17  H   UNL     1      52.500   5.046  16.145  0.00  0.00    +0.000 HD
ENDBRANCH  11  12
ENDBRANCH   9  11
ENDBRANCH   8   9
ENDBRANCH   5   8
ENDBRANCH   1   2
BRANCH   1  18
ATOM     18  C   UNL     1      45.201   6.395  12.316  0.00  0.00    +0.000 C 
BRANCH  18  19
ATOM     19  C   UNL     1      44.654   5.037  11.830  0.00  0.00    +0.000 A 
ATOM     20  C   UNL     1      43.925   4.153  12.617  0.00  0.00    +0.000 A 
ATOM     21  S   UNL     1      43.415   2.748  11.797  0.00  0.00    +0.000 S 
ATOM     22  C   UNL     1      44.186   3.240  10.366  0.00  0.00    +0.000 A 
ATOM     23  N   UNL     1      44.126   2.470   9.248  0.00  0.00    +0.000 NA
ATOM     24  C   UNL     1      44.759   2.959   8.235  0.00  0.00    +0.000 A 
ATOM     25  N   UNL     1      45.457   4.139   8.244  0.00  0.00    +0.000 N 
ATOM     26  C   UNL     1      45.596   4.922   9.369  0.00  0.00    +0.000 A 
ATOM     27  O   UNL     1      46.329   5.903   9.368  0.00  0.00    +0.000 OA
ATOM     28  C   UNL     1      44.844   4.449  10.519  0.00  0.00    +0.000 A 
ATOM     29  H   UNL     1      45.969   4.443   7.430  0.00  0.00    +0.000 HD
ENDBRANCH  18  19
BRANCH  18  30
ATOM     30  C   UNL     1      44.727   7.576  11.417  0.00  0.00    +0.000 C 
BRANCH  30  31
ATOM     31  N   UNL     1      43.288   7.640  11.162  0.00  0.00    +0.000 NA
ATOM     32  H   UNL     1      42.972   8.600  11.310  0.00  0.00    +0.000 HD
ATOM     33  H   UNL     1      42.798   7.088  11.867  0.00  0.00    +0.000 HD
ENDBRANCH  30  31
ENDBRANCH  18  30
ENDBRANCH   1  18
TORSDOF 9
ENDMDL
