MODEL 1
REMARK VINA RESULT:    -7.724      0.000      0.000
REMARK INTER + INTRA:         -12.362
REMARK INTER:                 -11.337
REMARK INTRA:                  -1.026
REMARK UNBOUND:                -1.026
REMARK  Name = 
REMARK  9 active torsions:
REMARK  status: ('A' for Active; 'I' for Inactive)
REMARK    1  A    between atoms: C_1  and  O_2
REMARK    2  A    between atoms: O_2  and  C_3
REMARK    3  A    between atoms: C_10  and  C_11
REMARK    4  A    between atoms: N_13  and  C_14
REMARK    5  A    between atoms: C_14  and  C_15
REMARK    6  A    between atoms: C_18  and  O_19
REMARK    7  A    between atoms: O_19  and  C_20
REMARK    8  A    between atoms: C_20  and  C_21
REMARK    9  A    between atoms: C_21  and  N_22
REMARK                            x       y       z     vdW  Elec       q    Type
REMARK                         _______ _______ _______ _____ _____    ______ ____
ROOT
ATOM      1  C   UNL     1      47.915   7.362  13.520  0.00  0.00    +0.000 C 
ENDROOT
BRANCH   1   2
ATOM      2  C   UNL     1      47.065   6.246  12.971  0.00  0.00    +0.000 A 
ATOM      3  C   UNL     1      46.909   5.051  13.683  0.00  0.00    +0.000 A 
ATOM      4  C   UNL     1      46.048   4.048  13.221  0.00  0.00    +0.000 A 
ATOM      5  C   UNL     1      45.330   4.224  12.037  0.00  0.00    +0.000 A 
ATOM      6  C   UNL     1      45.543   5.378  11.282  0.00  0.00    +0.000 A 
ATOM      7  C   UNL     1      46.404   6.382  11.743  0.00  0.00    +0.000 A 
BRANCH   5   8
ATOM      8  O   UNL     1      44.434   3.317  11.524  0.00  0.00    +0.000 OA
BRANCH   8   9
ATOM      9  C   UNL     1      44.141   3.492  10.127  0.00  0.00    +0.000 C 
BRANCH   9  10
ATOM     10  C   UNL     1      44.551   2.232   9.339  0.00  0.00    +0.000 C 
BRANCH  10  11
ATOM     11  N   UNL     1      45.757   2.413   8.500  0.00  0.00    +0.000 NA
ATOM     12  C   UNL     1      46.273   1.146   7.956  0.00  0.00    +0.000 C 
ATOM     13  C   UNL     1      47.578   1.372   7.187  0.00  0.00    +0.000 C 
ATOM     14  C   UNL     1      47.407   2.400   6.076  0.00  0.00    +0.000 C 
ATOM     15  C   UNL     1      46.763   3.670   6.620  0.00  0.00    +0.000 C 
ATOM     16  C   UNL     1      45.485   3.360   7.404  0.00  0.00    +0.000 C 
ENDBRANCH  10  11
ENDBRANCH   9  10
ENDBRANCH   8   9
ENDBRANCH   5   8
ENDBRANCH   1   2
BRANCH   1  19
ATOM     17  C   UNL     1      49.034   7.025  15.670  0.00  0.00    +0.000 C 
ATOM     18  O   UNL     1      50.063   6.659  15.099  0.00  0.00    +0.000 OA
ATOM     19  N   UNL     1      47.922   7.390  14.961  0.00  0.00    +0.000 N 
ATOM     20  H   UNL     1      47.062   7.632  15.438  0.00  0.00    +0.000 HD
BRANCH  17  28
ATOM     21  C   UNL     1      48.965   4.643  18.169  0.00  0.00    +0.000 A 
ATOM     22  N   UNL     1      48.858   3.951  19.323  0.00  0.00    +0.000 NA
ATOM     23  C   UNL     1      48.737   4.633  20.463  0.00  0.00    +0.000 A 
ATOM     24  N   UNL     1      48.706   5.953  20.602  0.00  0.00    +0.000 NA
ATOM     25  C   UNL     1      48.798   6.607  19.433  0.00  0.00    +0.000 A 
ATOM     26  S   UNL     1      48.778   8.305  19.428  0.00  0.00    +0.000 S 
ATOM     27  C   UNL     1      48.903   8.350  17.736  0.00  0.00    +0.000 A 
ATOM     28  C   UNL     1      48.962   7.093  17.139  0.00  0.00    +0.000 A 
ATOM     29  C   UNL     1      48.918   6.048  18.161  0.00  0.00    +0.000 A 
BRANCH  21  31
ATOM     30  C   UNL     1      48.098   3.014  16.717  0.00  0.00    +0.000 C 
ATOM     31  O   UNL     1      49.155   3.932  17.002  0.00  0.00    +0.000 OA
ENDBRANCH  21  31
ENDBRANCH  17  28
ENDBRANCH   1  19
TORSDOF 8
ENDMDL
MODEL 2
REMARK VINA RESULT:    -7.467      1.700      2.687
REMARK INTER + INTRA:         -11.984
REMARK INTER:                 -10.796
REMARK INTRA:                  -1.188
REMARK UNBOUND:                -1.026
REMARK  Name = 
REMARK  9 active torsions:
REMARK  status: ('A' for Active; 'I' for Inactive)
REMARK    1  A    between atoms: C_1  and  O_2
REMARK    2  A    between atoms: O_2  and  C_3
REMARK    3  A    between atoms: C_10  and  C_11
REMARK    4  A    between atoms: N_13  and  C_14
REMARK    5  A    between atoms: C_14  and  C_15
REMARK    6  A    between atoms: C_18  and  O_19
REMARK    7  A    between atoms: O_19  and  C_20
REMARK    8  A    between atoms: C_20  and  C_21
REMARK    9  A    between atoms: C_21  and  N_22
REMARK                            x       y       z     vdW  Elec       q    Type
REMARK                         _______ _______ _______ _____ _____    ______ ____
ROOT
ATOM      1  C   UNL     1      48.413   6.467  14.107  0.00  0.00    +0.000 C 
ENDROOT
BRANCH   1   2
ATOM      2  C   UNL     1      47.267   5.887  13.320  0.00  0.00    +0.000 A 
ATOM      3  C   UNL     1      46.745   4.629  13.643  0.00  0.00    +0.000 A 
ATOM      4  C   UNL     1      45.622   4.126  12.974  0.00  0.00    +0.000 A 
ATOM      5  C   UNL     1      45.004   4.873  11.971  0.00  0.00    +0.000 A 
ATOM      6  C   UNL     1      45.567   6.093  11.591  0.00  0.00    +0.000 A 
ATOM      7  C   UNL     1      46.691   6.597  12.258  0.00  0.00    +0.000 A 
BRANCH   5   8
ATOM      8  O   UNL     1      43.877   4.484  11.287  0.00  0.00    +0.000 OA
BRANCH   8   9
ATOM      9  C   UNL     1      44.090   4.214   9.890  0.00  0.00    +0.000 C 
BRANCH   9  10
ATOM     10  C   UNL     1      44.574   2.762   9.701  0.00  0.00    +0.000 C 
BRANCH  10  11
ATOM     11  N   UNL     1      45.698   2.623   8.747  0.00  0.00    +0.000 NA
ATOM     12  C   UNL     1      45.877   1.242   8.269  0.00  0.00    +0.000 C 
ATOM     13  C   UNL     1      47.114   1.129   7.373  0.00  0.00    +0.000 C 
ATOM     14  C   UNL     1      47.050   2.097   6.199  0.00  0.00    +0.000 C 
ATOM     15  C   UNL     1      46.748   3.509   6.688  0.00  0.00    +0.000 C 
ATOM     16  C   UNL     1      45.521   3.535   7.603  0.00  0.00    +0.000 C 
ENDBRANCH  10  11
ENDBRANCH   9  10
ENDBRANCH   8   9
ENDBRANCH   5   8
ENDBRANCH   1   2
BRANCH   1  19
ATOM     17  C   UNL     1      48.863   6.260  16.503  0.00  0.00    +0.000 C 
ATOM     18  O   UNL     1      49.898   5.632  16.274  0.00  0.00    +0.000 OA
ATOM     19  N   UNL     1      48.068   6.710  15.485  0.00  0.00    +0.000 N 
ATOM     20  H   UNL     1      47.188   7.172  15.682  0.00  0.00    +0.000 HD
BRANCH  17  28
ATOM     21  C   UNL     1      47.789   9.128  18.100  0.00  0.00    +0.000 A 
ATOM     22  N   UNL     1      47.414  10.081  18.979  0.00  0.00    +0.000 NA
ATOM     23  C   UNL     1      47.229   9.732  20.253  0.00  0.00    +0.000 A 
ATOM     24  N   UNL     1      47.375   8.520  20.777  0.00  0.00    +0.000 NA
ATOM     25  C   UNL     1      47.765   7.602  19.877  0.00  0.00    +0.000 A 
ATOM     26  S   UNL     1      47.997   5.996  20.377  0.00  0.00    +0.000 S 
ATOM     27  C   UNL     1      48.455   5.524  18.812  0.00  0.00    +0.000 A 
ATOM     28  C   UNL     1      48.444   6.560  17.882  0.00  0.00    +0.000 A 
ATOM     29  C   UNL     1      48.011   7.804  18.519  0.00  0.00    +0.000 A 
BRANCH  21  31
ATOM     30  C   UNL     1      49.190  10.043  16.454  0.00  0.00    +0.000 C 
ATOM     31  O   UNL     1      47.916   9.483  16.772  0.00  0.00    +0.000 OA
ENDBRANCH  21  31
ENDBRANCH  17  28
ENDBRANCH   1  19
TORSDOF 8
ENDMDL
MODEL 3
REMARK VINA RESULT:    -7.094      2.071      2.386
REMARK INTER + INTRA:         -11.438
REMARK INTER:                 -10.175
REMARK INTRA:                  -1.263
REMARK UNBOUND:                -1.026
REMARK  Name = 
REMARK  9 active torsions:
REMARK  status: ('A' for Active; 'I' for Inactive)
REMARK    1  A    between atoms: C_1  and  O_2
REMARK    2  A    between atoms: O_2  and  C_3
REMARK    3  A    between atoms: C_10  and  C_11
REMARK    4  A    between atoms: N_13  and  C_14
REMARK    5  A    between atoms: C_14  and  C_15
REMARK    6  A    between atoms: C_18  and  O_19
REMARK    7  A    between atoms: O_19  and  C_20
REMARK    8  A    between atoms: C_20  and  C_21
REMARK    9  A    between atoms: C_21  and  N_22
REMARK                            x       y       z     vdW  Elec       q    Type
REMARK                         _______ _______ _______ _____ _____    ______ ____
ROOT
ATOM      1  C   UNL     1      48.421   7.615  12.769  0.00  0.00    +0.000 C 
ENDROOT
BRANCH   1   2
ATOM      2  C   UNL     1      47.197   6.737  12.776  0.00  0.00    +0.000 A 
ATOM      3  C   UNL     1      47.271   5.415  13.231  0.00  0.00    +0.000 A 
ATOM      4  C   UNL     1      46.119   4.624  13.326  0.00  0.00    +0.000 A 
ATOM      5  C   UNL     1      44.874   5.143  12.966  0.00  0.00    +0.000 A 
ATOM      6  C   UNL     1      44.806   6.434  12.438  0.00  0.00    +0.000 A 
ATOM      7  C   UNL     1      45.958   7.225  12.341  0.00  0.00    +0.000 A 
BRANCH   5   8
ATOM      8  O   UNL     1      43.685   4.461  13.062  0.00  0.00    +0.000 OA
BRANCH   8   9
ATOM      9  C   UNL     1      43.044   4.199  11.801  0.00  0.00    +0.000 C 
BRANCH   9  10
ATOM     10  C   UNL     1      43.558   2.869  11.214  0.00  0.00    +0.000 C 
BRANCH  10  11
ATOM     11  N   UNL     1      44.633   3.030  10.208  0.00  0.00    +0.000 NA
ATOM     12  C   UNL     1      44.666   1.937   9.224  0.00  0.00    +0.000 C 
ATOM     13  C   UNL     1      45.857   2.092   8.273  0.00  0.00    +0.000 C 
ATOM     14  C   UNL     1      45.845   3.443   7.570  0.00  0.00    +0.000 C 
ATOM     15  C   UNL     1      45.692   4.571   8.585  0.00  0.00    +0.000 C 
ATOM     16  C   UNL     1      44.503   4.327   9.519  0.00  0.00    +0.000 C 
ENDBRANCH  10  11
ENDBRANCH   9  10
ENDBRANCH   8   9
ENDBRANCH   5   8
ENDBRANCH   1   2
BRANCH   1  19
ATOM     17  C   UNL     1      49.542   7.541  14.942  0.00  0.00    +0.000 C 
ATOM     18  O   UNL     1      48.737   8.350  15.407  0.00  0.00    +0.000 OA
ATOM     19  N   UNL     1      49.457   7.124  13.642  0.00  0.00    +0.000 N 
ATOM     20  H   UNL     1      50.158   6.506  13.251  0.00  0.00    +0.000 HD
BRANCH  17  28
ATOM     21  C   UNL     1      49.759   4.830  17.070  0.00  0.00    +0.000 A 
ATOM     22  N   UNL     1      50.108   3.903  17.988  0.00  0.00    +0.000 NA
ATOM     23  C   UNL     1      51.343   3.942  18.491  0.00  0.00    +0.000 A 
ATOM     24  N   UNL     1      52.300   4.812  18.187  0.00  0.00    +0.000 NA
ATOM     25  C   UNL     1      51.911   5.728  17.285  0.00  0.00    +0.000 A 
ATOM     26  S   UNL     1      53.014   6.916  16.781  0.00  0.00    +0.000 S 
ATOM     27  C   UNL     1      51.860   7.622  15.756  0.00  0.00    +0.000 A 
ATOM     28  C   UNL     1      50.623   6.982  15.771  0.00  0.00    +0.000 A 
ATOM     29  C   UNL     1      50.662   5.832  16.675  0.00  0.00    +0.000 A 
BRANCH  21  31
ATOM     30  C   UNL     1      47.446   4.792  17.468  0.00  0.00    +0.000 C 
ATOM     31  O   UNL     1      48.502   4.744  16.507  0.00  0.00    +0.000 OA
ENDBRANCH  21  31
ENDBRANCH  17  28
ENDBRANCH   1  19
TORSDOF 8
ENDMDL
MODEL 4
REMARK VINA RESULT:    -7.085      1.254      1.848
REMARK INTER + INTRA:         -11.424
REMARK INTER:                 -10.337
REMARK INTRA:                  -1.087
REMARK UNBOUND:                -1.026
REMARK  Name = 
REMARK  9 active torsions:
REMARK  status: ('A' for Active; 'I' for Inactive)
REMARK    1  A    between atoms: C_1  and  O_2
REMARK    2  A    between atoms: O_2  and  C_3
REMARK    3  A    between atoms: C_10  and  C_11
REMARK    4  A    between atoms: N_13  and  C_14
REMARK    5  A    between atoms: C_14  and  C_15
REMARK    6  A    between atoms: C_18  and  O_19
REMARK    7  A    between atoms: O_19  and  C_20
REMARK    8  A    between atoms: C_20  and  C_21
REMARK    9  A    between atoms: C_21  and  N_22
REMARK                            x       y       z     vdW  Elec       q    Type
REMARK                         _______ _______ _______ _____ _____    ______ ____
ROOT
ATOM      1  C   UNL     1      48.525   6.834  13.825  0.00  0.00    +0.000 C 
ENDROOT
BRANCH   1   2
ATOM      2  C   UNL     1      47.342   6.291  13.066  0.00  0.00    +0.000 A 
ATOM      3  C   UNL     1      46.975   6.837  11.831  0.00  0.00    +0.000 A 
ATOM      4  C   UNL     1      45.934   6.277  11.080  0.00  0.00    +0.000 A 
ATOM      5  C   UNL     1      45.243   5.161  11.554  0.00  0.00    +0.000 A 
ATOM      6  C   UNL     1      45.552   4.661  12.821  0.00  0.00    +0.000 A 
ATOM      7  C   UNL     1      46.592   5.221  13.573  0.00  0.00    +0.000 A 
BRANCH   5   8
ATOM      8  O   UNL     1      44.236   4.517  10.875  0.00  0.00    +0.000 OA
BRANCH   8   9
ATOM      9  C   UNL     1      44.496   4.316   9.474  0.00  0.00    +0.000 C 
BRANCH   9  10
ATOM     10  C   UNL     1      44.462   2.811   9.142  0.00  0.00    +0.000 C 
BRANCH  10  11
ATOM     11  N   UNL     1      45.283   2.435   7.969  0.00  0.00    +0.000 NA
ATOM     12  C   UNL     1      45.985   3.581   7.369  0.00  0.00    +0.000 C 
ATOM     13  C   UNL     1      46.732   3.162   6.099  0.00  0.00    +0.000 C 
ATOM     14  C   UNL     1      47.704   2.021   6.367  0.00  0.00    +0.000 C 
ATOM     15  C   UNL     1      47.001   0.881   7.095  0.00  0.00    +0.000 C 
ATOM     16  C   UNL     1      46.250   1.383   8.331  0.00  0.00    +0.000 C 
ENDBRANCH  10  11
ENDBRANCH   9  10
ENDBRANCH   8   9
ENDBRANCH   5   8
ENDBRANCH   1   2
BRANCH   1  19
ATOM     17  C   UNL     1      48.776   8.179  15.853  0.00  0.00    +0.000 C 
ATOM     18  O   UNL     1      49.567   8.930  15.280  0.00  0.00    +0.000 OA
ATOM     19  N   UNL     1      48.214   7.114  15.204  0.00  0.00    +0.000 N 
ATOM     20  H   UNL     1      47.612   6.467  15.698  0.00  0.00    +0.000 HD
BRANCH  17  28
ATOM     21  C   UNL     1      48.331   6.088  18.565  0.00  0.00    +0.000 A 
ATOM     22  N   UNL     1      48.027   5.520  19.751  0.00  0.00    +0.000 NA
ATOM     23  C   UNL     1      47.631   6.310  20.750  0.00  0.00    +0.000 A 
ATOM     24  N   UNL     1      47.494   7.631  20.715  0.00  0.00    +0.000 NA
ATOM     25  C   UNL     1      47.787   8.158  19.515  0.00  0.00    +0.000 A 
ATOM     26  S   UNL     1      47.668   9.837  19.295  0.00  0.00    +0.000 S 
ATOM     27  C   UNL     1      48.139   9.707  17.670  0.00  0.00    +0.000 A 
ATOM     28  C   UNL     1      48.396   8.402  17.258  0.00  0.00    +0.000 A 
ATOM     29  C   UNL     1      48.203   7.474  18.373  0.00  0.00    +0.000 A 
BRANCH  21  31
ATOM     30  C   UNL     1      50.223   5.124  17.563  0.00  0.00    +0.000 C 
ATOM     31  O   UNL     1      48.802   5.271  17.557  0.00  0.00    +0.000 OA
ENDBRANCH  21  31
ENDBRANCH  17  28
ENDBRANCH   1  19
TORSDOF 8
ENDMDL
MODEL 5
REMARK VINA RESULT:    -7.061      2.621      3.398
REMARK INTER + INTRA:         -11.388
REMARK INTER:                 -10.465
REMARK INTRA:                  -0.923
REMARK UNBOUND:                -1.026
REMARK  Name = 
REMARK  9 active torsions:
REMARK  status: ('A' for Active; 'I' for Inactive)
REMARK    1  A    between atoms: C_1  and  O_2
REMARK    2  A    between atoms: O_2  and  C_3
REMARK    3  A    between atoms: C_10  and  C_11
REMARK    4  A    between atoms: N_13  and  C_14
REMARK    5  A    between atoms: C_14  and  C_15
REMARK    6  A    between atoms: C_18  and  O_19
REMARK    7  A    between atoms: O_19  and  C_20
REMARK    8  A    between atoms: C_20  and  C_21
REMARK    9  A    between atoms: C_21  and  N_22
REMARK                            x       y       z     vdW  Elec       q    Type
REMARK                         _______ _______ _______ _____ _____    ______ ____
ROOT
ATOM      1  C   UNL     1      49.049   6.877  15.919  0.00  0.00    +0.000 C 
ENDROOT
BRANCH   1   2
ATOM      2  C   UNL     1      48.097   6.213  14.959  0.00  0.00    +0.000 A 
ATOM      3  C   UNL     1      47.484   4.998  15.287  0.00  0.00    +0.000 A 
ATOM      4  C   UNL     1      46.530   4.424  14.438  0.00  0.00    +0.000 A 
ATOM      5  C   UNL     1      46.174   5.056  13.246  0.00  0.00    +0.000 A 
ATOM      6  C   UNL     1      46.839   6.226  12.876  0.00  0.00    +0.000 A 
ATOM      7  C   UNL     1      47.794   6.801  13.723  0.00  0.00    +0.000 A 
BRANCH   5   8
ATOM      8  O   UNL     1      45.222   4.592  12.370  0.00  0.00    +0.000 OA
BRANCH   8   9
ATOM      9  C   UNL     1      45.120   5.344  11.147  0.00  0.00    +0.000 C 
BRANCH   9  10
ATOM     10  C   UNL     1      44.026   4.738  10.245  0.00  0.00    +0.000 C 
BRANCH  10  11
ATOM     11  N   UNL     1      44.547   3.847   9.184  0.00  0.00    +0.000 NA
ATOM     12  C   UNL     1      45.670   4.438   8.438  0.00  0.00    +0.000 C 
ATOM     13  C   UNL     1      46.102   3.526   7.285  0.00  0.00    +0.000 C 
ATOM     14  C   UNL     1      46.463   2.130   7.775  0.00  0.00    +0.000 C 
ATOM     15  C   UNL     1      45.346   1.566   8.646  0.00  0.00    +0.000 C 
ATOM     16  C   UNL     1      44.947   2.547   9.752  0.00  0.00    +0.000 C 
ENDBRANCH  10  11
ENDBRANCH   9  10
ENDBRANCH   8   9
ENDBRANCH   5   8
ENDBRANCH   1   2
BRANCH   1  19
ATOM     17  C   UNL     1      50.337   5.780  17.686  0.00  0.00    +0.000 C 
ATOM     18  O   UNL     1      49.664   6.342  18.552  0.00  0.00    +0.000 OA
ATOM     19  N   UNL     1      50.098   5.991  16.356  0.00  0.00    +0.000 N 
ATOM     20  H   UNL     1      50.694   5.573  15.651  0.00  0.00    +0.000 HD
BRANCH  17  28
ATOM     21  C   UNL     1      50.829   2.394  17.221  0.00  0.00    +0.000 A 
ATOM     22  N   UNL     1      51.251   1.112  17.242  0.00  0.00    +0.000 NA
ATOM     23  C   UNL     1      52.409   0.834  17.841  0.00  0.00    +0.000 A 
ATOM     24  N   UNL     1      53.224   1.696  18.439  0.00  0.00    +0.000 NA
ATOM     25  C   UNL     1      52.765   2.958  18.414  0.00  0.00    +0.000 A 
ATOM     26  S   UNL     1      53.685   4.191  19.131  0.00  0.00    +0.000 S 
ATOM     27  C   UNL     1      52.523   5.360  18.729  0.00  0.00    +0.000 A 
ATOM     28  C   UNL     1      51.420   4.850  18.048  0.00  0.00    +0.000 A 
ATOM     29  C   UNL     1      51.576   3.410  17.842  0.00  0.00    +0.000 A 
BRANCH  21  31
ATOM     30  C   UNL     1      48.498   2.623  17.369  0.00  0.00    +0.000 C 
ATOM     31  O   UNL     1      49.662   2.682  16.544  0.00  0.00    +0.000 OA
ENDBRANCH  21  31
ENDBRANCH  17  28
ENDBRANCH   1  19
TORSDOF 8
ENDMDL
MODEL 6
REMARK VINA RESULT:    -6.870      1.921      2.841
REMARK INTER + INTRA:         -11.108
REMARK INTER:                 -10.039
REMARK INTRA:                  -1.069
REMARK UNBOUND:                -1.026
REMARK  Name = 
REMARK  9 active torsions:
REMARK  status: ('A' for Active; 'I' for Inactive)
REMARK    1  A    between atoms: C_1  and  O_2
REMARK    2  A    between atoms: O_2  and  C_3
REMARK    3  A    between atoms: C_10  and  C_11
REMARK    4  A    between atoms: N_13  and  C_14
REMARK    5  A    between atoms: C_14  and  C_15
REMARK    6  A    between atoms: C_18  and  O_19
REMARK    7  A    between atoms: O_19  and  C_20
REMARK    8  A    between atoms: C_20  and  C_21
REMARK    9  A    between atoms: C_21  and  N_22
REMARK                            x       y       z     vdW  Elec       q    Type
REMARK                         _______ _______ _______ _____ _____    ______ ____
ROOT
ATOM      1  C   UNL     1      47.464   4.568  15.556  0.00  0.00    +0.000 C 
ENDROOT
BRANCH   1   2
ATOM      2  C   UNL     1      46.874   4.822  14.193  0.00  0.00    +0.000 A 
ATOM      3  C   UNL     1      46.014   3.889  13.603  0.00  0.00    +0.000 A 
ATOM      4  C   UNL     1      45.392   4.161  12.378  0.00  0.00    +0.000 A 
ATOM      5  C   UNL     1      45.621   5.372  11.723  0.00  0.00    +0.000 A 
ATOM      6  C   UNL     1      46.539   6.273  12.268  0.00  0.00    +0.000 A 
ATOM      7  C   UNL     1      47.162   6.001  13.492  0.00  0.00    +0.000 A 
BRANCH   5   8
ATOM      8  O   UNL     1      45.028   5.747  10.542  0.00  0.00    +0.000 OA
BRANCH   8   9
ATOM      9  C   UNL     1      45.643   5.196   9.364  0.00  0.00    +0.000 C 
BRANCH   9  10
ATOM     10  C   UNL     1      44.701   4.165   8.709  0.00  0.00    +0.000 C 
BRANCH  10  11
ATOM     11  N   UNL     1      45.397   3.155   7.880  0.00  0.00    +0.000 NA
ATOM     12  C   UNL     1      46.533   3.714   7.129  0.00  0.00    +0.000 C 
ATOM     13  C   UNL     1      47.152   2.659   6.207  0.00  0.00    +0.000 C 
ATOM     14  C   UNL     1      47.580   1.417   6.979  0.00  0.00    +0.000 C 
ATOM     15  C   UNL     1      46.435   0.908   7.848  0.00  0.00    +0.000 C 
ATOM     16  C   UNL     1      45.848   2.026   8.714  0.00  0.00    +0.000 C 
ENDBRANCH  10  11
ENDBRANCH   9  10
ENDBRANCH   8   9
ENDBRANCH   5   8
ENDBRANCH   1   2
BRANCH   1  19
ATOM     17  C   UNL     1      49.276   5.715  16.733  0.00  0.00    +0.000 C 
ATOM     18  O   UNL     1      49.922   4.668  16.800  0.00  0.00    +0.000 OA
ATOM     19  N   UNL     1      48.048   5.753  16.133  0.00  0.00    +0.000 N 
ATOM     20  H   UNL     1      47.498   6.603  16.135  0.00  0.00    +0.000 HD
BRANCH  17  28
ATOM     21  C   UNL     1      48.105   7.975  19.067  0.00  0.00    +0.000 A 
ATOM     22  N   UNL     1      47.875   9.035  19.869  0.00  0.00    +0.000 NA
ATOM     23  C   UNL     1      48.785  10.009  19.912  0.00  0.00    +0.000 A 
ATOM     24  N   UNL     1      49.928  10.062  19.236  0.00  0.00    +0.000 NA
ATOM     25  C   UNL     1      50.114   8.999  18.436  0.00  0.00    +0.000 A 
ATOM     26  S   UNL     1      51.528   8.903  17.501  0.00  0.00    +0.000 S 
ATOM     27  C   UNL     1      51.039   7.425  16.826  0.00  0.00    +0.000 A 
ATOM     28  C   UNL     1      49.806   6.972  17.287  0.00  0.00    +0.000 A 
ATOM     29  C   UNL     1      49.260   7.909  18.269  0.00  0.00    +0.000 A 
BRANCH  21  31
ATOM     30  C   UNL     1      47.402   6.006  20.135  0.00  0.00    +0.000 C 
ATOM     31  O   UNL     1      47.190   6.942  19.077  0.00  0.00    +0.000 OA
ENDBRANCH  21  31
ENDBRANCH  17  28
ENDBRANCH   1  19
TORSDOF 8
ENDMDL
MODEL 7
REMARK VINA RESULT:    -6.843      1.634      3.098
REMARK INTER + INTRA:         -11.069
REMARK INTER:                  -9.945
REMARK INTRA:                  -1.124
REMARK UNBOUND:                -1.026
REMARK  Name = 
REMARK  9 active torsions:
REMARK  status: ('A' for Active; 'I' for Inactive)
REMARK    1  A    between atoms: C_1  and  O_2
REMARK    2  A    between atoms: O_2  and  C_3
REMARK    3  A    between atoms: C_10  and  C_11
REMARK    4  A    between atoms: N_13  and  C_14
REMARK    5  A    between atoms: C_14  and  C_15
REMARK    6  A    between atoms: C_18  and  O_19
REMARK    7  A    between atoms: O_19  and  C_20
REMARK    8  A    between atoms: C_20  and  C_21
REMARK    9  A    between atoms: C_21  and  N_22
REMARK                            x       y       z     vdW  Elec       q    Type
REMARK                         _______ _______ _______ _____ _____    ______ ____
ROOT
ATOM      1  C   UNL     1      47.438   4.045  15.288  0.00  0.00    +0.000 C 
ENDROOT
BRANCH   1   2
ATOM      2  C   UNL     1      46.770   4.320  13.966  0.00  0.00    +0.000 A 
ATOM      3  C   UNL     1      46.126   3.294  13.265  0.00  0.00    +0.000 A 
ATOM      4  C   UNL     1      45.426   3.563  12.082  0.00  0.00    +0.000 A 
ATOM      5  C   UNL     1      45.362   4.864  11.580  0.00  0.00    +0.000 A 
ATOM      6  C   UNL     1      46.069   5.876  12.231  0.00  0.00    +0.000 A 
ATOM      7  C   UNL     1      46.770   5.608  13.414  0.00  0.00    +0.000 A 
BRANCH   5   8
ATOM      8  O   UNL     1      44.669   5.233  10.452  0.00  0.00    +0.000 OA
BRANCH   8   9
ATOM      9  C   UNL     1      45.333   4.922   9.215  0.00  0.00    +0.000 C 
BRANCH   9  10
ATOM     10  C   UNL     1      44.556   3.826   8.459  0.00  0.00    +0.000 C 
BRANCH  10  11
ATOM     11  N   UNL     1      45.415   2.917   7.667  0.00  0.00    +0.000 NA
ATOM     12  C   UNL     1      46.563   3.603   7.052  0.00  0.00    +0.000 C 
ATOM     13  C   UNL     1      47.357   2.647   6.157  0.00  0.00    +0.000 C 
ATOM     14  C   UNL     1      47.819   1.413   6.922  0.00  0.00    +0.000 C 
ATOM     15  C   UNL     1      46.648   0.770   7.655  0.00  0.00    +0.000 C 
ATOM     16  C   UNL     1      45.884   1.794   8.499  0.00  0.00    +0.000 C 
ENDBRANCH  10  11
ENDBRANCH   9  10
ENDBRANCH   8   9
ENDBRANCH   5   8
ENDBRANCH   1   2
BRANCH   1  19
ATOM     17  C   UNL     1      48.090   5.174  17.358  0.00  0.00    +0.000 C 
ATOM     18  O   UNL     1      48.431   4.101  17.859  0.00  0.00    +0.000 OA
ATOM     19  N   UNL     1      47.586   5.235  16.088  0.00  0.00    +0.000 N 
ATOM     20  H   UNL     1      47.252   6.111  15.706  0.00  0.00    +0.000 HD
BRANCH  17  28
ATOM     21  C   UNL     1      49.234   8.326  16.533  0.00  0.00    +0.000 A 
ATOM     22  N   UNL     1      49.673   9.602  16.515  0.00  0.00    +0.000 NA
ATOM     23  C   UNL     1      49.589  10.318  17.637  0.00  0.00    +0.000 A 
ATOM     24  N   UNL     1      49.110   9.911  18.808  0.00  0.00    +0.000 NA
ATOM     25  C   UNL     1      48.700   8.632  18.792  0.00  0.00    +0.000 A 
ATOM     26  S   UNL     1      48.056   7.950  20.207  0.00  0.00    +0.000 S 
ATOM     27  C   UNL     1      47.820   6.456  19.438  0.00  0.00    +0.000 A 
ATOM     28  C   UNL     1      48.219   6.437  18.104  0.00  0.00    +0.000 A 
ATOM     29  C   UNL     1      48.730   7.751  17.712  0.00  0.00    +0.000 A 
BRANCH  21  31
ATOM     30  C   UNL     1      49.862   8.331  14.270  0.00  0.00    +0.000 C 
ATOM     31  O   UNL     1      49.265   7.613  15.352  0.00  0.00    +0.000 OA
ENDBRANCH  21  31
ENDBRANCH  17  28
ENDBRANCH   1  19
TORSDOF 8
ENDMDL
MODEL 8
REMARK VINA RESULT:    -6.667      3.259      8.369
REMARK INTER + INTRA:         -10.810
REMARK INTER:                  -9.205
REMARK INTRA:                  -1.605
REMARK UNBOUND:                -1.026
REMARK  Name = 
REMARK  9 active torsions:
REMARK  status: ('A' for Active; 'I' for Inactive)
REMARK    1  A    between atoms: C_1  and  O_2
REMARK    2  A    between atoms: O_2  and  C_3
REMARK    3  A    between atoms: C_10  and  C_11
REMARK    4  A    between atoms: N_13  and  C_14
REMARK    5  A    between atoms: C_14  and  C_15
REMARK    6  A    between atoms: C_18  and  O_19
REMARK    7  A    between atoms: O_19  and  C_20
REMARK    8  A    between atoms: C_20  and  C_21
REMARK    9  A    between atoms: C_21  and  N_22
REMARK                            x       y       z     vdW  Elec       q    Type
REMARK                         _______ _______ _______ _____ _____    ______ ____
ROOT
ATOM      1  C   UNL     1      48.359   7.975  11.864  0.00  0.00    +0.000 C 
ENDROOT
BRANCH   1   2
ATOM      2  C   UNL     1      48.503   7.919  13.362  0.00  0.00    +0.000 A 
ATOM      3  C   UNL     1      49.257   6.908  13.970  0.00  0.00    +0.000 A 
ATOM      4  C   UNL     1      49.469   6.906  15.354  0.00  0.00    +0.000 A 
ATOM      5  C   UNL     1      48.930   7.914  16.153  0.00  0.00    +0.000 A 
ATOM      6  C   UNL     1      48.112   8.880  15.564  0.00  0.00    +0.000 A 
ATOM      7  C   UNL     1      47.898   8.883  14.179  0.00  0.00    +0.000 A 
BRANCH   5   8
ATOM      8  O   UNL     1      49.115   8.020  17.511  0.00  0.00    +0.000 OA
BRANCH   8   9
ATOM      9  C   UNL     1      49.901   6.964  18.090  0.00  0.00    +0.000 C 
BRANCH   9  10
ATOM     10  C   UNL     1      49.037   6.134  19.061  0.00  0.00    +0.000 C 
BRANCH  10  11
ATOM     11  N   UNL     1      48.738   4.766  18.582  0.00  0.00    +0.000 NA
ATOM     12  C   UNL     1      47.551   4.709  17.713  0.00  0.00    +0.000 C 
ATOM     13  C   UNL     1      47.220   3.264  17.331  0.00  0.00    +0.000 C 
ATOM     14  C   UNL     1      48.403   2.571  16.666  0.00  0.00    +0.000 C 
ATOM     15  C   UNL     1      49.660   2.732  17.513  0.00  0.00    +0.000 C 
ATOM     16  C   UNL     1      49.904   4.198  17.881  0.00  0.00    +0.000 C 
ENDBRANCH  10  11
ENDBRANCH   9  10
ENDBRANCH   8   9
ENDBRANCH   5   8
ENDBRANCH   1   2
BRANCH   1  19
ATOM     17  C   UNL     1      46.250   6.880  11.280  0.00  0.00    +0.000 C 
ATOM     18  O   UNL     1      45.612   7.858  11.673  0.00  0.00    +0.000 OA
ATOM     19  N   UNL     1      47.617   6.856  11.340  0.00  0.00    +0.000 N 
ATOM     20  H   UNL     1      48.131   6.025  11.072  0.00  0.00    +0.000 HD
BRANCH  17  28
ATOM     21  C   UNL     1      44.469   4.270  12.673  0.00  0.00    +0.000 A 
ATOM     22  N   UNL     1      43.803   3.126  12.937  0.00  0.00    +0.000 NA
ATOM     23  C   UNL     1      43.474   2.334  11.916  0.00  0.00    +0.000 A 
ATOM     24  N   UNL     1      43.732   2.542  10.630  0.00  0.00    +0.000 NA
ATOM     25  C   UNL     1      44.411   3.680  10.408  0.00  0.00    +0.000 A 
ATOM     26  S   UNL     1      44.822   4.103   8.816  0.00  0.00    +0.000 S 
ATOM     27  C   UNL     1      45.601   5.517   9.342  0.00  0.00    +0.000 A 
ATOM     28  C   UNL     1      45.569   5.701  10.721  0.00  0.00    +0.000 A 
ATOM     29  C   UNL     1      44.837   4.606  11.359  0.00  0.00    +0.000 A 
BRANCH  21  31
ATOM     30  C   UNL     1      46.077   4.970  14.235  0.00  0.00    +0.000 C 
ATOM     31  O   UNL     1      44.749   5.115  13.727  0.00  0.00    +0.000 OA
ENDBRANCH  21  31
ENDBRANCH  17  28
ENDBRANCH   1  19
TORSDOF 8
ENDMDL
MODEL 9
REMARK VINA RESULT:    -6.537      4.756      9.278
REMARK INTER + INTRA:         -10.620
REMARK INTER:                  -9.713
REMARK INTRA:                  -0.906
REMARK UNBOUND:                -1.026
REMARK  Name = 
REMARK  9 active torsions:
REMARK  status: ('A' for Active; 'I' for Inactive)
REMARK    1  A    between atoms: C_1  and  O_2
REMARK    2  A    between atoms: O_2  and  C_3
REMARK    3  A    between atoms: C_10  and  C_11
REMARK    4  A    between atoms: N_13  and  C_14
REMARK    5  A    between atoms: C_14  and  C_15
REMARK    6  A    between atoms: C_18  and  O_19
REMARK    7  A    between atoms: O_19  and  C_20
REMARK    8  A    between atoms: C_20  and  C_21
REMARK    9  A    between atoms: C_21  and  N_22
REMARK                            x       y       z     vdW  Elec       q    Type
REMARK                         _______ _______ _______ _____ _____    ______ ____
ROOT
ATOM      1  C   UNL     1      47.423   3.385  16.794  0.00  0.00    +0.000 C 
ENDROOT
BRANCH   1   2
ATOM      2  C   UNL     1      48.898   3.318  17.090  0.00  0.00    +0.000 A 
ATOM      3  C   UNL     1      49.596   4.459  17.503  0.00  0.00    +0.000 A 
ATOM      4  C   UNL     1      50.946   4.382  17.866  0.00  0.00    +0.000 A 
ATOM      5  C   UNL     1      51.620   3.161  17.822  0.00  0.00    +0.000 A 
ATOM      6  C   UNL     1      50.952   2.036  17.336  0.00  0.00    +0.000 A 
ATOM      7  C   UNL     1      49.602   2.112  16.971  0.00  0.00    +0.000 A 
BRANCH   5   8
ATOM      8  O   UNL     1      52.930   2.977  18.197  0.00  0.00    +0.000 OA
BRANCH   8   9
ATOM      9  C   UNL     1      53.589   1.877  17.544  0.00  0.00    +0.000 C 
BRANCH   9  10
ATOM     10  C   UNL     1      54.379   1.048  18.575  0.00  0.00    +0.000 C 
BRANCH  10  11
ATOM     11  N   UNL     1      54.939  -0.211  18.034  0.00  0.00    +0.000 NA
ATOM     12  C   UNL     1      54.319  -1.412  18.617  0.00  0.00    +0.000 C 
ATOM     13  C   UNL     1      55.003  -2.684  18.107  0.00  0.00    +0.000 C 
ATOM     14  C   UNL     1      54.988  -2.761  16.586  0.00  0.00    +0.000 C 
ATOM     15  C   UNL     1      55.522  -1.467  15.981  0.00  0.00    +0.000 C 
ATOM     16  C   UNL     1      54.814  -0.241  16.565  0.00  0.00    +0.000 C 
ENDBRANCH  10  11
ENDBRANCH   9  10
ENDBRANCH   8   9
ENDBRANCH   5   8
ENDBRANCH   1   2
BRANCH   1  19
ATOM     17  C   UNL     1      47.008   4.263  14.548  0.00  0.00    +0.000 C 
ATOM     18  O   UNL     1      47.219   3.153  14.055  0.00  0.00    +0.000 OA
ATOM     19  N   UNL     1      47.089   4.464  15.898  0.00  0.00    +0.000 N 
ATOM     20  H   UNL     1      46.974   5.391  16.290  0.00  0.00    +0.000 HD
BRANCH  17  28
ATOM     21  C   UNL     1      44.191   5.114  12.741  0.00  0.00    +0.000 A 
ATOM     22  N   UNL     1      43.276   5.660  11.913  0.00  0.00    +0.000 NA
ATOM     23  C   UNL     1      43.574   6.811  11.309  0.00  0.00    +0.000 A 
ATOM     24  N   UNL     1      44.700   7.506  11.428  0.00  0.00    +0.000 NA
ATOM     25  C   UNL     1      45.592   6.924  12.246  0.00  0.00    +0.000 A 
ATOM     26  S   UNL     1      47.088   7.681  12.515  0.00  0.00    +0.000 S 
ATOM     27  C   UNL     1      47.593   6.427  13.542  0.00  0.00    +0.000 A 
ATOM     28  C   UNL     1      46.651   5.415  13.704  0.00  0.00    +0.000 A 
ATOM     29  C   UNL     1      45.442   5.724  12.941  0.00  0.00    +0.000 A 
BRANCH  21  31
ATOM     30  C   UNL     1      43.606   2.849  12.545  0.00  0.00    +0.000 C 
ATOM     31  O   UNL     1      43.850   3.958  13.412  0.00  0.00    +0.000 OA
ENDBRANCH  21  31
ENDBRANCH  17  28
ENDBRANCH   1  19
TORSDOF 8
ENDMDL
