MODEL 1
REMARK VINA RESULT:    -8.023      0.000      0.000
REMARK INTER + INTRA:         -12.350
REMARK INTER:                 -11.307
REMARK INTRA:                  -1.043
REMARK UNBOUND:                -1.043
REMARK  Name = 
REMARK  9 active torsions:
REMARK  status: ('A' for Active; 'I' for Inactive)
REMARK    1  A    between atoms: C_1  and  C_2
REMARK    2  A    between atoms: C_2  and  O_3
REMARK    3  A    between atoms: C_2  and  C_26
REMARK    4  A    between atoms: O_3  and  C_4
REMARK    5  A    between atoms: C_4  and  C_5
REMARK    6  A    between atoms: C_8  and  C_9
REMARK    7  A    between atoms: C_9  and  N_10
REMARK    8  A    between atoms: C_11  and  C_13
REMARK    9  A    between atoms: N_19  and  C_20
REMARK                            x       y       z     vdW  Elec       q    Type
REMARK                         _______ _______ _______ _____ _____    ______ ____
ROOT
ATOM      1  C   UNL     1      45.478   4.634  12.151  0.00  0.00    +0.000 A 
ATOM      2  C   UNL     1      46.000   5.760  11.508  0.00  0.00    +0.000 A 
ATOM      3  C   UNL     1      46.933   6.557  12.160  0.00  0.00    +0.000 A 
ATOM      4  C   UNL     1      47.330   6.202  13.445  0.00  0.00    +0.000 A 
ATOM      5  N   UNL     1      46.827   5.122  14.099  0.00  0.00    +0.000 NA
ATOM      6  C   UNL     1      45.923   4.366  13.438  0.00  0.00    +0.000 A 
ENDROOT
BRANCH   1   7
ATOM      7  C   UNL     1      44.427   3.790  11.498  0.00  0.00    +0.000 C 
BRANCH   7   8
ATOM      8  O   UNL     1      45.068   2.888  10.605  0.00  0.00    +0.000 OA
BRANCH   8  10
ATOM      9  C   UNL     1      44.134   4.350   8.878  0.00  0.00    +0.000 C 
ATOM     10  C   UNL     1      44.579   2.937   9.258  0.00  0.00    +0.000 C 
BRANCH  10  11
ATOM     11  C   UNL     1      45.680   2.488   8.304  0.00  0.00    +0.000 A 
ATOM     12  C   UNL     1      46.188   3.361   7.339  0.00  0.00    +0.000 A 
ATOM     13  C   UNL     1      47.159   2.906   6.451  0.00  0.00    +0.000 A 
ATOM     14  C   UNL     1      47.600   1.593   6.544  0.00  0.00    +0.000 A 
ATOM     15  C   UNL     1      47.048   0.787   7.526  0.00  0.00    +0.000 A 
ATOM     16  N   UNL     1      46.100   1.198   8.400  0.00  0.00    +0.000 NA
ENDBRANCH  10  11
ENDBRANCH   8  10
ENDBRANCH   7   8
ENDBRANCH   1   7
BRANCH   4  17
ATOM     17  C   UNL     1      48.315   7.066  14.188  0.00  0.00    +0.000 C 
BRANCH  17  18
ATOM     18  N   UNL     1      48.218   6.867  15.612  0.00  0.00    +0.000 N 
ATOM     19  C   UNL     1      49.262   6.449  16.389  0.00  0.00    +0.000 C 
ATOM     20  O   UNL     1      50.416   6.374  15.978  0.00  0.00    +0.000 OA
ATOM     21  H   UNL     1      47.290   6.941  16.002  0.00  0.00    +0.000 HD
BRANCH  19  22
ATOM     22  C   UNL     1      48.906   6.146  17.776  0.00  0.00    +0.000 A 
ATOM     23  C   UNL     1      49.104   4.881  18.304  0.00  0.00    +0.000 A 
ATOM     24  S   UNL     1      48.683   4.771  19.956  0.00  0.00    +0.000 S 
ATOM     25  C   UNL     1      48.174   6.396  19.995  0.00  0.00    +0.000 A 
ATOM     26  N   UNL     1      47.696   6.957  21.138  0.00  0.00    +0.000 NA
ATOM     27  C   UNL     1      47.326   8.188  21.013  0.00  0.00    +0.000 A 
ATOM     28  N   UNL     1      47.373   8.931  19.849  0.00  0.00    +0.000 N 
ATOM     29  C   UNL     1      46.931  10.308  19.826  0.00  0.00    +0.000 C 
ATOM     30  C   UNL     1      47.852   8.384  18.659  0.00  0.00    +0.000 A 
ATOM     31  O   UNL     1      47.898   9.027  17.614  0.00  0.00    +0.000 OA
ATOM     32  C   UNL     1      48.311   7.011  18.768  0.00  0.00    +0.000 A 
ENDBRANCH  19  22
ENDBRANCH  17  18
ENDBRANCH   4  17
TORSDOF 7
ENDMDL
MODEL 2
REMARK VINA RESULT:    -7.930      1.980      2.695
REMARK INTER + INTRA:         -12.218
REMARK INTER:                 -11.081
REMARK INTRA:                  -1.137
REMARK UNBOUND:                -1.043
REMARK  Name = 
REMARK  9 active torsions:
REMARK  status: ('A' for Active; 'I' for Inactive)
REMARK    1  A    between atoms: C_1  and  C_2
REMARK    2  A    between atoms: C_2  and  O_3
REMARK    3  A    between atoms: C_2  and  C_26
REMARK    4  A    between atoms: O_3  and  C_4
REMARK    5  A    between atoms: C_4  and  C_5
REMARK    6  A    between atoms: C_8  and  C_9
REMARK    7  A    between atoms: C_9  and  N_10
REMARK    8  A    between atoms: C_11  and  C_13
REMARK    9  A    between atoms: N_19  and  C_20
REMARK                            x       y       z     vdW  Elec       q    Type
REMARK                         _______ _______ _______ _____ _____    ______ ____
ROOT
ATOM      1  C   UNL     1      44.875   4.760  12.097  0.00  0.00    +0.000 A 
ATOM      2  C   UNL     1      46.271   4.735  12.164  0.00  0.00    +0.000 A 
ATOM      3  C   UNL     1      46.962   5.864  12.587  0.00  0.00    +0.000 A 
ATOM      4  C   UNL     1      46.236   6.995  12.943  0.00  0.00    +0.000 A 
ATOM      5  N   UNL     1      44.880   7.051  12.873  0.00  0.00    +0.000 NA
ATOM      6  C   UNL     1      44.236   5.938  12.459  0.00  0.00    +0.000 A 
ENDROOT
BRANCH   1   7
ATOM      7  C   UNL     1      44.105   3.580  11.587  0.00  0.00    +0.000 C 
BRANCH   7   8
ATOM      8  O   UNL     1      44.933   2.864  10.680  0.00  0.00    +0.000 OA
BRANCH   8  10
ATOM      9  C   UNL     1      44.137   4.366   8.917  0.00  0.00    +0.000 C 
ATOM     10  C   UNL     1      44.513   2.937   9.311  0.00  0.00    +0.000 C 
BRANCH  10  11
ATOM     11  C   UNL     1      45.645   2.455   8.410  0.00  0.00    +0.000 A 
ATOM     12  C   UNL     1      46.294   3.338   7.543  0.00  0.00    +0.000 A 
ATOM     13  C   UNL     1      47.291   2.857   6.699  0.00  0.00    +0.000 A 
ATOM     14  C   UNL     1      47.617   1.508   6.736  0.00  0.00    +0.000 A 
ATOM     15  C   UNL     1      46.930   0.694   7.621  0.00  0.00    +0.000 A 
ATOM     16  N   UNL     1      45.953   1.131   8.450  0.00  0.00    +0.000 NA
ENDBRANCH  10  11
ENDBRANCH   8  10
ENDBRANCH   7   8
ENDBRANCH   1   7
BRANCH   4  17
ATOM     17  C   UNL     1      46.960   8.242  13.375  0.00  0.00    +0.000 C 
BRANCH  17  18
ATOM     18  N   UNL     1      47.505   8.102  14.702  0.00  0.00    +0.000 N 
ATOM     19  C   UNL     1      48.827   7.867  14.956  0.00  0.00    +0.000 C 
ATOM     20  O   UNL     1      49.696   7.927  14.091  0.00  0.00    +0.000 OA
ATOM     21  H   UNL     1      46.828   8.070  15.451  0.00  0.00    +0.000 HD
BRANCH  19  22
ATOM     22  C   UNL     1      49.138   7.586  16.358  0.00  0.00    +0.000 A 
ATOM     23  C   UNL     1      49.820   8.507  17.136  0.00  0.00    +0.000 A 
ATOM     24  S   UNL     1      50.016   8.001  18.756  0.00  0.00    +0.000 S 
ATOM     25  C   UNL     1      49.242   6.516  18.447  0.00  0.00    +0.000 A 
ATOM     26  N   UNL     1      49.067   5.595  19.432  0.00  0.00    +0.000 NA
ATOM     27  C   UNL     1      48.487   4.506  19.048  0.00  0.00    +0.000 A 
ATOM     28  N   UNL     1      48.064   4.229  17.762  0.00  0.00    +0.000 N 
ATOM     29  C   UNL     1      47.422   2.971  17.445  0.00  0.00    +0.000 C 
ATOM     30  C   UNL     1      48.234   5.148  16.728  0.00  0.00    +0.000 A 
ATOM     31  O   UNL     1      47.868   4.918  15.579  0.00  0.00    +0.000 OA
ATOM     32  C   UNL     1      48.851   6.400  17.129  0.00  0.00    +0.000 A 
ENDBRANCH  19  22
ENDBRANCH  17  18
ENDBRANCH   4  17
TORSDOF 7
ENDMDL
MODEL 3
REMARK VINA RESULT:    -7.639      2.766      9.399
REMARK INTER + INTRA:         -11.808
REMARK INTER:                 -10.381
REMARK INTRA:                  -1.427
REMARK UNBOUND:                -1.043
REMARK  Name = 
REMARK  9 active torsions:
REMARK  status: ('A' for Active; 'I' for Inactive)
REMARK    1  A    between atoms: C_1  and  C_2
REMARK    2  A    between atoms: C_2  and  O_3
REMARK    3  A    between atoms: C_2  and  C_26
REMARK    4  A    between atoms: O_3  and  C_4
REMARK    5  A    between atoms: C_4  and  C_5
REMARK    6  A    between atoms: C_8  and  C_9
REMARK    7  A    between atoms: C_9  and  N_10
REMARK    8  A    between atoms: C_11  and  C_13
REMARK    9  A    between atoms: N_19  and  C_20
REMARK                            x       y       z     vdW  Elec       q    Type
REMARK                         _______ _______ _______ _____ _____    ______ ____
ROOT
ATOM      1  C   UNL     1      48.866   7.730  15.977  0.00  0.00    +0.000 A 
ATOM      2  C   UNL     1      48.360   8.934  15.477  0.00  0.00    +0.000 A 
ATOM      3  C   UNL     1      47.852   8.986  14.185  0.00  0.00    +0.000 A 
ATOM      4  C   UNL     1      47.852   7.824  13.422  0.00  0.00    +0.000 A 
ATOM      5  N   UNL     1      48.351   6.644  13.877  0.00  0.00    +0.000 NA
ATOM      6  C   UNL     1      48.838   6.625  15.137  0.00  0.00    +0.000 A 
ENDROOT
BRANCH   1   7
ATOM      7  C   UNL     1      49.477   7.657  17.342  0.00  0.00    +0.000 C 
BRANCH   7   8
ATOM      8  O   UNL     1      48.440   7.410  18.283  0.00  0.00    +0.000 OA
BRANCH   8  10
ATOM      9  C   UNL     1      47.707   6.294  20.336  0.00  0.00    +0.000 C 
ATOM     10  C   UNL     1      48.687   6.304  19.162  0.00  0.00    +0.000 C 
BRANCH  10  11
ATOM     11  C   UNL     1      48.546   5.000  18.385  0.00  0.00    +0.000 A 
ATOM     12  C   UNL     1      49.642   4.152  18.206  0.00  0.00    +0.000 A 
ATOM     13  C   UNL     1      49.492   2.993  17.451  0.00  0.00    +0.000 A 
ATOM     14  C   UNL     1      48.256   2.705  16.889  0.00  0.00    +0.000 A 
ATOM     15  C   UNL     1      47.217   3.594  17.109  0.00  0.00    +0.000 A 
ATOM     16  N   UNL     1      47.332   4.731  17.834  0.00  0.00    +0.000 NA
ENDBRANCH  10  11
ENDBRANCH   8  10
ENDBRANCH   7   8
ENDBRANCH   1   7
BRANCH   4  17
ATOM     17  C   UNL     1      47.336   7.858  12.008  0.00  0.00    +0.000 C 
BRANCH  17  18
ATOM     18  N   UNL     1      46.640   6.642  11.672  0.00  0.00    +0.000 N 
ATOM     19  C   UNL     1      45.285   6.567  11.511  0.00  0.00    +0.000 C 
ATOM     20  O   UNL     1      44.560   7.556  11.463  0.00  0.00    +0.000 OA
ATOM     21  H   UNL     1      47.200   5.802  11.676  0.00  0.00    +0.000 HD
BRANCH  19  22
ATOM     22  C   UNL     1      44.765   5.209  11.343  0.00  0.00    +0.000 A 
ATOM     23  C   UNL     1      44.028   4.598  12.345  0.00  0.00    +0.000 A 
ATOM     24  S   UNL     1      43.466   3.045  11.909  0.00  0.00    +0.000 S 
ATOM     25  C   UNL     1      44.237   3.126  10.393  0.00  0.00    +0.000 A 
ATOM     26  N   UNL     1      44.147   2.103   9.502  0.00  0.00    +0.000 NA
ATOM     27  C   UNL     1      44.801   2.293   8.404  0.00  0.00    +0.000 A 
ATOM     28  N   UNL     1      45.556   3.409   8.098  0.00  0.00    +0.000 N 
ATOM     29  C   UNL     1      46.248   3.515   6.832  0.00  0.00    +0.000 C 
ATOM     30  C   UNL     1      45.673   4.472   8.991  0.00  0.00    +0.000 A 
ATOM     31  O   UNL     1      46.342   5.471   8.738  0.00  0.00    +0.000 OA
ATOM     32  C   UNL     1      44.922   4.311  10.224  0.00  0.00    +0.000 A 
ENDBRANCH  19  22
ENDBRANCH  17  18
ENDBRANCH   4  17
TORSDOF 7
ENDMDL
MODEL 4
REMARK VINA RESULT:    -7.320      2.056      2.991
REMARK INTER + INTRA:         -11.359
REMARK INTER:                 -10.353
REMARK INTRA:                  -1.005
REMARK UNBOUND:                -1.043
REMARK  Name = 
REMARK  9 active torsions:
REMARK  status: ('A' for Active; 'I' for Inactive)
REMARK    1  A    between atoms: C_1  and  C_2
REMARK    2  A    between atoms: C_2  and  O_3
REMARK    3  A    between atoms: C_2  and  C_26
REMARK    4  A    between atoms: O_3  and  C_4
REMARK    5  A    between atoms: C_4  and  C_5
REMARK    6  A    between atoms: C_8  and  C_9
REMARK    7  A    between atoms: C_9  and  N_10
REMARK    8  A    between atoms: C_11  and  C_13
REMARK    9  A    between atoms: N_19  and  C_20
REMARK                            x       y       z     vdW  Elec       q    Type
REMARK                         _______ _______ _______ _____ _____    ______ ____
ROOT
ATOM      1  C   UNL     1      44.000   6.295  12.026  0.00  0.00    +0.000 A 
ATOM      2  C   UNL     1      44.348   7.499  11.407  0.00  0.00    +0.000 A 
ATOM      3  C   UNL     1      45.536   8.134  11.750  0.00  0.00    +0.000 A 
ATOM      4  C   UNL     1      46.357   7.541  12.703  0.00  0.00    +0.000 A 
ATOM      5  N   UNL     1      46.036   6.379  13.330  0.00  0.00    +0.000 NA
ATOM      6  C   UNL     1      44.875   5.785  12.975  0.00  0.00    +0.000 A 
ENDROOT
BRANCH   1   7
ATOM      7  C   UNL     1      42.699   5.618  11.722  0.00  0.00    +0.000 C 
BRANCH   7   8
ATOM      8  O   UNL     1      42.930   4.628  10.729  0.00  0.00    +0.000 OA
BRANCH   8  10
ATOM      9  C   UNL     1      43.345   2.368  11.575  0.00  0.00    +0.000 C 
ATOM     10  C   UNL     1      43.950   3.677  11.066  0.00  0.00    +0.000 C 
BRANCH  10  11
ATOM     11  C   UNL     1      44.797   3.387   9.832  0.00  0.00    +0.000 A 
ATOM     12  C   UNL     1      45.301   4.430   9.050  0.00  0.00    +0.000 A 
ATOM     13  C   UNL     1      46.031   4.132   7.904  0.00  0.00    +0.000 A 
ATOM     14  C   UNL     1      46.241   2.803   7.560  0.00  0.00    +0.000 A 
ATOM     15  C   UNL     1      45.709   1.824   8.384  0.00  0.00    +0.000 A 
ATOM     16  N   UNL     1      44.992   2.083   9.502  0.00  0.00    +0.000 NA
ENDBRANCH  10  11
ENDBRANCH   8  10
ENDBRANCH   7   8
ENDBRANCH   1   7
BRANCH   4  17
ATOM     17  C   UNL     1      47.634   8.222  13.117  0.00  0.00    +0.000 C 
BRANCH  17  18
ATOM     18  N   UNL     1      47.851   8.115  14.537  0.00  0.00    +0.000 N 
ATOM     19  C   UNL     1      49.088   8.012  15.107  0.00  0.00    +0.000 C 
ATOM     20  O   UNL     1      50.131   8.178  14.481  0.00  0.00    +0.000 OA
ATOM     21  H   UNL     1      47.020   7.999  15.099  0.00  0.00    +0.000 HD
BRANCH  19  22
ATOM     22  C   UNL     1      49.077   7.740  16.545  0.00  0.00    +0.000 A 
ATOM     23  C   UNL     1      49.473   8.704  17.458  0.00  0.00    +0.000 A 
ATOM     24  S   UNL     1      49.316   8.194  19.081  0.00  0.00    +0.000 S 
ATOM     25  C   UNL     1      48.767   6.653  18.606  0.00  0.00    +0.000 A 
ATOM     26  N   UNL     1      48.438   5.707  19.526  0.00  0.00    +0.000 NA
ATOM     27  C   UNL     1      48.061   4.580  19.021  0.00  0.00    +0.000 A 
ATOM     28  N   UNL     1      47.984   4.286  17.674  0.00  0.00    +0.000 N 
ATOM     29  C   UNL     1      47.545   2.983  17.220  0.00  0.00    +0.000 C 
ATOM     30  C   UNL     1      48.319   5.230  16.705  0.00  0.00    +0.000 A 
ATOM     31  O   UNL     1      48.260   4.985  15.503  0.00  0.00    +0.000 OA
ATOM     32  C   UNL     1      48.714   6.523  17.233  0.00  0.00    +0.000 A 
ENDBRANCH  19  22
ENDBRANCH  17  18
ENDBRANCH   4  17
TORSDOF 7
ENDMDL
MODEL 5
REMARK VINA RESULT:    -7.174      5.338      9.775
REMARK INTER + INTRA:         -11.152
REMARK INTER:                 -10.262
REMARK INTRA:                  -0.890
REMARK UNBOUND:                -1.043
REMARK  Name = 
REMARK  9 active torsions:
REMARK  status: ('A' for Active; 'I' for Inactive)
REMARK    1  A    between atoms: C_1  and  C_2
REMARK    2  A    between atoms: C_2  and  O_3
REMARK    3  A    between atoms: C_2  and  C_26
REMARK    4  A    between atoms: O_3  and  C_4
REMARK    5  A    between atoms: C_4  and  C_5
REMARK    6  A    between atoms: C_8  and  C_9
REMARK    7  A    between atoms: C_9  and  N_10
REMARK    8  A    between atoms: C_11  and  C_13
REMARK    9  A    between atoms: N_19  and  C_20
REMARK                            x       y       z     vdW  Elec       q    Type
REMARK                         _______ _______ _______ _____ _____    ______ ____
ROOT
ATOM      1  C   UNL     1      51.408   2.824  17.755  0.00  0.00    +0.000 A 
ATOM      2  C   UNL     1      50.761   3.975  18.214  0.00  0.00    +0.000 A 
ATOM      3  C   UNL     1      49.394   4.125  18.013  0.00  0.00    +0.000 A 
ATOM      4  C   UNL     1      48.701   3.111  17.362  0.00  0.00    +0.000 A 
ATOM      5  N   UNL     1      49.307   1.989  16.892  0.00  0.00    +0.000 NA
ATOM      6  C   UNL     1      50.637   1.871  17.104  0.00  0.00    +0.000 A 
ENDROOT
BRANCH   1   7
ATOM      7  C   UNL     1      52.889   2.660  17.903  0.00  0.00    +0.000 C 
BRANCH   7   8
ATOM      8  O   UNL     1      53.152   1.332  18.336  0.00  0.00    +0.000 OA
BRANCH   8  10
ATOM      9  C   UNL     1      55.118   1.402  16.879  0.00  0.00    +0.000 C 
ATOM     10  C   UNL     1      53.967   0.565  17.440  0.00  0.00    +0.000 C 
BRANCH  10  11
ATOM     11  C   UNL     1      54.542  -0.636  18.183  0.00  0.00    +0.000 A 
ATOM     12  C   UNL     1      54.955  -1.776  17.487  0.00  0.00    +0.000 A 
ATOM     13  C   UNL     1      55.430  -2.874  18.197  0.00  0.00    +0.000 A 
ATOM     14  C   UNL     1      55.483  -2.813  19.583  0.00  0.00    +0.000 A 
ATOM     15  C   UNL     1      55.055  -1.651  20.203  0.00  0.00    +0.000 A 
ATOM     16  N   UNL     1      54.583  -0.568  19.540  0.00  0.00    +0.000 NA
ENDBRANCH  10  11
ENDBRANCH   8  10
ENDBRANCH   7   8
ENDBRANCH   1   7
BRANCH   4  17
ATOM     17  C   UNL     1      47.226   3.262  17.102  0.00  0.00    +0.000 C 
BRANCH  17  18
ATOM     18  N   UNL     1      46.965   4.293  16.129  0.00  0.00    +0.000 N 
ATOM     19  C   UNL     1      47.164   4.133  14.787  0.00  0.00    +0.000 C 
ATOM     20  O   UNL     1      47.414   3.047  14.271  0.00  0.00    +0.000 OA
ATOM     21  H   UNL     1      46.734   5.200  16.506  0.00  0.00    +0.000 HD
BRANCH  19  22
ATOM     22  C   UNL     1      47.004   5.354  13.996  0.00  0.00    +0.000 A 
ATOM     23  C   UNL     1      47.977   6.340  13.999  0.00  0.00    +0.000 A 
ATOM     24  S   UNL     1      47.613   7.643  12.955  0.00  0.00    +0.000 S 
ATOM     25  C   UNL     1      46.122   6.949  12.514  0.00  0.00    +0.000 A 
ATOM     26  N   UNL     1      45.295   7.563  11.624  0.00  0.00    +0.000 NA
ATOM     27  C   UNL     1      44.189   6.935  11.403  0.00  0.00    +0.000 A 
ATOM     28  N   UNL     1      43.807   5.744  11.990  0.00  0.00    +0.000 N 
ATOM     29  C   UNL     1      42.538   5.127  11.665  0.00  0.00    +0.000 C 
ATOM     30  C   UNL     1      44.627   5.092  12.909  0.00  0.00    +0.000 A 
ATOM     31  O   UNL     1      44.302   4.036  13.444  0.00  0.00    +0.000 OA
ATOM     32  C   UNL     1      45.897   5.751  13.159  0.00  0.00    +0.000 A 
ENDBRANCH  19  22
ENDBRANCH  17  18
ENDBRANCH   4  17
TORSDOF 7
ENDMDL
MODEL 6
REMARK VINA RESULT:    -7.168      3.089      3.842
REMARK INTER + INTRA:         -11.144
REMARK INTER:                  -9.651
REMARK INTRA:                  -1.493
REMARK UNBOUND:                -1.043
REMARK  Name = 
REMARK  9 active torsions:
REMARK  status: ('A' for Active; 'I' for Inactive)
REMARK    1  A    between atoms: C_1  and  C_2
REMARK    2  A    between atoms: C_2  and  O_3
REMARK    3  A    between atoms: C_2  and  C_26
REMARK    4  A    between atoms: O_3  and  C_4
REMARK    5  A    between atoms: C_4  and  C_5
REMARK    6  A    between atoms: C_8  and  C_9
REMARK    7  A    between atoms: C_9  and  N_10
REMARK    8  A    between atoms: C_11  and  C_13
REMARK    9  A    between atoms: N_19  and  C_20
REMARK                            x       y       z     vdW  Elec       q    Type
REMARK                         _______ _______ _______ _____ _____    ______ ____
ROOT
ATOM      1  C   UNL     1      45.768   6.104  12.999  0.00  0.00    +0.000 A 
ATOM      2  C   UNL     1      45.903   7.454  12.664  0.00  0.00    +0.000 A 
ATOM      3  C   UNL     1      47.169   8.018  12.568  0.00  0.00    +0.000 A 
ATOM      4  C   UNL     1      48.277   7.212  12.802  0.00  0.00    +0.000 A 
ATOM      5  N   UNL     1      48.174   5.900  13.144  0.00  0.00    +0.000 NA
ATOM      6  C   UNL     1      46.930   5.380  13.228  0.00  0.00    +0.000 A 
ENDROOT
BRANCH   1   7
ATOM      7  C   UNL     1      44.416   5.482  13.169  0.00  0.00    +0.000 C 
BRANCH   7   8
ATOM      8  O   UNL     1      44.467   4.154  12.666  0.00  0.00    +0.000 OA
BRANCH   8  10
ATOM      9  C   UNL     1      42.646   5.089  11.323  0.00  0.00    +0.000 C 
ATOM     10  C   UNL     1      43.560   3.892  11.587  0.00  0.00    +0.000 C 
BRANCH  10  11
ATOM     11  C   UNL     1      44.355   3.584  10.323  0.00  0.00    +0.000 A 
ATOM     12  C   UNL     1      44.980   4.607   9.605  0.00  0.00    +0.000 A 
ATOM     13  C   UNL     1      45.657   4.300   8.429  0.00  0.00    +0.000 A 
ATOM     14  C   UNL     1      45.696   2.983   7.993  0.00  0.00    +0.000 A 
ATOM     15  C   UNL     1      45.052   2.024   8.757  0.00  0.00    +0.000 A 
ATOM     16  N   UNL     1      44.381   2.292   9.902  0.00  0.00    +0.000 NA
ENDBRANCH  10  11
ENDBRANCH   8  10
ENDBRANCH   7   8
ENDBRANCH   1   7
BRANCH   4  17
ATOM     17  C   UNL     1      49.660   7.804  12.737  0.00  0.00    +0.000 C 
BRANCH  17  18
ATOM     18  N   UNL     1      50.496   7.306  13.800  0.00  0.00    +0.000 N 
ATOM     19  C   UNL     1      51.082   8.108  14.739  0.00  0.00    +0.000 C 
ATOM     20  O   UNL     1      50.811   9.298  14.868  0.00  0.00    +0.000 OA
ATOM     21  H   UNL     1      50.730   6.325  13.750  0.00  0.00    +0.000 HD
BRANCH  19  22
ATOM     22  C   UNL     1      52.027   7.423  15.622  0.00  0.00    +0.000 A 
ATOM     23  C   UNL     1      53.376   7.739  15.609  0.00  0.00    +0.000 A 
ATOM     24  S   UNL     1      54.280   6.866  16.765  0.00  0.00    +0.000 S 
ATOM     25  C   UNL     1      52.904   6.004  17.277  0.00  0.00    +0.000 A 
ATOM     26  N   UNL     1      52.982   5.078  18.270  0.00  0.00    +0.000 NA
ATOM     27  C   UNL     1      51.865   4.486  18.537  0.00  0.00    +0.000 A 
ATOM     28  N   UNL     1      50.660   4.715  17.902  0.00  0.00    +0.000 N 
ATOM     29  C   UNL     1      49.467   3.991  18.286  0.00  0.00    +0.000 C 
ATOM     30  C   UNL     1      50.547   5.653  16.877  0.00  0.00    +0.000 A 
ATOM     31  O   UNL     1      49.485   5.867  16.298  0.00  0.00    +0.000 OA
ATOM     32  C   UNL     1      51.775   6.365  16.572  0.00  0.00    +0.000 A 
ENDBRANCH  19  22
ENDBRANCH  17  18
ENDBRANCH   4  17
TORSDOF 7
ENDMDL
MODEL 7
REMARK VINA RESULT:    -6.807      2.587      3.193
REMARK INTER + INTRA:         -10.636
REMARK INTER:                  -9.363
REMARK INTRA:                  -1.273
REMARK UNBOUND:                -1.043
REMARK  Name = 
REMARK  9 active torsions:
REMARK  status: ('A' for Active; 'I' for Inactive)
REMARK    1  A    between atoms: C_1  and  C_2
REMARK    2  A    between atoms: C_2  and  O_3
REMARK    3  A    between atoms: C_2  and  C_26
REMARK    4  A    between atoms: O_3  and  C_4
REMARK    5  A    between atoms: C_4  and  C_5
REMARK    6  A    between atoms: C_8  and  C_9
REMARK    7  A    between atoms: C_9  and  N_10
REMARK    8  A    between atoms: C_11  and  C_13
REMARK    9  A    between atoms: N_19  and  C_20
REMARK                            x       y       z     vdW  Elec       q    Type
REMARK                         _______ _______ _______ _____ _____    ______ ____
ROOT
ATOM      1  C   UNL     1      46.432   7.058  12.713  0.00  0.00    +0.000 A 
ATOM      2  C   UNL     1      46.523   8.350  13.239  0.00  0.00    +0.000 A 
ATOM      3  C   UNL     1      47.729   8.799  13.762  0.00  0.00    +0.000 A 
ATOM      4  C   UNL     1      48.825   7.943  13.740  0.00  0.00    +0.000 A 
ATOM      5  N   UNL     1      48.760   6.677  13.249  0.00  0.00    +0.000 NA
ATOM      6  C   UNL     1      47.574   6.270  12.746  0.00  0.00    +0.000 A 
ENDROOT
BRANCH   1   7
ATOM      7  C   UNL     1      45.131   6.524  12.197  0.00  0.00    +0.000 C 
BRANCH   7   8
ATOM      8  O   UNL     1      45.194   5.104  12.208  0.00  0.00    +0.000 OA
BRANCH   8  10
ATOM      9  C   UNL     1      43.081   5.446  11.020  0.00  0.00    +0.000 C 
ATOM     10  C   UNL     1      44.172   4.459  11.436  0.00  0.00    +0.000 C 
BRANCH  10  11
ATOM     11  C   UNL     1      44.794   3.849  10.184  0.00  0.00    +0.000 A 
ATOM     12  C   UNL     1      45.357   4.661   9.197  0.00  0.00    +0.000 A 
ATOM     13  C   UNL     1      45.874   4.077   8.045  0.00  0.00    +0.000 A 
ATOM     14  C   UNL     1      45.817   2.698   7.900  0.00  0.00    +0.000 A 
ATOM     15  C   UNL     1      45.243   1.958   8.921  0.00  0.00    +0.000 A 
ATOM     16  N   UNL     1      44.728   2.497  10.051  0.00  0.00    +0.000 NA
ENDBRANCH  10  11
ENDBRANCH   8  10
ENDBRANCH   7   8
ENDBRANCH   1   7
BRANCH   4  17
ATOM     17  C   UNL     1      50.136   8.392  14.329  0.00  0.00    +0.000 C 
BRANCH  17  18
ATOM     18  N   UNL     1      50.273   7.959  15.697  0.00  0.00    +0.000 N 
ATOM     19  C   UNL     1      51.355   7.270  16.167  0.00  0.00    +0.000 C 
ATOM     20  O   UNL     1      52.384   7.111  15.514  0.00  0.00    +0.000 OA
ATOM     21  H   UNL     1      49.460   8.090  16.280  0.00  0.00    +0.000 HD
BRANCH  19  22
ATOM     22  C   UNL     1      51.217   6.778  17.538  0.00  0.00    +0.000 A 
ATOM     23  C   UNL     1      52.068   7.211  18.542  0.00  0.00    +0.000 A 
ATOM     24  S   UNL     1      51.683   6.560  20.073  0.00  0.00    +0.000 S 
ATOM     25  C   UNL     1      50.404   5.641  19.427  0.00  0.00    +0.000 A 
ATOM     26  N   UNL     1      49.637   4.845  20.220  0.00  0.00    +0.000 NA
ATOM     27  C   UNL     1      48.720   4.190  19.589  0.00  0.00    +0.000 A 
ATOM     28  N   UNL     1      48.487   4.236  18.229  0.00  0.00    +0.000 N 
ATOM     29  C   UNL     1      47.426   3.455  17.629  0.00  0.00    +0.000 C 
ATOM     30  C   UNL     1      49.257   5.036  17.387  0.00  0.00    +0.000 A 
ATOM     31  O   UNL     1      49.067   5.087  16.175  0.00  0.00    +0.000 OA
ATOM     32  C   UNL     1      50.277   5.817  18.064  0.00  0.00    +0.000 A 
ENDBRANCH  19  22
ENDBRANCH  17  18
ENDBRANCH   4  17
TORSDOF 7
ENDMDL
MODEL 8
REMARK VINA RESULT:    -6.793      4.542      9.155
REMARK INTER + INTRA:         -10.616
REMARK INTER:                  -9.298
REMARK INTRA:                  -1.318
REMARK UNBOUND:                -1.043
REMARK  Name = 
REMARK  9 active torsions:
REMARK  status: ('A' for Active; 'I' for Inactive)
REMARK    1  A    between atoms: C_1  and  C_2
REMARK    2  A    between atoms: C_2  and  O_3
REMARK    3  A    between atoms: C_2  and  C_26
REMARK    4  A    between atoms: O_3  and  C_4
REMARK    5  A    between atoms: C_4  and  C_5
REMARK    6  A    between atoms: C_8  and  C_9
REMARK    7  A    between atoms: C_9  and  N_10
REMARK    8  A    between atoms: C_11  and  C_13
REMARK    9  A    between atoms: N_19  and  C_20
REMARK                            x       y       z     vdW  Elec       q    Type
REMARK                         _______ _______ _______ _____ _____    ______ ____
ROOT
ATOM      1  C   UNL     1      51.474   3.436  18.258  0.00  0.00    +0.000 A 
ATOM      2  C   UNL     1      50.963   2.424  17.440  0.00  0.00    +0.000 A 
ATOM      3  C   UNL     1      49.621   2.440  17.081  0.00  0.00    +0.000 A 
ATOM      4  C   UNL     1      48.819   3.477  17.543  0.00  0.00    +0.000 A 
ATOM      5  N   UNL     1      49.287   4.466  18.351  0.00  0.00    +0.000 NA
ATOM      6  C   UNL     1      50.596   4.424  18.682  0.00  0.00    +0.000 A 
ENDROOT
BRANCH   1   7
ATOM      7  C   UNL     1      52.902   3.415  18.712  0.00  0.00    +0.000 C 
BRANCH   7   8
ATOM      8  O   UNL     1      53.397   4.747  18.696  0.00  0.00    +0.000 OA
BRANCH   8  10
ATOM      9  C   UNL     1      55.111   3.592  17.383  0.00  0.00    +0.000 C 
ATOM     10  C   UNL     1      54.606   4.922  17.947  0.00  0.00    +0.000 C 
BRANCH  10  11
ATOM     11  C   UNL     1      54.351   5.886  16.793  0.00  0.00    +0.000 A 
ATOM     12  C   UNL     1      53.373   6.878  16.895  0.00  0.00    +0.000 A 
ATOM     13  C   UNL     1      53.131   7.712  15.808  0.00  0.00    +0.000 A 
ATOM     14  C   UNL     1      53.866   7.537  14.643  0.00  0.00    +0.000 A 
ATOM     15  C   UNL     1      54.817   6.531  14.617  0.00  0.00    +0.000 A 
ATOM     16  N   UNL     1      55.073   5.702  15.656  0.00  0.00    +0.000 NA
ENDBRANCH  10  11
ENDBRANCH   8  10
ENDBRANCH   7   8
ENDBRANCH   1   7
BRANCH   4  17
ATOM     17  C   UNL     1      47.354   3.502  17.196  0.00  0.00    +0.000 C 
BRANCH  17  18
ATOM     18  N   UNL     1      47.071   4.483  16.179  0.00  0.00    +0.000 N 
ATOM     19  C   UNL     1      47.202   4.243  14.840  0.00  0.00    +0.000 C 
ATOM     20  O   UNL     1      47.402   3.124  14.376  0.00  0.00    +0.000 OA
ATOM     21  H   UNL     1      46.878   5.416  16.513  0.00  0.00    +0.000 HD
BRANCH  19  22
ATOM     22  C   UNL     1      47.032   5.422  13.990  0.00  0.00    +0.000 A 
ATOM     23  C   UNL     1      48.011   6.399  13.917  0.00  0.00    +0.000 A 
ATOM     24  S   UNL     1      47.633   7.647  12.814  0.00  0.00    +0.000 S 
ATOM     25  C   UNL     1      46.126   6.944  12.445  0.00  0.00    +0.000 A 
ATOM     26  N   UNL     1      45.283   7.516  11.544  0.00  0.00    +0.000 NA
ATOM     27  C   UNL     1      44.168   6.886  11.382  0.00  0.00    +0.000 A 
ATOM     28  N   UNL     1      43.791   5.732  12.040  0.00  0.00    +0.000 N 
ATOM     29  C   UNL     1      42.511   5.109  11.778  0.00  0.00    +0.000 C 
ATOM     30  C   UNL     1      44.628   5.123  12.974  0.00  0.00    +0.000 A 
ATOM     31  O   UNL     1      44.308   4.099  13.572  0.00  0.00    +0.000 OA
ATOM     32  C   UNL     1      45.908   5.783  13.158  0.00  0.00    +0.000 A 
ENDBRANCH  19  22
ENDBRANCH  17  18
ENDBRANCH   4  17
TORSDOF 7
ENDMDL
MODEL 9
REMARK VINA RESULT:    -6.680      5.153      8.954
REMARK INTER + INTRA:         -10.456
REMARK INTER:                  -9.238
REMARK INTRA:                  -1.219
REMARK UNBOUND:                -1.043
REMARK  Name = 
REMARK  9 active torsions:
REMARK  status: ('A' for Active; 'I' for Inactive)
REMARK    1  A    between atoms: C_1  and  C_2
REMARK    2  A    between atoms: C_2  and  O_3
REMARK    3  A    between atoms: C_2  and  C_26
REMARK    4  A    between atoms: O_3  and  C_4
REMARK    5  A    between atoms: C_4  and  C_5
REMARK    6  A    between atoms: C_8  and  C_9
REMARK    7  A    between atoms: C_9  and  N_10
REMARK    8  A    between atoms: C_11  and  C_13
REMARK    9  A    between atoms: N_19  and  C_20
REMARK                            x       y       z     vdW  Elec       q    Type
REMARK                         _______ _______ _______ _____ _____    ______ ____
ROOT
ATOM      1  C   UNL     1      50.128   8.849  12.082  0.00  0.00    +0.000 A 
ATOM      2  C   UNL     1      49.647   7.555  11.861  0.00  0.00    +0.000 A 
ATOM      3  C   UNL     1      48.278   7.317  11.867  0.00  0.00    +0.000 A 
ATOM      4  C   UNL     1      47.417   8.386  12.085  0.00  0.00    +0.000 A 
ATOM      5  N   UNL     1      47.858   9.651  12.317  0.00  0.00    +0.000 NA
ATOM      6  C   UNL     1      49.194   9.851  12.305  0.00  0.00    +0.000 A 
ENDROOT
BRANCH   1   7
ATOM      7  C   UNL     1      51.599   9.126  12.142  0.00  0.00    +0.000 C 
BRANCH   7   8
ATOM      8  O   UNL     1      52.275   8.116  11.407  0.00  0.00    +0.000 OA
BRANCH   8  10
ATOM      9  C   UNL     1      54.105   9.384  10.388  0.00  0.00    +0.000 C 
ATOM     10  C   UNL     1      52.836   8.561  10.164  0.00  0.00    +0.000 C 
BRANCH  10  11
ATOM     11  C   UNL     1      53.174   7.350   9.300  0.00  0.00    +0.000 A 
ATOM     12  C   UNL     1      52.585   7.182   8.045  0.00  0.00    +0.000 A 
ATOM     13  C   UNL     1      52.877   6.043   7.301  0.00  0.00    +0.000 A 
ATOM     14  C   UNL     1      53.748   5.097   7.825  0.00  0.00    +0.000 A 
ATOM     15  C   UNL     1      54.292   5.332   9.077  0.00  0.00    +0.000 A 
ATOM     16  N   UNL     1      54.023   6.428   9.826  0.00  0.00    +0.000 NA
ENDBRANCH  10  11
ENDBRANCH   8  10
ENDBRANCH   7   8
ENDBRANCH   1   7
BRANCH   4  17
ATOM     17  C   UNL     1      45.930   8.152  12.128  0.00  0.00    +0.000 C 
BRANCH  17  18
ATOM     18  N   UNL     1      45.599   6.803  11.745  0.00  0.00    +0.000 N 
ATOM     19  C   UNL     1      44.339   6.403  11.397  0.00  0.00    +0.000 C 
ATOM     20  O   UNL     1      43.415   7.189  11.209  0.00  0.00    +0.000 OA
ATOM     21  H   UNL     1      46.336   6.122  11.861  0.00  0.00    +0.000 HD
BRANCH  19  22
ATOM     22  C   UNL     1      44.186   4.960  11.212  0.00  0.00    +0.000 A 
ATOM     23  C   UNL     1      43.476   4.193  12.121  0.00  0.00    +0.000 A 
ATOM     24  S   UNL     1      43.369   2.549  11.672  0.00  0.00    +0.000 S 
ATOM     25  C   UNL     1      44.313   2.807  10.278  0.00  0.00    +0.000 A 
ATOM     26  N   UNL     1      44.601   1.788   9.424  0.00  0.00    +0.000 NA
ATOM     27  C   UNL     1      45.346   2.126   8.424  0.00  0.00    +0.000 A 
ATOM     28  N   UNL     1      45.850   3.389   8.184  0.00  0.00    +0.000 N 
ATOM     29  C   UNL     1      46.677   3.653   7.026  0.00  0.00    +0.000 C 
ATOM     30  C   UNL     1      45.579   4.453   9.043  0.00  0.00    +0.000 A 
ATOM     31  O   UNL     1      46.022   5.582   8.848  0.00  0.00    +0.000 OA
ATOM     32  C   UNL     1      44.715   4.121  10.162  0.00  0.00    +0.000 A 
ENDBRANCH  19  22
ENDBRANCH  17  18
ENDBRANCH   4  17
TORSDOF 7
ENDMDL
