MODEL 1
REMARK VINA RESULT:    -7.977      0.000      0.000
REMARK INTER + INTRA:         -10.394
REMARK INTER:                  -9.843
REMARK INTRA:                  -0.551
REMARK UNBOUND:                -0.551
REMARK  Name = 
REMARK  4 active torsions:
REMARK  status: ('A' for Active; 'I' for Inactive)
REMARK    1  A    between atoms: C_2  and  C_4
REMARK    2  A    between atoms: N_8  and  C_9
REMARK    3  A    between atoms: C_9  and  C_10
REMARK    4  A    between atoms: C_10  and  C_11
REMARK                            x       y       z     vdW  Elec       q    Type
REMARK                         _______ _______ _______ _____ _____    ______ ____
ROOT
ATOM      1  C   UNL     1      46.277   2.110   7.960  0.00  0.00    +0.000 A 
ATOM      2  C   UNL     1      46.388   3.447   7.590  0.00  0.00    +0.000 A 
ATOM      3  C   UNL     1      45.543   4.386   8.188  0.00  0.00    +0.000 A 
ATOM      4  C   UNL     1      44.641   3.989   9.176  0.00  0.00    +0.000 A 
ATOM      5  N   UNL     1      43.764   4.949   9.711  0.00  0.00    +0.000 N 
ATOM      6  N   UNL     1      44.532   2.695   9.539  0.00  0.00    +0.000 NA
ATOM      7  C   UNL     1      45.326   1.785   8.915  0.00  0.00    +0.000 A 
ATOM      8  H   UNL     1      44.174   5.875   9.654  0.00  0.00    +0.000 HD
ENDROOT
BRANCH   1  10
ATOM      9  N   UNL     1      46.755  -0.257   7.664  0.00  0.00    +0.000 N 
ATOM     10  C   UNL     1      47.089   1.033   7.358  0.00  0.00    +0.000 C 
ATOM     11  O   UNL     1      48.008   1.278   6.585  0.00  0.00    +0.000 OA
ATOM     12  H   UNL     1      47.254  -0.979   7.165  0.00  0.00    +0.000 HD
ATOM     13  H   UNL     1      45.867  -0.506   8.082  0.00  0.00    +0.000 HD
ENDBRANCH   1  10
BRANCH   5  14
ATOM     14  C   UNL     1      43.310   4.638  11.072  0.00  0.00    +0.000 C 
BRANCH  14  15
ATOM     15  C   UNL     1      43.780   5.743  12.029  0.00  0.00    +0.000 C 
BRANCH  15  16
ATOM     16  C   UNL     1      45.158   5.498  12.585  0.00  0.00    +0.000 A 
ATOM     17  C   UNL     1      45.518   4.249  13.104  0.00  0.00    +0.000 A 
ATOM     18  C   UNL     1      46.802   4.079  13.601  0.00  0.00    +0.000 A 
ATOM     19  N   UNL     1      47.736   5.055  13.621  0.00  0.00    +0.000 NA
ATOM     20  C   UNL     1      47.367   6.253  13.124  0.00  0.00    +0.000 A 
ATOM     21  C   UNL     1      46.110   6.522  12.605  0.00  0.00    +0.000 A 
ENDBRANCH  15  16
ENDBRANCH  14  15
ENDBRANCH   5  14
TORSDOF 4
ENDMDL
MODEL 2
REMARK VINA RESULT:    -7.955      0.118      1.112
REMARK INTER + INTRA:         -10.366
REMARK INTER:                  -9.812
REMARK INTRA:                  -0.555
REMARK UNBOUND:                -0.551
REMARK  Name = 
REMARK  4 active torsions:
REMARK  status: ('A' for Active; 'I' for Inactive)
REMARK    1  A    between atoms: C_2  and  C_4
REMARK    2  A    between atoms: N_8  and  C_9
REMARK    3  A    between atoms: C_9  and  C_10
REMARK    4  A    between atoms: C_10  and  C_11
REMARK                            x       y       z     vdW  Elec       q    Type
REMARK                         _______ _______ _______ _____ _____    ______ ____
ROOT
ATOM      1  C   UNL     1      46.266   2.079   7.975  0.00  0.00    +0.000 A 
ATOM      2  C   UNL     1      46.400   3.431   7.674  0.00  0.00    +0.000 A 
ATOM      3  C   UNL     1      45.549   4.349   8.295  0.00  0.00    +0.000 A 
ATOM      4  C   UNL     1      44.617   3.915   9.238  0.00  0.00    +0.000 A 
ATOM      5  N   UNL     1      43.736   4.858   9.796  0.00  0.00    +0.000 N 
ATOM      6  N   UNL     1      44.485   2.606   9.535  0.00  0.00    +0.000 NA
ATOM      7  C   UNL     1      45.287   1.718   8.888  0.00  0.00    +0.000 A 
ATOM      8  H   UNL     1      44.156   5.780   9.795  0.00  0.00    +0.000 HD
ENDROOT
BRANCH   1  10
ATOM      9  N   UNL     1      46.792  -0.274   7.657  0.00  0.00    +0.000 N 
ATOM     10  C   UNL     1      47.083   1.024   7.342  0.00  0.00    +0.000 C 
ATOM     11  O   UNL     1      47.968   1.293   6.539  0.00  0.00    +0.000 OA
ATOM     12  H   UNL     1      47.291  -0.984   7.140  0.00  0.00    +0.000 HD
ATOM     13  H   UNL     1      45.926  -0.547   8.106  0.00  0.00    +0.000 HD
ENDBRANCH   1  10
BRANCH   5  14
ATOM     14  C   UNL     1      43.243   4.486  11.128  0.00  0.00    +0.000 C 
BRANCH  14  15
ATOM     15  C   UNL     1      43.643   5.570  12.139  0.00  0.00    +0.000 C 
BRANCH  15  16
ATOM     16  C   UNL     1      45.053   5.412  12.647  0.00  0.00    +0.000 A 
ATOM     17  C   UNL     1      45.944   6.491  12.659  0.00  0.00    +0.000 A 
ATOM     18  C   UNL     1      47.229   6.288  13.140  0.00  0.00    +0.000 A 
ATOM     19  N   UNL     1      47.682   5.101  13.597  0.00  0.00    +0.000 NA
ATOM     20  C   UNL     1      46.811   4.071  13.569  0.00  0.00    +0.000 A 
ATOM     21  C   UNL     1      45.507   4.174  13.109  0.00  0.00    +0.000 A 
ENDBRANCH  15  16
ENDBRANCH  14  15
ENDBRANCH   5  14
TORSDOF 4
ENDMDL
MODEL 3
REMARK VINA RESULT:    -7.068      2.933      6.539
REMARK INTER + INTRA:          -9.271
REMARK INTER:                  -9.198
REMARK INTRA:                  -0.074
REMARK UNBOUND:                -0.551
REMARK  Name = 
REMARK  4 active torsions:
REMARK  status: ('A' for Active; 'I' for Inactive)
REMARK    1  A    between atoms: C_2  and  C_4
REMARK    2  A    between atoms: N_8  and  C_9
REMARK    3  A    between atoms: C_9  and  C_10
REMARK    4  A    between atoms: C_10  and  C_11
REMARK                            x       y       z     vdW  Elec       q    Type
REMARK                         _______ _______ _______ _____ _____    ______ ____
ROOT
ATOM      1  C   UNL     1      45.516   7.242  12.461  0.00  0.00    +0.000 A 
ATOM      2  C   UNL     1      46.370   6.222  12.870  0.00  0.00    +0.000 A 
ATOM      3  C   UNL     1      46.142   4.923  12.408  0.00  0.00    +0.000 A 
ATOM      4  C   UNL     1      45.103   4.670  11.512  0.00  0.00    +0.000 A 
ATOM      5  N   UNL     1      44.864   3.341  11.118  0.00  0.00    +0.000 N 
ATOM      6  N   UNL     1      44.274   5.655  11.111  0.00  0.00    +0.000 NA
ATOM      7  C   UNL     1      44.478   6.905  11.605  0.00  0.00    +0.000 A 
ATOM      8  H   UNL     1      45.718   2.798  11.166  0.00  0.00    +0.000 HD
ENDROOT
BRANCH   1  10
ATOM      9  N   UNL     1      46.517   8.889  13.943  0.00  0.00    +0.000 N 
ATOM     10  C   UNL     1      45.641   8.638  12.924  0.00  0.00    +0.000 C 
ATOM     11  O   UNL     1      45.012   9.548  12.398  0.00  0.00    +0.000 OA
ATOM     12  H   UNL     1      46.666   9.861  14.178  0.00  0.00    +0.000 HD
ATOM     13  H   UNL     1      47.229   8.227  14.228  0.00  0.00    +0.000 HD
ENDBRANCH   1  10
BRANCH   5  14
ATOM     14  C   UNL     1      44.218   3.225   9.804  0.00  0.00    +0.000 C 
BRANCH  14  15
ATOM     15  C   UNL     1      45.103   3.894   8.742  0.00  0.00    +0.000 C 
BRANCH  15  16
ATOM     16  C   UNL     1      46.035   2.928   8.057  0.00  0.00    +0.000 A 
ATOM     17  C   UNL     1      46.001   1.560   8.345  0.00  0.00    +0.000 A 
ATOM     18  C   UNL     1      46.881   0.717   7.682  0.00  0.00    +0.000 A 
ATOM     19  N   UNL     1      47.783   1.139   6.770  0.00  0.00    +0.000 NA
ATOM     20  C   UNL     1      47.807   2.463   6.512  0.00  0.00    +0.000 A 
ATOM     21  C   UNL     1      46.968   3.384   7.121  0.00  0.00    +0.000 A 
ENDBRANCH  15  16
ENDBRANCH  14  15
ENDBRANCH   5  14
TORSDOF 4
ENDMDL
MODEL 4
REMARK VINA RESULT:    -7.008      2.561      6.311
REMARK INTER + INTRA:          -9.198
REMARK INTER:                  -8.807
REMARK INTRA:                  -0.391
REMARK UNBOUND:                -0.551
REMARK  Name = 
REMARK  4 active torsions:
REMARK  status: ('A' for Active; 'I' for Inactive)
REMARK    1  A    between atoms: C_2  and  C_4
REMARK    2  A    between atoms: N_8  and  C_9
REMARK    3  A    between atoms: C_9  and  C_10
REMARK    4  A    between atoms: C_10  and  C_11
REMARK                            x       y       z     vdW  Elec       q    Type
REMARK                         _______ _______ _______ _____ _____    ______ ____
ROOT
ATOM      1  C   UNL     1      46.908   6.167  13.022  0.00  0.00    +0.000 A 
ATOM      2  C   UNL     1      46.090   5.210  13.614  0.00  0.00    +0.000 A 
ATOM      3  C   UNL     1      45.132   4.562  12.831  0.00  0.00    +0.000 A 
ATOM      4  C   UNL     1      45.036   4.839  11.467  0.00  0.00    +0.000 A 
ATOM      5  N   UNL     1      44.020   4.214  10.723  0.00  0.00    +0.000 N 
ATOM      6  N   UNL     1      45.828   5.764  10.888  0.00  0.00    +0.000 NA
ATOM      7  C   UNL     1      46.724   6.422  11.671  0.00  0.00    +0.000 A 
ATOM      8  H   UNL     1      43.768   3.326  11.142  0.00  0.00    +0.000 HD
ENDROOT
BRANCH   1  10
ATOM      9  N   UNL     1      47.507   8.084  14.394  0.00  0.00    +0.000 N 
ATOM     10  C   UNL     1      47.920   6.941  13.768  0.00  0.00    +0.000 C 
ATOM     11  O   UNL     1      49.082   6.561  13.855  0.00  0.00    +0.000 OA
ATOM     12  H   UNL     1      48.188   8.544  14.982  0.00  0.00    +0.000 HD
ATOM     13  H   UNL     1      46.530   8.294  14.559  0.00  0.00    +0.000 HD
ENDBRANCH   1  10
BRANCH   5  14
ATOM     14  C   UNL     1      44.336   4.074   9.297  0.00  0.00    +0.000 C 
BRANCH  14  15
ATOM     15  C   UNL     1      44.482   2.584   8.953  0.00  0.00    +0.000 C 
BRANCH  15  16
ATOM     16  C   UNL     1      45.734   2.278   8.171  0.00  0.00    +0.000 A 
ATOM     17  C   UNL     1      46.219   0.970   8.065  0.00  0.00    +0.000 A 
ATOM     18  C   UNL     1      47.375   0.746   7.331  0.00  0.00    +0.000 A 
ATOM     19  N   UNL     1      48.072   1.723   6.711  0.00  0.00    +0.000 NA
ATOM     20  C   UNL     1      47.593   2.978   6.832  0.00  0.00    +0.000 A 
ATOM     21  C   UNL     1      46.447   3.302   7.542  0.00  0.00    +0.000 A 
ENDBRANCH  15  16
ENDBRANCH  14  15
ENDBRANCH   5  14
TORSDOF 4
ENDMDL
MODEL 5
REMARK VINA RESULT:    -6.949      2.724      6.321
REMARK INTER + INTRA:          -9.125
REMARK INTER:                  -8.771
REMARK INTRA:                  -0.354
REMARK UNBOUND:                -0.551
REMARK  Name = 
REMARK  4 active torsions:
REMARK  status: ('A' for Active; 'I' for Inactive)
REMARK    1  A    between atoms: C_2  and  C_4
REMARK    2  A    between atoms: N_8  and  C_9
REMARK    3  A    between atoms: C_9  and  C_10
REMARK    4  A    between atoms: C_10  and  C_11
REMARK                            x       y       z     vdW  Elec       q    Type
REMARK                         _______ _______ _______ _____ _____    ______ ____
ROOT
ATOM      1  C   UNL     1      46.747   4.678  14.207  0.00  0.00    +0.000 A 
ATOM      2  C   UNL     1      46.610   5.941  13.639  0.00  0.00    +0.000 A 
ATOM      3  C   UNL     1      46.158   6.045  12.321  0.00  0.00    +0.000 A 
ATOM      4  C   UNL     1      45.801   4.898  11.610  0.00  0.00    +0.000 A 
ATOM      5  N   UNL     1      45.409   5.035  10.267  0.00  0.00    +0.000 N 
ATOM      6  N   UNL     1      45.929   3.672  12.157  0.00  0.00    +0.000 NA
ATOM      7  C   UNL     1      46.416   3.583  13.423  0.00  0.00    +0.000 A 
ATOM      8  H   UNL     1      45.007   5.952  10.106  0.00  0.00    +0.000 HD
ENDROOT
BRANCH   1  10
ATOM      9  N   UNL     1      47.785   5.531  16.234  0.00  0.00    +0.000 N 
ATOM     10  C   UNL     1      47.258   4.456  15.574  0.00  0.00    +0.000 C 
ATOM     11  O   UNL     1      47.186   3.359  16.115  0.00  0.00    +0.000 OA
ATOM     12  H   UNL     1      48.036   5.384  17.202  0.00  0.00    +0.000 HD
ATOM     13  H   UNL     1      47.635   6.486  15.931  0.00  0.00    +0.000 HD
ENDBRANCH   1  10
BRANCH   5  14
ATOM     14  C   UNL     1      44.522   3.962   9.801  0.00  0.00    +0.000 C 
BRANCH  14  15
ATOM     15  C   UNL     1      44.620   3.850   8.272  0.00  0.00    +0.000 C 
BRANCH  15  16
ATOM     16  C   UNL     1      45.762   2.979   7.816  0.00  0.00    +0.000 A 
ATOM     17  C   UNL     1      45.875   1.651   8.242  0.00  0.00    +0.000 A 
ATOM     18  C   UNL     1      46.946   0.895   7.789  0.00  0.00    +0.000 A 
ATOM     19  N   UNL     1      47.901   1.366   6.958  0.00  0.00    +0.000 NA
ATOM     20  C   UNL     1      47.779   2.651   6.565  0.00  0.00    +0.000 A 
ATOM     21  C   UNL     1      46.745   3.486   6.962  0.00  0.00    +0.000 A 
ENDBRANCH  15  16
ENDBRANCH  14  15
ENDBRANCH   5  14
TORSDOF 4
ENDMDL
MODEL 6
REMARK VINA RESULT:    -5.805      3.834      6.047
REMARK INTER + INTRA:          -7.714
REMARK INTER:                  -7.464
REMARK INTRA:                  -0.250
REMARK UNBOUND:                -0.551
REMARK  Name = 
REMARK  4 active torsions:
REMARK  status: ('A' for Active; 'I' for Inactive)
REMARK    1  A    between atoms: C_2  and  C_4
REMARK    2  A    between atoms: N_8  and  C_9
REMARK    3  A    between atoms: C_9  and  C_10
REMARK    4  A    between atoms: C_10  and  C_11
REMARK                            x       y       z     vdW  Elec       q    Type
REMARK                         _______ _______ _______ _____ _____    ______ ____
ROOT
ATOM      1  C   UNL     1      45.448   4.881  11.504  0.00  0.00    +0.000 A 
ATOM      2  C   UNL     1      46.171   6.000  11.904  0.00  0.00    +0.000 A 
ATOM      3  C   UNL     1      46.732   6.021  13.183  0.00  0.00    +0.000 A 
ATOM      4  C   UNL     1      46.607   4.912  14.022  0.00  0.00    +0.000 A 
ATOM      5  N   UNL     1      47.131   4.993  15.324  0.00  0.00    +0.000 N 
ATOM      6  N   UNL     1      45.909   3.825  13.638  0.00  0.00    +0.000 NA
ATOM      7  C   UNL     1      45.328   3.837  12.409  0.00  0.00    +0.000 A 
ATOM      8  H   UNL     1      47.906   5.645  15.356  0.00  0.00    +0.000 HD
ENDROOT
BRANCH   1  10
ATOM      9  N   UNL     1      43.466   5.153  10.121  0.00  0.00    +0.000 N 
ATOM     10  C   UNL     1      44.778   4.776  10.192  0.00  0.00    +0.000 C 
ATOM     11  O   UNL     1      45.379   4.398   9.194  0.00  0.00    +0.000 OA
ATOM     12  H   UNL     1      43.054   5.171   9.198  0.00  0.00    +0.000 HD
ATOM     13  H   UNL     1      43.014   5.700  10.844  0.00  0.00    +0.000 HD
ENDBRANCH   1  10
BRANCH   5  14
ATOM     14  C   UNL     1      47.493   3.689  15.894  0.00  0.00    +0.000 C 
BRANCH  14  15
ATOM     15  C   UNL     1      48.046   3.890  17.312  0.00  0.00    +0.000 C 
BRANCH  15  16
ATOM     16  C   UNL     1      49.468   3.415  17.465  0.00  0.00    +0.000 A 
ATOM     17  C   UNL     1      50.467   4.266  17.951  0.00  0.00    +0.000 A 
ATOM     18  C   UNL     1      51.759   3.775  18.072  0.00  0.00    +0.000 A 
ATOM     19  N   UNL     1      52.118   2.515  17.742  0.00  0.00    +0.000 NA
ATOM     20  C   UNL     1      51.142   1.714  17.268  0.00  0.00    +0.000 A 
ATOM     21  C   UNL     1      49.823   2.111  17.111  0.00  0.00    +0.000 A 
ENDBRANCH  15  16
ENDBRANCH  14  15
ENDBRANCH   5  14
TORSDOF 4
ENDMDL
MODEL 7
REMARK VINA RESULT:    -5.571      4.706      8.141
REMARK INTER + INTRA:          -7.425
REMARK INTER:                  -7.159
REMARK INTRA:                  -0.266
REMARK UNBOUND:                -0.551
REMARK  Name = 
REMARK  4 active torsions:
REMARK  status: ('A' for Active; 'I' for Inactive)
REMARK    1  A    between atoms: C_2  and  C_4
REMARK    2  A    between atoms: N_8  and  C_9
REMARK    3  A    between atoms: C_9  and  C_10
REMARK    4  A    between atoms: C_10  and  C_11
REMARK                            x       y       z     vdW  Elec       q    Type
REMARK                         _______ _______ _______ _____ _____    ______ ____
ROOT
ATOM      1  C   UNL     1      49.480   4.487  17.961  0.00  0.00    +0.000 A 
ATOM      2  C   UNL     1      48.559   3.444  17.972  0.00  0.00    +0.000 A 
ATOM      3  C   UNL     1      47.547   3.425  17.009  0.00  0.00    +0.000 A 
ATOM      4  C   UNL     1      47.498   4.412  16.023  0.00  0.00    +0.000 A 
ATOM      5  N   UNL     1      46.431   4.396  15.108  0.00  0.00    +0.000 N 
ATOM      6  N   UNL     1      48.390   5.423  16.007  0.00  0.00    +0.000 NA
ATOM      7  C   UNL     1      49.341   5.456  16.978  0.00  0.00    +0.000 A 
ATOM      8  H   UNL     1      46.082   3.452  14.986  0.00  0.00    +0.000 HD
ENDROOT
BRANCH   1  10
ATOM      9  N   UNL     1      51.576   3.712  18.921  0.00  0.00    +0.000 N 
ATOM     10  C   UNL     1      50.559   4.626  18.959  0.00  0.00    +0.000 C 
ATOM     11  O   UNL     1      50.567   5.542  19.772  0.00  0.00    +0.000 OA
ATOM     12  H   UNL     1      52.354   3.882  19.543  0.00  0.00    +0.000 HD
ATOM     13  H   UNL     1      51.738   3.108  18.125  0.00  0.00    +0.000 HD
ENDBRANCH   1  10
BRANCH   5  14
ATOM     14  C   UNL     1      46.748   5.031  13.824  0.00  0.00    +0.000 C 
BRANCH  14  15
ATOM     15  C   UNL     1      45.460   5.590  13.201  0.00  0.00    +0.000 C 
BRANCH  15  16
ATOM     16  C   UNL     1      44.853   4.670  12.174  0.00  0.00    +0.000 A 
ATOM     17  C   UNL     1      43.933   3.681  12.540  0.00  0.00    +0.000 A 
ATOM     18  C   UNL     1      43.406   2.863  11.552  0.00  0.00    +0.000 A 
ATOM     19  N   UNL     1      43.731   2.958  10.244  0.00  0.00    +0.000 NA
ATOM     20  C   UNL     1      44.626   3.911   9.913  0.00  0.00    +0.000 A 
ATOM     21  C   UNL     1      45.208   4.777  10.826  0.00  0.00    +0.000 A 
ENDBRANCH  15  16
ENDBRANCH  14  15
ENDBRANCH   5  14
TORSDOF 4
ENDMDL
MODEL 8
REMARK VINA RESULT:    -5.522      4.000      5.880
REMARK INTER + INTRA:          -7.365
REMARK INTER:                  -7.046
REMARK INTRA:                  -0.319
REMARK UNBOUND:                -0.551
REMARK  Name = 
REMARK  4 active torsions:
REMARK  status: ('A' for Active; 'I' for Inactive)
REMARK    1  A    between atoms: C_2  and  C_4
REMARK    2  A    between atoms: N_8  and  C_9
REMARK    3  A    between atoms: C_9  and  C_10
REMARK    4  A    between atoms: C_10  and  C_11
REMARK                            x       y       z     vdW  Elec       q    Type
REMARK                         _______ _______ _______ _____ _____    ______ ____
ROOT
ATOM      1  C   UNL     1      45.437   4.905  11.533  0.00  0.00    +0.000 A 
ATOM      2  C   UNL     1      46.168   6.026  11.916  0.00  0.00    +0.000 A 
ATOM      3  C   UNL     1      46.739   6.056  13.191  0.00  0.00    +0.000 A 
ATOM      4  C   UNL     1      46.618   4.956  14.041  0.00  0.00    +0.000 A 
ATOM      5  N   UNL     1      47.153   5.047  15.338  0.00  0.00    +0.000 N 
ATOM      6  N   UNL     1      45.913   3.867  13.673  0.00  0.00    +0.000 NA
ATOM      7  C   UNL     1      45.322   3.870  12.449  0.00  0.00    +0.000 A 
ATOM      8  H   UNL     1      47.931   5.697  15.357  0.00  0.00    +0.000 HD
ENDROOT
BRANCH   1  10
ATOM      9  N   UNL     1      45.460   5.150   9.113  0.00  0.00    +0.000 N 
ATOM     10  C   UNL     1      44.755   4.790  10.228  0.00  0.00    +0.000 C 
ATOM     11  O   UNL     1      43.613   4.358  10.137  0.00  0.00    +0.000 OA
ATOM     12  H   UNL     1      45.016   4.969   8.224  0.00  0.00    +0.000 HD
ATOM     13  H   UNL     1      46.466   5.267   9.117  0.00  0.00    +0.000 HD
ENDBRANCH   1  10
BRANCH   5  14
ATOM     14  C   UNL     1      47.516   3.747  15.916  0.00  0.00    +0.000 C 
BRANCH  14  15
ATOM     15  C   UNL     1      47.090   3.711  17.391  0.00  0.00    +0.000 C 
BRANCH  15  16
ATOM     16  C   UNL     1      47.749   4.780  18.223  0.00  0.00    +0.000 A 
ATOM     17  C   UNL     1      46.991   5.730  18.915  0.00  0.00    +0.000 A 
ATOM     18  C   UNL     1      47.651   6.691  19.667  0.00  0.00    +0.000 A 
ATOM     19  N   UNL     1      48.995   6.772  19.769  0.00  0.00    +0.000 NA
ATOM     20  C   UNL     1      49.709   5.852  19.088  0.00  0.00    +0.000 A 
ATOM     21  C   UNL     1      49.142   4.854  18.311  0.00  0.00    +0.000 A 
ENDBRANCH  15  16
ENDBRANCH  14  15
ENDBRANCH   5  14
TORSDOF 4
ENDMDL
MODEL 9
REMARK VINA RESULT:    -5.463      3.268      5.518
REMARK INTER + INTRA:          -7.292
REMARK INTER:                  -6.889
REMARK INTRA:                  -0.403
REMARK UNBOUND:                -0.551
REMARK  Name = 
REMARK  4 active torsions:
REMARK  status: ('A' for Active; 'I' for Inactive)
REMARK    1  A    between atoms: C_2  and  C_4
REMARK    2  A    between atoms: N_8  and  C_9
REMARK    3  A    between atoms: C_9  and  C_10
REMARK    4  A    between atoms: C_10  and  C_11
REMARK                            x       y       z     vdW  Elec       q    Type
REMARK                         _______ _______ _______ _____ _____    ______ ____
ROOT
ATOM      1  C   UNL     1      44.739   5.336  11.414  0.00  0.00    +0.000 A 
ATOM      2  C   UNL     1      44.721   6.727  11.441  0.00  0.00    +0.000 A 
ATOM      3  C   UNL     1      45.583   7.398  12.312  0.00  0.00    +0.000 A 
ATOM      4  C   UNL     1      46.482   6.678  13.102  0.00  0.00    +0.000 A 
ATOM      5  N   UNL     1      47.290   7.383  14.012  0.00  0.00    +0.000 N 
ATOM      6  N   UNL     1      46.504   5.331  13.078  0.00  0.00    +0.000 NA
ATOM      7  C   UNL     1      45.627   4.689  12.261  0.00  0.00    +0.000 A 
ATOM      8  H   UNL     1      47.452   8.329  13.685  0.00  0.00    +0.000 HD
ENDROOT
BRANCH   1  10
ATOM      9  N   UNL     1      44.019   4.600   9.211  0.00  0.00    +0.000 N 
ATOM     10  C   UNL     1      43.839   4.531  10.565  0.00  0.00    +0.000 C 
ATOM     11  O   UNL     1      42.984   3.800  11.049  0.00  0.00    +0.000 OA
ATOM     12  H   UNL     1      43.464   3.967   8.653  0.00  0.00    +0.000 HD
ATOM     13  H   UNL     1      44.857   4.981   8.790  0.00  0.00    +0.000 HD
ENDBRANCH   1  10
BRANCH   5  14
ATOM     14  C   UNL     1      48.547   6.696  14.335  0.00  0.00    +0.000 C 
BRANCH  14  15
ATOM     15  C   UNL     1      48.804   6.792  15.846  0.00  0.00    +0.000 C 
BRANCH  15  16
ATOM     16  C   UNL     1      48.795   5.451  16.534  0.00  0.00    +0.000 A 
ATOM     17  C   UNL     1      49.891   5.017  17.288  0.00  0.00    +0.000 A 
ATOM     18  C   UNL     1      49.828   3.774  17.900  0.00  0.00    +0.000 A 
ATOM     19  N   UNL     1      48.765   2.945  17.809  0.00  0.00    +0.000 NA
ATOM     20  C   UNL     1      47.723   3.378  17.071  0.00  0.00    +0.000 A 
ATOM     21  C   UNL     1      47.690   4.603  16.422  0.00  0.00    +0.000 A 
ENDBRANCH  15  16
ENDBRANCH  14  15
ENDBRANCH   5  14
TORSDOF 4
ENDMDL
