MODEL 1
REMARK VINA RESULT:    -7.339      0.000      0.000
REMARK INTER + INTRA:         -10.870
REMARK INTER:                  -9.913
REMARK INTRA:                  -0.957
REMARK UNBOUND:                -0.957
REMARK  Name = 
REMARK  7 active torsions:
REMARK  status: ('A' for Active; 'I' for Inactive)
REMARK    1  A    between atoms: N_1  and  C_2
REMARK    2  A    between atoms: C_2  and  C_3
REMARK    3  A    between atoms: C_6  and  N_7
REMARK    4  A    between atoms: N_7  and  C_8
REMARK    5  A    between atoms: C_8  and  C_9
REMARK    6  A    between atoms: C_9  and  O_10
REMARK    7  A    between atoms: C_9  and  C_11
REMARK                            x       y       z     vdW  Elec       q    Type
REMARK                         _______ _______ _______ _____ _____    ______ ____
ROOT
ATOM      1  N   UNL     1      44.269   3.647  10.856  0.00  0.00    +0.000 N 
ATOM      2  H   UNL     1      44.915   3.645  11.650  0.00  0.00    +0.000 HD
ENDROOT
BRANCH   1   6
ATOM      3  C   UNL     1      46.353   2.968   7.296  0.00  0.00    +0.000 A 
ATOM      4  N   UNL     1      45.917   4.223   7.596  0.00  0.00    +0.000 NA
ATOM      5  C   UNL     1      45.211   4.378   8.747  0.00  0.00    +0.000 A 
ATOM      6  C   UNL     1      44.879   3.352   9.637  0.00  0.00    +0.000 A 
ATOM      7  C   UNL     1      45.330   2.082   9.283  0.00  0.00    +0.000 A 
ATOM      8  C   UNL     1      46.051   1.873   8.104  0.00  0.00    +0.000 A 
ATOM      9 CL   UNL     1      46.549   0.262   7.739  0.00  0.00    +0.000 Cl
BRANCH   3  10
ATOM     10  C   UNL     1      47.191   2.841   6.041  0.00  0.00    +0.000 C 
BRANCH  10  11
ATOM     11  N   UNL     1      48.605   2.593   6.324  0.00  0.00    +0.000 NA
ATOM     12  H   UNL     1      48.944   1.879   5.683  0.00  0.00    +0.000 HD
ATOM     13  H   UNL     1      48.664   2.185   7.260  0.00  0.00    +0.000 HD
ENDBRANCH  10  11
ENDBRANCH   3  10
ENDBRANCH   1   6
BRANCH   1  14
ATOM     14  C   UNL     1      43.274   4.726  10.950  0.00  0.00    +0.000 C 
BRANCH  14  15
ATOM     15  C   UNL     1      43.420   5.502  12.269  0.00  0.00    +0.000 C 
BRANCH  15  16
ATOM     16  C   UNL     1      44.882   5.506  12.681  0.00  0.00    +0.000 A 
ATOM     17  N   UNL     1      45.730   6.336  12.041  0.00  0.00    +0.000 NA
ATOM     18  C   UNL     1      47.015   6.304  12.439  0.00  0.00    +0.000 A 
ATOM     19  C   UNL     1      47.484   5.479  13.432  0.00  0.00    +0.000 A 
ATOM     20  C   UNL     1      46.546   4.661  14.016  0.00  0.00    +0.000 A 
ATOM     21  N   UNL     1      45.244   4.652  13.667  0.00  0.00    +0.000 NA
ENDBRANCH  15  16
BRANCH  15  22
ATOM     22  O   UNL     1      42.593   4.871  13.274  0.00  0.00    +0.000 OA
ATOM     23  H   UNL     1      42.628   3.915  13.065  0.00  0.00    +0.000 HD
ENDBRANCH  15  22
ENDBRANCH  14  15
ENDBRANCH   1  14
TORSDOF 7
ENDMDL
MODEL 2
REMARK VINA RESULT:    -7.240      1.601      2.126
REMARK INTER + INTRA:         -10.736
REMARK INTER:                 -10.031
REMARK INTRA:                  -0.705
REMARK UNBOUND:                -0.957
REMARK  Name = 
REMARK  7 active torsions:
REMARK  status: ('A' for Active; 'I' for Inactive)
REMARK    1  A    between atoms: N_1  and  C_2
REMARK    2  A    between atoms: C_2  and  C_3
REMARK    3  A    between atoms: C_6  and  N_7
REMARK    4  A    between atoms: N_7  and  C_8
REMARK    5  A    between atoms: C_8  and  C_9
REMARK    6  A    between atoms: C_9  and  O_10
REMARK    7  A    between atoms: C_9  and  C_11
REMARK                            x       y       z     vdW  Elec       q    Type
REMARK                         _______ _______ _______ _____ _____    ______ ____
ROOT
ATOM      1  N   UNL     1      43.745   4.707   9.813  0.00  0.00    +0.000 N 
ATOM      2  H   UNL     1      43.009   5.036   9.183  0.00  0.00    +0.000 HD
ENDROOT
BRANCH   1   6
ATOM      3  C   UNL     1      46.266   1.956   7.927  0.00  0.00    +0.000 A 
ATOM      4  N   UNL     1      45.652   1.620   9.095  0.00  0.00    +0.000 NA
ATOM      5  C   UNL     1      44.875   2.568   9.685  0.00  0.00    +0.000 A 
ATOM      6  C   UNL     1      44.672   3.863   9.200  0.00  0.00    +0.000 A 
ATOM      7  C   UNL     1      45.331   4.169   8.012  0.00  0.00    +0.000 A 
ATOM      8  C   UNL     1      46.148   3.231   7.375  0.00  0.00    +0.000 A 
ATOM      9 CL   UNL     1      46.942   3.708   5.919  0.00  0.00    +0.000 Cl
BRANCH   3  10
ATOM     10  C   UNL     1      47.071   0.858   7.263  0.00  0.00    +0.000 C 
BRANCH  10  11
ATOM     11  N   UNL     1      46.733  -0.476   7.761  0.00  0.00    +0.000 NA
ATOM     12  H   UNL     1      47.470  -0.782   8.394  0.00  0.00    +0.000 HD
ATOM     13  H   UNL     1      46.760  -1.116   6.965  0.00  0.00    +0.000 HD
ENDBRANCH  10  11
ENDBRANCH   3  10
ENDBRANCH   1   6
BRANCH   1  14
ATOM     14  C   UNL     1      43.233   4.400  11.158  0.00  0.00    +0.000 C 
BRANCH  14  15
ATOM     15  C   UNL     1      43.430   5.590  12.110  0.00  0.00    +0.000 C 
BRANCH  15  16
ATOM     16  C   UNL     1      44.905   5.711  12.453  0.00  0.00    +0.000 A 
ATOM     17  N   UNL     1      45.385   4.997  13.491  0.00  0.00    +0.000 NA
ATOM     18  C   UNL     1      46.698   5.137  13.758  0.00  0.00    +0.000 A 
ATOM     19  C   UNL     1      47.536   5.958  13.044  0.00  0.00    +0.000 A 
ATOM     20  C   UNL     1      46.950   6.653  12.013  0.00  0.00    +0.000 A 
ATOM     21  N   UNL     1      45.645   6.550  11.692  0.00  0.00    +0.000 NA
ENDBRANCH  15  16
BRANCH  15  22
ATOM     22  O   UNL     1      42.631   5.373  13.296  0.00  0.00    +0.000 OA
ATOM     23  H   UNL     1      41.762   5.776  13.092  0.00  0.00    +0.000 HD
ENDBRANCH  15  22
ENDBRANCH  14  15
ENDBRANCH   1  14
TORSDOF 7
ENDMDL
MODEL 3
REMARK VINA RESULT:    -6.293      2.782      5.895
REMARK INTER + INTRA:          -9.457
REMARK INTER:                  -8.550
REMARK INTRA:                  -0.907
REMARK UNBOUND:                -0.957
REMARK  Name = 
REMARK  7 active torsions:
REMARK  status: ('A' for Active; 'I' for Inactive)
REMARK    1  A    between atoms: N_1  and  C_2
REMARK    2  A    between atoms: C_2  and  C_3
REMARK    3  A    between atoms: C_6  and  N_7
REMARK    4  A    between atoms: N_7  and  C_8
REMARK    5  A    between atoms: C_8  and  C_9
REMARK    6  A    between atoms: C_9  and  O_10
REMARK    7  A    between atoms: C_9  and  C_11
REMARK                            x       y       z     vdW  Elec       q    Type
REMARK                         _______ _______ _______ _____ _____    ______ ____
ROOT
ATOM      1  N   UNL     1      45.291   3.458  11.893  0.00  0.00    +0.000 N 
ATOM      2  H   UNL     1      45.573   2.500  12.116  0.00  0.00    +0.000 HD
ENDROOT
BRANCH   1   6
ATOM      3  C   UNL     1      47.735   6.182  13.915  0.00  0.00    +0.000 A 
ATOM      4  N   UNL     1      47.584   4.919  14.401  0.00  0.00    +0.000 NA
ATOM      5  C   UNL     1      46.747   4.088  13.725  0.00  0.00    +0.000 A 
ATOM      6  C   UNL     1      46.014   4.430  12.585  0.00  0.00    +0.000 A 
ATOM      7  C   UNL     1      46.185   5.737  12.132  0.00  0.00    +0.000 A 
ATOM      8  C   UNL     1      47.028   6.630  12.800  0.00  0.00    +0.000 A 
ATOM      9 CL   UNL     1      47.159   8.234  12.178  0.00  0.00    +0.000 Cl
BRANCH   3  10
ATOM     10  C   UNL     1      48.723   7.061  14.653  0.00  0.00    +0.000 C 
BRANCH  10  11
ATOM     11  N   UNL     1      50.040   7.097  14.014  0.00  0.00    +0.000 NA
ATOM     12  H   UNL     1      49.910   7.129  13.005  0.00  0.00    +0.000 HD
ATOM     13  H   UNL     1      50.501   6.207  14.211  0.00  0.00    +0.000 HD
ENDBRANCH  10  11
ENDBRANCH   3  10
ENDBRANCH   1   6
BRANCH   1  14
ATOM     14  C   UNL     1      43.835   3.588  11.730  0.00  0.00    +0.000 C 
BRANCH  14  15
ATOM     15  C   UNL     1      43.472   3.986  10.290  0.00  0.00    +0.000 C 
BRANCH  15  16
ATOM     16  C   UNL     1      44.549   3.473   9.349  0.00  0.00    +0.000 A 
ATOM     17  N   UNL     1      45.195   4.360   8.565  0.00  0.00    +0.000 NA
ATOM     18  C   UNL     1      46.140   3.859   7.747  0.00  0.00    +0.000 A 
ATOM     19  C   UNL     1      46.456   2.524   7.676  0.00  0.00    +0.000 A 
ATOM     20  C   UNL     1      45.734   1.699   8.505  0.00  0.00    +0.000 A 
ATOM     21  N   UNL     1      44.781   2.140   9.351  0.00  0.00    +0.000 NA
ENDBRANCH  15  16
BRANCH  15  22
ATOM     22  O   UNL     1      43.356   5.425  10.221  0.00  0.00    +0.000 OA
ATOM     23  H   UNL     1      43.995   5.698   9.531  0.00  0.00    +0.000 HD
ENDBRANCH  15  22
ENDBRANCH  14  15
ENDBRANCH   1  14
TORSDOF 7
ENDMDL
MODEL 4
REMARK VINA RESULT:    -6.216      3.048      6.524
REMARK INTER + INTRA:          -9.353
REMARK INTER:                  -8.933
REMARK INTRA:                  -0.420
REMARK UNBOUND:                -0.957
REMARK  Name = 
REMARK  7 active torsions:
REMARK  status: ('A' for Active; 'I' for Inactive)
REMARK    1  A    between atoms: N_1  and  C_2
REMARK    2  A    between atoms: C_2  and  C_3
REMARK    3  A    between atoms: C_6  and  N_7
REMARK    4  A    between atoms: N_7  and  C_8
REMARK    5  A    between atoms: C_8  and  C_9
REMARK    6  A    between atoms: C_9  and  O_10
REMARK    7  A    between atoms: C_9  and  C_11
REMARK                            x       y       z     vdW  Elec       q    Type
REMARK                         _______ _______ _______ _____ _____    ______ ____
ROOT
ATOM      1  N   UNL     1      44.160   4.307  11.372  0.00  0.00    +0.000 N 
ATOM      2  H   UNL     1      43.285   4.563  10.908  0.00  0.00    +0.000 HD
ENDROOT
BRANCH   1   6
ATOM      3  C   UNL     1      46.462   7.458  12.872  0.00  0.00    +0.000 A 
ATOM      4  N   UNL     1      46.815   6.172  13.148  0.00  0.00    +0.000 NA
ATOM      5  C   UNL     1      46.008   5.188  12.667  0.00  0.00    +0.000 A 
ATOM      6  C   UNL     1      44.837   5.391  11.932  0.00  0.00    +0.000 A 
ATOM      7  C   UNL     1      44.504   6.722  11.687  0.00  0.00    +0.000 A 
ATOM      8  C   UNL     1      45.298   7.766  12.169  0.00  0.00    +0.000 A 
ATOM      9 CL   UNL     1      44.794   9.382  11.835  0.00  0.00    +0.000 Cl
BRANCH   3  10
ATOM     10  C   UNL     1      47.416   8.526  13.366  0.00  0.00    +0.000 C 
BRANCH  10  11
ATOM     11  N   UNL     1      47.134   8.949  14.738  0.00  0.00    +0.000 NA
ATOM     12  H   UNL     1      47.815   9.657  15.005  0.00  0.00    +0.000 HD
ATOM     13  H   UNL     1      47.306   8.147  15.347  0.00  0.00    +0.000 HD
ENDBRANCH  10  11
ENDBRANCH   3  10
ENDBRANCH   1   6
BRANCH   1  14
ATOM     14  C   UNL     1      44.898   3.268  10.636  0.00  0.00    +0.000 C 
BRANCH  14  15
ATOM     15  C   UNL     1      44.372   3.127   9.198  0.00  0.00    +0.000 C 
BRANCH  15  16
ATOM     16  C   UNL     1      45.516   2.701   8.294  0.00  0.00    +0.000 A 
ATOM     17  N   UNL     1      45.988   1.443   8.402  0.00  0.00    +0.000 NA
ATOM     18  C   UNL     1      47.002   1.111   7.581  0.00  0.00    +0.000 A 
ATOM     19  C   UNL     1      47.562   1.977   6.674  0.00  0.00    +0.000 A 
ATOM     20  C   UNL     1      47.019   3.240   6.647  0.00  0.00    +0.000 A 
ATOM     21  N   UNL     1      46.000   3.630   7.437  0.00  0.00    +0.000 NA
ENDBRANCH  15  16
BRANCH  15  22
ATOM     22  O   UNL     1      43.817   4.395   8.781  0.00  0.00    +0.000 OA
ATOM     23  H   UNL     1      44.342   5.071   9.257  0.00  0.00    +0.000 HD
ENDBRANCH  15  22
ENDBRANCH  14  15
ENDBRANCH   1  14
TORSDOF 7
ENDMDL
MODEL 5
REMARK VINA RESULT:    -5.875      3.044      5.975
REMARK INTER + INTRA:          -8.893
REMARK INTER:                  -7.880
REMARK INTRA:                  -1.013
REMARK UNBOUND:                -0.957
REMARK  Name = 
REMARK  7 active torsions:
REMARK  status: ('A' for Active; 'I' for Inactive)
REMARK    1  A    between atoms: N_1  and  C_2
REMARK    2  A    between atoms: C_2  and  C_3
REMARK    3  A    between atoms: C_6  and  N_7
REMARK    4  A    between atoms: N_7  and  C_8
REMARK    5  A    between atoms: C_8  and  C_9
REMARK    6  A    between atoms: C_9  and  O_10
REMARK    7  A    between atoms: C_9  and  C_11
REMARK                            x       y       z     vdW  Elec       q    Type
REMARK                         _______ _______ _______ _____ _____    ______ ____
ROOT
ATOM      1  N   UNL     1      45.136   3.689  12.647  0.00  0.00    +0.000 N 
ATOM      2  H   UNL     1      45.320   2.687  12.750  0.00  0.00    +0.000 HD
ENDROOT
BRANCH   1   6
ATOM      3  C   UNL     1      47.944   6.380  14.181  0.00  0.00    +0.000 A 
ATOM      4  N   UNL     1      47.451   6.560  12.924  0.00  0.00    +0.000 NA
ATOM      5  C   UNL     1      46.571   5.632  12.462  0.00  0.00    +0.000 A 
ATOM      6  C   UNL     1      46.147   4.500  13.164  0.00  0.00    +0.000 A 
ATOM      7  C   UNL     1      46.689   4.346  14.438  0.00  0.00    +0.000 A 
ATOM      8  C   UNL     1      47.605   5.268  14.952  0.00  0.00    +0.000 A 
ATOM      9 CL   UNL     1      48.239   4.982  16.531  0.00  0.00    +0.000 Cl
BRANCH   3  10
ATOM     10  C   UNL     1      48.872   7.463  14.690  0.00  0.00    +0.000 C 
BRANCH  10  11
ATOM     11  N   UNL     1      50.286   7.132  14.511  0.00  0.00    +0.000 NA
ATOM     12  H   UNL     1      50.774   7.313  15.386  0.00  0.00    +0.000 HD
ATOM     13  H   UNL     1      50.671   7.790  13.831  0.00  0.00    +0.000 HD
ENDBRANCH  10  11
ENDBRANCH   3  10
ENDBRANCH   1   6
BRANCH   1  14
ATOM     14  C   UNL     1      43.722   4.023  12.877  0.00  0.00    +0.000 C 
BRANCH  14  15
ATOM     15  C   UNL     1      42.982   4.246  11.548  0.00  0.00    +0.000 C 
BRANCH  15  16
ATOM     16  C   UNL     1      43.866   3.774  10.405  0.00  0.00    +0.000 A 
ATOM     17  N   UNL     1      43.945   2.451  10.156  0.00  0.00    +0.000 NA
ATOM     18  C   UNL     1      44.741   2.081   9.136  0.00  0.00    +0.000 A 
ATOM     19  C   UNL     1      45.459   2.967   8.369  0.00  0.00    +0.000 A 
ATOM     20  C   UNL     1      45.320   4.292   8.709  0.00  0.00    +0.000 A 
ATOM     21  N   UNL     1      44.535   4.726   9.714  0.00  0.00    +0.000 NA
ENDBRANCH  15  16
BRANCH  15  22
ATOM     22  O   UNL     1      42.666   5.651  11.422  0.00  0.00    +0.000 OA
ATOM     23  H   UNL     1      43.524   6.113  11.515  0.00  0.00    +0.000 HD
ENDBRANCH  15  22
ENDBRANCH  14  15
ENDBRANCH   1  14
TORSDOF 7
ENDMDL
MODEL 6
REMARK VINA RESULT:    -5.697      3.204      6.551
REMARK INTER + INTRA:          -8.653
REMARK INTER:                  -7.984
REMARK INTRA:                  -0.670
REMARK UNBOUND:                -0.957
REMARK  Name = 
REMARK  7 active torsions:
REMARK  status: ('A' for Active; 'I' for Inactive)
REMARK    1  A    between atoms: N_1  and  C_2
REMARK    2  A    between atoms: C_2  and  C_3
REMARK    3  A    between atoms: C_6  and  N_7
REMARK    4  A    between atoms: N_7  and  C_8
REMARK    5  A    between atoms: C_8  and  C_9
REMARK    6  A    between atoms: C_9  and  O_10
REMARK    7  A    between atoms: C_9  and  C_11
REMARK                            x       y       z     vdW  Elec       q    Type
REMARK                         _______ _______ _______ _____ _____    ______ ____
ROOT
ATOM      1  N   UNL     1      46.456   5.687  11.730  0.00  0.00    +0.000 N 
ATOM      2  H   UNL     1      46.708   4.896  11.132  0.00  0.00    +0.000 HD
ENDROOT
BRANCH   1   6
ATOM      3  C   UNL     1      47.664   4.875  15.649  0.00  0.00    +0.000 A 
ATOM      4  N   UNL     1      46.804   4.029  15.018  0.00  0.00    +0.000 NA
ATOM      5  C   UNL     1      46.414   4.364  13.759  0.00  0.00    +0.000 A 
ATOM      6  C   UNL     1      46.808   5.513  13.069  0.00  0.00    +0.000 A 
ATOM      7  C   UNL     1      47.675   6.359  13.758  0.00  0.00    +0.000 A 
ATOM      8  C   UNL     1      48.095   6.062  15.057  0.00  0.00    +0.000 A 
ATOM      9 CL   UNL     1      49.151   7.180  15.839  0.00  0.00    +0.000 Cl
BRANCH   3  10
ATOM     10  C   UNL     1      48.129   4.442  17.024  0.00  0.00    +0.000 C 
BRANCH  10  11
ATOM     11  N   UNL     1      49.454   3.820  17.006  0.00  0.00    +0.000 NA
ATOM     12  H   UNL     1      50.092   4.430  16.500  0.00  0.00    +0.000 HD
ATOM     13  H   UNL     1      49.383   2.963  16.453  0.00  0.00    +0.000 HD
ENDBRANCH  10  11
ENDBRANCH   3  10
ENDBRANCH   1   6
BRANCH   1  14
ATOM     14  C   UNL     1      45.150   6.264  11.372  0.00  0.00    +0.000 C 
BRANCH  14  15
ATOM     15  C   UNL     1      44.154   5.167  10.964  0.00  0.00    +0.000 C 
BRANCH  15  16
ATOM     16  C   UNL     1      44.790   4.294   9.895  0.00  0.00    +0.000 A 
ATOM     17  N   UNL     1      45.501   4.889   8.917  0.00  0.00    +0.000 NA
ATOM     18  C   UNL     1      46.045   4.076   7.992  0.00  0.00    +0.000 A 
ATOM     19  C   UNL     1      45.900   2.710   8.000  0.00  0.00    +0.000 A 
ATOM     20  C   UNL     1      45.148   2.199   9.031  0.00  0.00    +0.000 A 
ATOM     21  N   UNL     1      44.584   2.960   9.991  0.00  0.00    +0.000 NA
ENDBRANCH  15  16
BRANCH  15  22
ATOM     22  O   UNL     1      42.945   5.794  10.479  0.00  0.00    +0.000 OA
ATOM     23  H   UNL     1      43.005   6.724  10.779  0.00  0.00    +0.000 HD
ENDBRANCH  15  22
ENDBRANCH  14  15
ENDBRANCH   1  14
TORSDOF 7
ENDMDL
MODEL 7
REMARK VINA RESULT:    -5.651      3.997      5.651
REMARK INTER + INTRA:          -8.591
REMARK INTER:                  -8.087
REMARK INTRA:                  -0.504
REMARK UNBOUND:                -0.957
REMARK  Name = 
REMARK  7 active torsions:
REMARK  status: ('A' for Active; 'I' for Inactive)
REMARK    1  A    between atoms: N_1  and  C_2
REMARK    2  A    between atoms: C_2  and  C_3
REMARK    3  A    between atoms: C_6  and  N_7
REMARK    4  A    between atoms: N_7  and  C_8
REMARK    5  A    between atoms: C_8  and  C_9
REMARK    6  A    between atoms: C_9  and  O_10
REMARK    7  A    between atoms: C_9  and  C_11
REMARK                            x       y       z     vdW  Elec       q    Type
REMARK                         _______ _______ _______ _____ _____    ______ ____
ROOT
ATOM      1  N   UNL     1      46.955   5.158  14.908  0.00  0.00    +0.000 N 
ATOM      2  H   UNL     1      46.608   5.888  15.536  0.00  0.00    +0.000 HD
ENDROOT
BRANCH   1   6
ATOM      3  C   UNL     1      45.192   4.869  11.128  0.00  0.00    +0.000 A 
ATOM      4  N   UNL     1      46.140   5.819  11.361  0.00  0.00    +0.000 NA
ATOM      5  C   UNL     1      46.650   5.893  12.620  0.00  0.00    +0.000 A 
ATOM      6  C   UNL     1      46.267   5.088  13.696  0.00  0.00    +0.000 A 
ATOM      7  C   UNL     1      45.283   4.142  13.418  0.00  0.00    +0.000 A 
ATOM      8  C   UNL     1      44.722   4.035  12.142  0.00  0.00    +0.000 A 
ATOM      9 CL   UNL     1      43.494   2.848  11.898  0.00  0.00    +0.000 Cl
BRANCH   3  10
ATOM     10  C   UNL     1      44.691   4.770   9.703  0.00  0.00    +0.000 C 
BRANCH  10  11
ATOM     11  N   UNL     1      45.663   5.258   8.723  0.00  0.00    +0.000 NA
ATOM     12  H   UNL     1      45.443   4.849   7.817  0.00  0.00    +0.000 HD
ATOM     13  H   UNL     1      46.577   4.885   8.987  0.00  0.00    +0.000 HD
ENDBRANCH  10  11
ENDBRANCH   3  10
ENDBRANCH   1   6
BRANCH   1  14
ATOM     14  C   UNL     1      47.321   3.929  15.629  0.00  0.00    +0.000 C 
BRANCH  14  15
ATOM     15  C   UNL     1      47.142   4.103  17.146  0.00  0.00    +0.000 C 
BRANCH  15  16
ATOM     16  C   UNL     1      48.496   4.391  17.774  0.00  0.00    +0.000 A 
ATOM     17  N   UNL     1      48.568   4.535  19.112  0.00  0.00    +0.000 NA
ATOM     18  C   UNL     1      49.787   4.790  19.622  0.00  0.00    +0.000 A 
ATOM     19  C   UNL     1      50.922   4.914  18.858  0.00  0.00    +0.000 A 
ATOM     20  C   UNL     1      50.743   4.762  17.503  0.00  0.00    +0.000 A 
ATOM     21  N   UNL     1      49.551   4.499  16.933  0.00  0.00    +0.000 NA
ENDBRANCH  15  16
BRANCH  15  22
ATOM     22  O   UNL     1      46.558   2.896  17.687  0.00  0.00    +0.000 OA
ATOM     23  H   UNL     1      45.591   3.047  17.656  0.00  0.00    +0.000 HD
ENDBRANCH  15  22
ENDBRANCH  14  15
ENDBRANCH   1  14
TORSDOF 7
ENDMDL
MODEL 8
REMARK VINA RESULT:    -5.595      2.965      6.116
REMARK INTER + INTRA:          -8.515
REMARK INTER:                  -7.544
REMARK INTRA:                  -0.971
REMARK UNBOUND:                -0.957
REMARK  Name = 
REMARK  7 active torsions:
REMARK  status: ('A' for Active; 'I' for Inactive)
REMARK    1  A    between atoms: N_1  and  C_2
REMARK    2  A    between atoms: C_2  and  C_3
REMARK    3  A    between atoms: C_6  and  N_7
REMARK    4  A    between atoms: N_7  and  C_8
REMARK    5  A    between atoms: C_8  and  C_9
REMARK    6  A    between atoms: C_9  and  O_10
REMARK    7  A    between atoms: C_9  and  C_11
REMARK                            x       y       z     vdW  Elec       q    Type
REMARK                         _______ _______ _______ _____ _____    ______ ____
ROOT
ATOM      1  N   UNL     1      45.283   5.283  12.313  0.00  0.00    +0.000 N 
ATOM      2  H   UNL     1      45.796   4.529  12.777  0.00  0.00    +0.000 HD
ENDROOT
BRANCH   1   6
ATOM      3  C   UNL     1      47.348   8.914  12.494  0.00  0.00    +0.000 A 
ATOM      4  N   UNL     1      46.040   8.860  12.873  0.00  0.00    +0.000 NA
ATOM      5  C   UNL     1      45.408   7.662  12.756  0.00  0.00    +0.000 A 
ATOM      6  C   UNL     1      45.983   6.488  12.260  0.00  0.00    +0.000 A 
ATOM      7  C   UNL     1      47.316   6.593  11.868  0.00  0.00    +0.000 A 
ATOM      8  C   UNL     1      48.005   7.806  11.961  0.00  0.00    +0.000 A 
ATOM      9 CL   UNL     1      49.647   7.844  11.431  0.00  0.00    +0.000 Cl
BRANCH   3  10
ATOM     10  C   UNL     1      48.040  10.245  12.697  0.00  0.00    +0.000 C 
BRANCH  10  11
ATOM     11  N   UNL     1      48.233  10.577  14.109  0.00  0.00    +0.000 NA
ATOM     12  H   UNL     1      47.361  10.954  14.475  0.00  0.00    +0.000 HD
ATOM     13  H   UNL     1      48.913  11.338  14.156  0.00  0.00    +0.000 HD
ENDBRANCH  10  11
ENDBRANCH   3  10
ENDBRANCH   1   6
BRANCH   1  14
ATOM     14  C   UNL     1      43.849   5.269  12.644  0.00  0.00    +0.000 C 
BRANCH  14  15
ATOM     15  C   UNL     1      42.993   5.036  11.389  0.00  0.00    +0.000 C 
BRANCH  15  16
ATOM     16  C   UNL     1      43.774   4.175  10.411  0.00  0.00    +0.000 A 
ATOM     17  N   UNL     1      43.761   2.837  10.578  0.00  0.00    +0.000 NA
ATOM     18  C   UNL     1      44.467   2.115   9.688  0.00  0.00    +0.000 A 
ATOM     19  C   UNL     1      45.185   2.670   8.656  0.00  0.00    +0.000 A 
ATOM     20  C   UNL     1      45.146   4.042   8.577  0.00  0.00    +0.000 A 
ATOM     21  N   UNL     1      44.451   4.819   9.432  0.00  0.00    +0.000 NA
ENDBRANCH  15  16
BRANCH  15  22
ATOM     22  O   UNL     1      42.658   6.318  10.810  0.00  0.00    +0.000 OA
ATOM     23  H   UNL     1      43.085   6.978  11.394  0.00  0.00    +0.000 HD
ENDBRANCH  15  22
ENDBRANCH  14  15
ENDBRANCH   1  14
TORSDOF 7
ENDMDL
MODEL 9
REMARK VINA RESULT:    -5.570      3.975      5.999
REMARK INTER + INTRA:          -8.481
REMARK INTER:                  -7.643
REMARK INTRA:                  -0.838
REMARK UNBOUND:                -0.957
REMARK  Name = 
REMARK  7 active torsions:
REMARK  status: ('A' for Active; 'I' for Inactive)
REMARK    1  A    between atoms: N_1  and  C_2
REMARK    2  A    between atoms: C_2  and  C_3
REMARK    3  A    between atoms: C_6  and  N_7
REMARK    4  A    between atoms: N_7  and  C_8
REMARK    5  A    between atoms: C_8  and  C_9
REMARK    6  A    between atoms: C_9  and  O_10
REMARK    7  A    between atoms: C_9  and  C_11
REMARK                            x       y       z     vdW  Elec       q    Type
REMARK                         _______ _______ _______ _____ _____    ______ ____
ROOT
ATOM      1  N   UNL     1      47.362   5.570  14.826  0.00  0.00    +0.000 N 
ATOM      2  H   UNL     1      47.784   4.852  15.420  0.00  0.00    +0.000 HD
ENDROOT
BRANCH   1   6
ATOM      3  C   UNL     1      44.855   3.826  11.970  0.00  0.00    +0.000 A 
ATOM      4  N   UNL     1      45.754   3.054  12.643  0.00  0.00    +0.000 NA
ATOM      5  C   UNL     1      46.570   3.681  13.531  0.00  0.00    +0.000 A 
ATOM      6  C   UNL     1      46.576   5.054  13.795  0.00  0.00    +0.000 A 
ATOM      7  C   UNL     1      45.653   5.808  13.073  0.00  0.00    +0.000 A 
ATOM      8  C   UNL     1      44.800   5.209  12.142  0.00  0.00    +0.000 A 
ATOM      9 CL   UNL     1      43.705   6.226  11.279  0.00  0.00    +0.000 Cl
BRANCH   3  10
ATOM     10  C   UNL     1      43.918   3.089  11.037  0.00  0.00    +0.000 C 
BRANCH  10  11
ATOM     11  N   UNL     1      43.041   2.150  11.737  0.00  0.00    +0.000 NA
ATOM     12  H   UNL     1      43.513   1.250  11.800  0.00  0.00    +0.000 HD
ATOM     13  H   UNL     1      42.220   1.998  11.146  0.00  0.00    +0.000 HD
ENDBRANCH  10  11
ENDBRANCH   3  10
ENDBRANCH   1   6
BRANCH   1  14
ATOM     14  C   UNL     1      48.277   6.694  14.573  0.00  0.00    +0.000 C 
BRANCH  14  15
ATOM     15  C   UNL     1      48.922   7.187  15.879  0.00  0.00    +0.000 C 
BRANCH  15  16
ATOM     16  C   UNL     1      48.969   6.038  16.872  0.00  0.00    +0.000 A 
ATOM     17  N   UNL     1      48.064   6.013  17.871  0.00  0.00    +0.000 NA
ATOM     18  C   UNL     1      48.145   4.976  18.727  0.00  0.00    +0.000 A 
ATOM     19  C   UNL     1      49.087   3.981  18.630  0.00  0.00    +0.000 A 
ATOM     20  C   UNL     1      49.972   4.102  17.585  0.00  0.00    +0.000 A 
ATOM     21  N   UNL     1      49.938   5.110  16.692  0.00  0.00    +0.000 NA
ENDBRANCH  15  16
BRANCH  15  22
ATOM     22  O   UNL     1      48.146   8.294  16.392  0.00  0.00    +0.000 OA
ATOM     23  H   UNL     1      48.695   8.677  17.107  0.00  0.00    +0.000 HD
ENDBRANCH  15  22
ENDBRANCH  14  15
ENDBRANCH   1  14
TORSDOF 7
ENDMDL
