MODEL 1
REMARK VINA RESULT:    -9.147      0.000      0.000
REMARK INTER + INTRA:         -14.119
REMARK INTER:                 -13.158
REMARK INTRA:                  -0.961
REMARK UNBOUND:                -0.961
REMARK  Name = 
REMARK  9 active torsions:
REMARK  status: ('A' for Active; 'I' for Inactive)
REMARK    1  A    between atoms: C_1  and  C_2
REMARK    2  A    between atoms: C_2  and  O_3
REMARK    3  A    between atoms: C_5  and  O_6
REMARK    4  A    between atoms: O_6  and  C_7
REMARK    5  A    between atoms: C_9  and  C_10
REMARK    6  A    between atoms: C_10  and  C_13
REMARK    7  A    between atoms: C_13  and  N_14
REMARK    8  A    between atoms: N_14  and  C_15
REMARK    9  A    between atoms: C_18  and  C_19
REMARK                            x       y       z     vdW  Elec       q    Type
REMARK                         _______ _______ _______ _____ _____    ______ ____
ROOT
ATOM      1  C   UNL     1      43.662   5.661  12.211  0.00  0.00    +0.000 C 
ATOM      2  F   UNL     1      42.869   5.496  13.312  0.00  0.00    +0.000 F 
ATOM      3  F   UNL     1      43.306   6.877  11.694  0.00  0.00    +0.000 F 
ENDROOT
BRANCH   1   6
ATOM      4  C   UNL     1      46.907   4.688  13.913  0.00  0.00    +0.000 A 
ATOM      5  C   UNL     1      45.557   4.756  13.603  0.00  0.00    +0.000 A 
ATOM      6  C   UNL     1      45.136   5.635  12.596  0.00  0.00    +0.000 A 
ATOM      7  C   UNL     1      46.119   6.425  11.980  0.00  0.00    +0.000 A 
ATOM      8  C   UNL     1      47.443   6.294  12.374  0.00  0.00    +0.000 A 
ATOM      9  N   UNL     1      47.860   5.435  13.320  0.00  0.00    +0.000 NA
BRANCH   4  10
ATOM     10  O   UNL     1      47.286   3.780  14.878  0.00  0.00    +0.000 OA
BRANCH  10  14
ATOM     11  C   UNL     1      49.329   3.592  18.866  0.00  0.00    +0.000 C 
ATOM     12  C   UNL     1      48.785   3.571  17.447  0.00  0.00    +0.000 C 
ATOM     13  C   UNL     1      48.306   4.947  16.913  0.00  0.00    +0.000 C 
ATOM     14  C   UNL     1      47.109   4.211  16.250  0.00  0.00    +0.000 C 
ATOM     15  C   UNL     1      47.313   3.097  17.308  0.00  0.00    +0.000 C 
BRANCH  12  16
ATOM     16  O   UNL     1      49.722   2.866  16.601  0.00  0.00    +0.000 OA
ATOM     17  H   UNL     1      50.473   3.472  16.485  0.00  0.00    +0.000 HD
ENDBRANCH  12  16
ENDBRANCH  10  14
ENDBRANCH   4  10
ENDBRANCH   1   6
BRANCH   1  18
ATOM     18  C   UNL     1      43.275   4.580  11.165  0.00  0.00    +0.000 C 
BRANCH  18  19
ATOM     19  N   UNL     1      43.761   4.811   9.792  0.00  0.00    +0.000 N 
ATOM     20  H   UNL     1      44.009   5.781   9.592  0.00  0.00    +0.000 HD
BRANCH  19  21
ATOM     21  C   UNL     1      44.632   3.875   9.224  0.00  0.00    +0.000 A 
ATOM     22  C   UNL     1      45.582   4.302   8.292  0.00  0.00    +0.000 A 
ATOM     23  C   UNL     1      46.414   3.382   7.647  0.00  0.00    +0.000 A 
ATOM     24  C   UNL     1      46.263   2.035   7.944  0.00  0.00    +0.000 A 
ATOM     25  N   UNL     1      45.335   1.558   8.815  0.00  0.00    +0.000 NA
ATOM     26  C   UNL     1      44.544   2.488   9.404  0.00  0.00    +0.000 A 
BRANCH  24  27
ATOM     27  C   UNL     1      47.146   1.018   7.290  0.00  0.00    +0.000 C 
ATOM     28  N   UNL     1      46.918  -0.282   7.659  0.00  0.00    +0.000 N 
ATOM     29  O   UNL     1      48.017   1.317   6.486  0.00  0.00    +0.000 OA
ATOM     30  H   UNL     1      46.189  -0.490   8.331  0.00  0.00    +0.000 HD
ATOM     31  H   UNL     1      47.481  -1.019   7.262  0.00  0.00    +0.000 HD
ENDBRANCH  24  27
ENDBRANCH  19  21
ENDBRANCH  18  19
ENDBRANCH   1  18
TORSDOF 8
ENDMDL
MODEL 2
REMARK VINA RESULT:    -8.490      2.339      3.583
REMARK INTER + INTRA:         -13.173
REMARK INTER:                 -12.020
REMARK INTRA:                  -1.154
REMARK UNBOUND:                -0.961
REMARK  Name = 
REMARK  9 active torsions:
REMARK  status: ('A' for Active; 'I' for Inactive)
REMARK    1  A    between atoms: C_1  and  C_2
REMARK    2  A    between atoms: C_2  and  O_3
REMARK    3  A    between atoms: C_5  and  O_6
REMARK    4  A    between atoms: O_6  and  C_7
REMARK    5  A    between atoms: C_9  and  C_10
REMARK    6  A    between atoms: C_10  and  C_13
REMARK    7  A    between atoms: C_13  and  N_14
REMARK    8  A    between atoms: N_14  and  C_15
REMARK    9  A    between atoms: C_18  and  C_19
REMARK                            x       y       z     vdW  Elec       q    Type
REMARK                         _______ _______ _______ _____ _____    ______ ____
ROOT
ATOM      1  C   UNL     1      43.596   5.353  12.303  0.00  0.00    +0.000 C 
ATOM      2  F   UNL     1      42.694   5.202  13.319  0.00  0.00    +0.000 F 
ATOM      3  F   UNL     1      43.484   6.661  11.918  0.00  0.00    +0.000 F 
ENDROOT
BRANCH   1   6
ATOM      4  C   UNL     1      47.148   5.815  13.547  0.00  0.00    +0.000 A 
ATOM      5  C   UNL     1      45.883   6.098  13.054  0.00  0.00    +0.000 A 
ATOM      6  C   UNL     1      45.008   5.038  12.782  0.00  0.00    +0.000 A 
ATOM      7  C   UNL     1      45.488   3.737  13.000  0.00  0.00    +0.000 A 
ATOM      8  C   UNL     1      46.777   3.559  13.480  0.00  0.00    +0.000 A 
ATOM      9  N   UNL     1      47.614   4.570  13.768  0.00  0.00    +0.000 NA
BRANCH   4  10
ATOM     10  O   UNL     1      47.962   6.887  13.843  0.00  0.00    +0.000 OA
BRANCH  10  14
ATOM     11  C   UNL     1      50.684   9.467  11.384  0.00  0.00    +0.000 C 
ATOM     12  C   UNL     1      49.912   8.500  12.267  0.00  0.00    +0.000 C 
ATOM     13  C   UNL     1      48.705   7.811  11.577  0.00  0.00    +0.000 C 
ATOM     14  C   UNL     1      47.916   7.989  12.904  0.00  0.00    +0.000 C 
ATOM     15  C   UNL     1      48.884   9.155  13.229  0.00  0.00    +0.000 C 
BRANCH  12  16
ATOM     16  O   UNL     1      50.852   7.609  12.912  0.00  0.00    +0.000 OA
ATOM     17  H   UNL     1      51.378   8.171  13.504  0.00  0.00    +0.000 HD
ENDBRANCH  12  16
ENDBRANCH  10  14
ENDBRANCH   4  10
ENDBRANCH   1   6
BRANCH   1  18
ATOM     18  C   UNL     1      43.137   4.475  11.107  0.00  0.00    +0.000 C 
BRANCH  18  19
ATOM     19  N   UNL     1      43.695   4.839   9.791  0.00  0.00    +0.000 N 
ATOM     20  H   UNL     1      43.931   5.828   9.694  0.00  0.00    +0.000 HD
BRANCH  19  21
ATOM     21  C   UNL     1      44.620   3.974   9.195  0.00  0.00    +0.000 A 
ATOM     22  C   UNL     1      45.542   4.486   8.278  0.00  0.00    +0.000 A 
ATOM     23  C   UNL     1      46.426   3.638   7.605  0.00  0.00    +0.000 A 
ATOM     24  C   UNL     1      46.356   2.276   7.861  0.00  0.00    +0.000 A 
ATOM     25  N   UNL     1      45.460   1.717   8.716  0.00  0.00    +0.000 NA
ATOM     26  C   UNL     1      44.615   2.579   9.332  0.00  0.00    +0.000 A 
BRANCH  24  27
ATOM     27  C   UNL     1      47.298   1.333   7.176  0.00  0.00    +0.000 C 
ATOM     28  N   UNL     1      48.326   1.925   6.492  0.00  0.00    +0.000 N 
ATOM     29  O   UNL     1      47.161   0.119   7.214  0.00  0.00    +0.000 OA
ATOM     30  H   UNL     1      48.404   2.935   6.481  0.00  0.00    +0.000 HD
ATOM     31  H   UNL     1      48.995   1.350   6.001  0.00  0.00    +0.000 HD
ENDBRANCH  24  27
ENDBRANCH  19  21
ENDBRANCH  18  19
ENDBRANCH   1  18
TORSDOF 8
ENDMDL
MODEL 3
REMARK VINA RESULT:    -7.988      2.073      2.357
REMARK INTER + INTRA:         -12.452
REMARK INTER:                 -11.786
REMARK INTRA:                  -0.666
REMARK UNBOUND:                -0.961
REMARK  Name = 
REMARK  9 active torsions:
REMARK  status: ('A' for Active; 'I' for Inactive)
REMARK    1  A    between atoms: C_1  and  C_2
REMARK    2  A    between atoms: C_2  and  O_3
REMARK    3  A    between atoms: C_5  and  O_6
REMARK    4  A    between atoms: O_6  and  C_7
REMARK    5  A    between atoms: C_9  and  C_10
REMARK    6  A    between atoms: C_10  and  C_13
REMARK    7  A    between atoms: C_13  and  N_14
REMARK    8  A    between atoms: N_14  and  C_15
REMARK    9  A    between atoms: C_18  and  C_19
REMARK                            x       y       z     vdW  Elec       q    Type
REMARK                         _______ _______ _______ _____ _____    ______ ____
ROOT
ATOM      1  C   UNL     1      44.237   4.140  12.572  0.00  0.00    +0.000 C 
ATOM      2  F   UNL     1      45.026   3.024  12.513  0.00  0.00    +0.000 F 
ATOM      3  F   UNL     1      43.402   3.931  13.635  0.00  0.00    +0.000 F 
ENDROOT
BRANCH   1   6
ATOM      4  C   UNL     1      47.164   6.388  13.442  0.00  0.00    +0.000 A 
ATOM      5  C   UNL     1      46.370   5.258  13.314  0.00  0.00    +0.000 A 
ATOM      6  C   UNL     1      45.084   5.391  12.772  0.00  0.00    +0.000 A 
ATOM      7  C   UNL     1      44.665   6.683  12.419  0.00  0.00    +0.000 A 
ATOM      8  C   UNL     1      45.531   7.752  12.602  0.00  0.00    +0.000 A 
ATOM      9  N   UNL     1      46.774   7.631  13.096  0.00  0.00    +0.000 NA
BRANCH   4  10
ATOM     10  O   UNL     1      48.437   6.209  13.937  0.00  0.00    +0.000 OA
BRANCH  10  14
ATOM     11  C   UNL     1      50.710   7.086  17.702  0.00  0.00    +0.000 C 
ATOM     12  C   UNL     1      49.960   6.611  16.468  0.00  0.00    +0.000 C 
ATOM     13  C   UNL     1      50.467   7.210  15.129  0.00  0.00    +0.000 C 
ATOM     14  C   UNL     1      48.983   7.325  14.683  0.00  0.00    +0.000 C 
ATOM     15  C   UNL     1      48.616   7.336  16.188  0.00  0.00    +0.000 C 
BRANCH  12  16
ATOM     16  O   UNL     1      49.865   5.169  16.509  0.00  0.00    +0.000 OA
ATOM     17  H   UNL     1      49.119   4.941  15.929  0.00  0.00    +0.000 HD
ENDBRANCH  12  16
ENDBRANCH  10  14
ENDBRANCH   4  10
ENDBRANCH   1   6
BRANCH   1  18
ATOM     18  C   UNL     1      43.359   4.184  11.292  0.00  0.00    +0.000 C 
BRANCH  18  19
ATOM     19  N   UNL     1      43.985   4.793  10.103  0.00  0.00    +0.000 N 
ATOM     20  H   UNL     1      44.289   5.758  10.237  0.00  0.00    +0.000 HD
BRANCH  19  21
ATOM     21  C   UNL     1      44.871   4.019   9.345  0.00  0.00    +0.000 A 
ATOM     22  C   UNL     1      45.719   4.650   8.430  0.00  0.00    +0.000 A 
ATOM     23  C   UNL     1      46.559   3.902   7.601  0.00  0.00    +0.000 A 
ATOM     24  C   UNL     1      46.519   2.518   7.698  0.00  0.00    +0.000 A 
ATOM     25  N   UNL     1      45.692   1.848   8.543  0.00  0.00    +0.000 NA
ATOM     26  C   UNL     1      44.888   2.618   9.316  0.00  0.00    +0.000 A 
BRANCH  24  27
ATOM     27  C   UNL     1      47.416   1.679   6.841  0.00  0.00    +0.000 C 
ATOM     28  N   UNL     1      48.503   2.327   6.318  0.00  0.00    +0.000 N 
ATOM     29  O   UNL     1      47.196   0.498   6.613  0.00  0.00    +0.000 OA
ATOM     30  H   UNL     1      48.649   3.307   6.527  0.00  0.00    +0.000 HD
ATOM     31  H   UNL     1      49.147   1.823   5.725  0.00  0.00    +0.000 HD
ENDBRANCH  24  27
ENDBRANCH  19  21
ENDBRANCH  18  19
ENDBRANCH   1  18
TORSDOF 8
ENDMDL
MODEL 4
REMARK VINA RESULT:    -7.526      1.677      2.192
REMARK INTER + INTRA:         -11.786
REMARK INTER:                 -10.824
REMARK INTRA:                  -0.962
REMARK UNBOUND:                -0.961
REMARK  Name = 
REMARK  9 active torsions:
REMARK  status: ('A' for Active; 'I' for Inactive)
REMARK    1  A    between atoms: C_1  and  C_2
REMARK    2  A    between atoms: C_2  and  O_3
REMARK    3  A    between atoms: C_5  and  O_6
REMARK    4  A    between atoms: O_6  and  C_7
REMARK    5  A    between atoms: C_9  and  C_10
REMARK    6  A    between atoms: C_10  and  C_13
REMARK    7  A    between atoms: C_13  and  N_14
REMARK    8  A    between atoms: N_14  and  C_15
REMARK    9  A    between atoms: C_18  and  C_19
REMARK                            x       y       z     vdW  Elec       q    Type
REMARK                         _______ _______ _______ _____ _____    ______ ____
ROOT
ATOM      1  C   UNL     1      44.763   6.183  12.572  0.00  0.00    +0.000 C 
ATOM      2  F   UNL     1      43.474   5.891  12.921  0.00  0.00    +0.000 F 
ATOM      3  F   UNL     1      44.979   7.453  13.032  0.00  0.00    +0.000 F 
ENDROOT
BRANCH   1   6
ATOM      4  C   UNL     1      47.496   4.754  14.778  0.00  0.00    +0.000 A 
ATOM      5  C   UNL     1      46.653   5.662  14.155  0.00  0.00    +0.000 A 
ATOM      6  C   UNL     1      45.733   5.194  13.207  0.00  0.00    +0.000 A 
ATOM      7  C   UNL     1      45.748   3.820  12.921  0.00  0.00    +0.000 A 
ATOM      8  C   UNL     1      46.643   2.996  13.588  0.00  0.00    +0.000 A 
ATOM      9  N   UNL     1      47.511   3.431  14.518  0.00  0.00    +0.000 NA
BRANCH   4  10
ATOM     10  O   UNL     1      48.355   5.247  15.736  0.00  0.00    +0.000 OA
BRANCH  10  14
ATOM     11  C   UNL     1      47.598   5.990  20.093  0.00  0.00    +0.000 C 
ATOM     12  C   UNL     1      47.806   5.913  18.590  0.00  0.00    +0.000 C 
ATOM     13  C   UNL     1      47.081   4.731  17.893  0.00  0.00    +0.000 C 
ATOM     14  C   UNL     1      48.344   4.551  17.007  0.00  0.00    +0.000 C 
ATOM     15  C   UNL     1      49.138   5.256  18.136  0.00  0.00    +0.000 C 
BRANCH  12  16
ATOM     16  O   UNL     1      47.557   7.219  18.019  0.00  0.00    +0.000 OA
ATOM     17  H   UNL     1      46.662   7.462  18.307  0.00  0.00    +0.000 HD
ENDBRANCH  12  16
ENDBRANCH  10  14
ENDBRANCH   4  10
ENDBRANCH   1   6
BRANCH   1  18
ATOM     18  C   UNL     1      44.850   6.229  11.022  0.00  0.00    +0.000 C 
BRANCH  18  19
ATOM     19  N   UNL     1      44.038   5.229  10.303  0.00  0.00    +0.000 N 
ATOM     20  H   UNL     1      43.181   5.602   9.892  0.00  0.00    +0.000 HD
BRANCH  19  21
ATOM     21  C   UNL     1      44.692   4.290   9.497  0.00  0.00    +0.000 A 
ATOM     22  C   UNL     1      44.478   2.928   9.724  0.00  0.00    +0.000 A 
ATOM     23  C   UNL     1      45.176   1.964   8.991  0.00  0.00    +0.000 A 
ATOM     24  C   UNL     1      46.095   2.393   8.044  0.00  0.00    +0.000 A 
ATOM     25  N   UNL     1      46.369   3.702   7.803  0.00  0.00    +0.000 NA
ATOM     26  C   UNL     1      45.677   4.597   8.549  0.00  0.00    +0.000 A 
BRANCH  24  27
ATOM     27  C   UNL     1      46.850   1.393   7.223  0.00  0.00    +0.000 C 
ATOM     28  N   UNL     1      46.769   0.096   7.656  0.00  0.00    +0.000 N 
ATOM     29  O   UNL     1      47.502   1.705   6.237  0.00  0.00    +0.000 OA
ATOM     30  H   UNL     1      46.221  -0.122   8.480  0.00  0.00    +0.000 HD
ATOM     31  H   UNL     1      47.260  -0.629   7.154  0.00  0.00    +0.000 HD
ENDBRANCH  24  27
ENDBRANCH  19  21
ENDBRANCH  18  19
ENDBRANCH   1  18
TORSDOF 8
ENDMDL
MODEL 5
REMARK VINA RESULT:    -7.224      3.416      4.276
REMARK INTER + INTRA:         -11.353
REMARK INTER:                 -10.705
REMARK INTRA:                  -0.648
REMARK UNBOUND:                -0.961
REMARK  Name = 
REMARK  9 active torsions:
REMARK  status: ('A' for Active; 'I' for Inactive)
REMARK    1  A    between atoms: C_1  and  C_2
REMARK    2  A    between atoms: C_2  and  O_3
REMARK    3  A    between atoms: C_5  and  O_6
REMARK    4  A    between atoms: O_6  and  C_7
REMARK    5  A    between atoms: C_9  and  C_10
REMARK    6  A    between atoms: C_10  and  C_13
REMARK    7  A    between atoms: C_13  and  N_14
REMARK    8  A    between atoms: N_14  and  C_15
REMARK    9  A    between atoms: C_18  and  C_19
REMARK                            x       y       z     vdW  Elec       q    Type
REMARK                         _______ _______ _______ _____ _____    ______ ____
ROOT
ATOM      1  C   UNL     1      45.176   5.508  11.889  0.00  0.00    +0.000 C 
ATOM      2  F   UNL     1      46.203   4.965  11.168  0.00  0.00    +0.000 F 
ATOM      3  F   UNL     1      45.225   4.883  13.106  0.00  0.00    +0.000 F 
ENDROOT
BRANCH   1   6
ATOM      4  C   UNL     1      46.643   8.869  12.853  0.00  0.00    +0.000 A 
ATOM      5  C   UNL     1      46.446   7.498  12.769  0.00  0.00    +0.000 A 
ATOM      6  C   UNL     1      45.354   7.014  12.035  0.00  0.00    +0.000 A 
ATOM      7  C   UNL     1      44.501   7.963  11.451  0.00  0.00    +0.000 A 
ATOM      8  C   UNL     1      44.776   9.313  11.607  0.00  0.00    +0.000 A 
ATOM      9  N   UNL     1      45.835   9.787  12.287  0.00  0.00    +0.000 NA
BRANCH   4  10
ATOM     10  O   UNL     1      47.752   9.304  13.546  0.00  0.00    +0.000 OA
BRANCH  10  14
ATOM     11  C   UNL     1      51.621   8.319  11.506  0.00  0.00    +0.000 C 
ATOM     12  C   UNL     1      50.300   8.474  12.240  0.00  0.00    +0.000 C 
ATOM     13  C   UNL     1      49.189   9.200  11.434  0.00  0.00    +0.000 C 
ATOM     14  C   UNL     1      48.788   9.926  12.747  0.00  0.00    +0.000 C 
ATOM     15  C   UNL     1      50.232   9.659  13.241  0.00  0.00    +0.000 C 
BRANCH  12  16
ATOM     16  O   UNL     1      49.926   7.194  12.800  0.00  0.00    +0.000 OA
ATOM     17  H   UNL     1      49.330   7.399  13.540  0.00  0.00    +0.000 HD
ENDBRANCH  12  16
ENDBRANCH  10  14
ENDBRANCH   4  10
ENDBRANCH   1   6
BRANCH   1  18
ATOM     18  C   UNL     1      43.838   5.104  11.213  0.00  0.00    +0.000 C 
BRANCH  18  19
ATOM     19  N   UNL     1      43.850   5.067   9.738  0.00  0.00    +0.000 N 
ATOM     20  H   UNL     1      43.917   5.984   9.295  0.00  0.00    +0.000 HD
BRANCH  19  21
ATOM     21  C   UNL     1      44.600   4.072   9.100  0.00  0.00    +0.000 A 
ATOM     22  C   UNL     1      44.428   2.738   9.478  0.00  0.00    +0.000 A 
ATOM     23  C   UNL     1      45.217   1.730   8.918  0.00  0.00    +0.000 A 
ATOM     24  C   UNL     1      46.185   2.088   7.991  0.00  0.00    +0.000 A 
ATOM     25  N   UNL     1      46.421   3.371   7.610  0.00  0.00    +0.000 NA
ATOM     26  C   UNL     1      45.640   4.313   8.191  0.00  0.00    +0.000 A 
BRANCH  24  27
ATOM     27  C   UNL     1      47.040   1.037   7.352  0.00  0.00    +0.000 C 
ATOM     28  N   UNL     1      46.687  -0.257   7.632  0.00  0.00    +0.000 N 
ATOM     29  O   UNL     1      47.994   1.306   6.636  0.00  0.00    +0.000 OA
ATOM     30  H   UNL     1      45.892  -0.439   8.233  0.00  0.00    +0.000 HD
ATOM     31  H   UNL     1      47.225  -1.016   7.241  0.00  0.00    +0.000 HD
ENDBRANCH  24  27
ENDBRANCH  19  21
ENDBRANCH  18  19
ENDBRANCH   1  18
TORSDOF 8
ENDMDL
MODEL 6
REMARK VINA RESULT:    -7.125      3.048      3.970
REMARK INTER + INTRA:         -11.210
REMARK INTER:                 -10.767
REMARK INTRA:                  -0.443
REMARK UNBOUND:                -0.961
REMARK  Name = 
REMARK  9 active torsions:
REMARK  status: ('A' for Active; 'I' for Inactive)
REMARK    1  A    between atoms: C_1  and  C_2
REMARK    2  A    between atoms: C_2  and  O_3
REMARK    3  A    between atoms: C_5  and  O_6
REMARK    4  A    between atoms: O_6  and  C_7
REMARK    5  A    between atoms: C_9  and  C_10
REMARK    6  A    between atoms: C_10  and  C_13
REMARK    7  A    between atoms: C_13  and  N_14
REMARK    8  A    between atoms: N_14  and  C_15
REMARK    9  A    between atoms: C_18  and  C_19
REMARK                            x       y       z     vdW  Elec       q    Type
REMARK                         _______ _______ _______ _____ _____    ______ ____
ROOT
ATOM      1  C   UNL     1      44.366   3.915  12.496  0.00  0.00    +0.000 C 
ATOM      2  F   UNL     1      45.460   3.096  12.444  0.00  0.00    +0.000 F 
ATOM      3  F   UNL     1      43.792   3.666  13.713  0.00  0.00    +0.000 F 
ENDROOT
BRANCH   1   6
ATOM      4  C   UNL     1      46.371   7.117  12.822  0.00  0.00    +0.000 A 
ATOM      5  C   UNL     1      45.964   5.801  12.986  0.00  0.00    +0.000 A 
ATOM      6  C   UNL     1      44.779   5.377  12.370  0.00  0.00    +0.000 A 
ATOM      7  C   UNL     1      44.054   6.334  11.642  0.00  0.00    +0.000 A 
ATOM      8  C   UNL     1      44.539   7.630  11.552  0.00  0.00    +0.000 A 
ATOM      9  N   UNL     1      45.687   8.040  12.117  0.00  0.00    +0.000 NA
BRANCH   4  10
ATOM     10  O   UNL     1      47.564   7.484  13.407  0.00  0.00    +0.000 OA
BRANCH  10  14
ATOM     11  C   UNL     1      51.139   9.925  12.239  0.00  0.00    +0.000 C 
ATOM     12  C   UNL     1      49.889   9.232  12.754  0.00  0.00    +0.000 C 
ATOM     13  C   UNL     1      50.098   7.760  13.200  0.00  0.00    +0.000 C 
ATOM     14  C   UNL     1      48.729   7.426  12.547  0.00  0.00    +0.000 C 
ATOM     15  C   UNL     1      48.938   8.679  11.659  0.00  0.00    +0.000 C 
BRANCH  12  16
ATOM     16  O   UNL     1      49.248  10.091  13.725  0.00  0.00    +0.000 OA
ATOM     17  H   UNL     1      48.324   9.794  13.765  0.00  0.00    +0.000 HD
ENDBRANCH  12  16
ENDBRANCH  10  14
ENDBRANCH   4  10
ENDBRANCH   1   6
BRANCH   1  18
ATOM     18  C   UNL     1      43.361   3.458  11.405  0.00  0.00    +0.000 C 
BRANCH  18  19
ATOM     19  N   UNL     1      43.582   4.011  10.055  0.00  0.00    +0.000 N 
ATOM     20  H   UNL     1      43.480   5.025   9.996  0.00  0.00    +0.000 HD
BRANCH  19  21
ATOM     21  C   UNL     1      44.635   3.501   9.287  0.00  0.00    +0.000 A 
ATOM     22  C   UNL     1      45.348   4.361   8.448  0.00  0.00    +0.000 A 
ATOM     23  C   UNL     1      46.352   3.870   7.609  0.00  0.00    +0.000 A 
ATOM     24  C   UNL     1      46.613   2.508   7.621  0.00  0.00    +0.000 A 
ATOM     25  N   UNL     1      45.931   1.619   8.390  0.00  0.00    +0.000 NA
ATOM     26  C   UNL     1      44.957   2.142   9.175  0.00  0.00    +0.000 A 
BRANCH  24  27
ATOM     27  C   UNL     1      47.693   1.942   6.751  0.00  0.00    +0.000 C 
ATOM     28  N   UNL     1      48.666   2.829   6.372  0.00  0.00    +0.000 N 
ATOM     29  O   UNL     1      47.710   0.773   6.394  0.00  0.00    +0.000 OA
ATOM     30  H   UNL     1      48.616   3.791   6.685  0.00  0.00    +0.000 HD
ATOM     31  H   UNL     1      49.422   2.517   5.779  0.00  0.00    +0.000 HD
ENDBRANCH  24  27
ENDBRANCH  19  21
ENDBRANCH  18  19
ENDBRANCH   1  18
TORSDOF 8
ENDMDL
MODEL 7
REMARK VINA RESULT:    -7.005      2.307      7.617
REMARK INTER + INTRA:         -11.037
REMARK INTER:                 -10.523
REMARK INTRA:                  -0.514
REMARK UNBOUND:                -0.961
REMARK  Name = 
REMARK  9 active torsions:
REMARK  status: ('A' for Active; 'I' for Inactive)
REMARK    1  A    between atoms: C_1  and  C_2
REMARK    2  A    between atoms: C_2  and  O_3
REMARK    3  A    between atoms: C_5  and  O_6
REMARK    4  A    between atoms: O_6  and  C_7
REMARK    5  A    between atoms: C_9  and  C_10
REMARK    6  A    between atoms: C_10  and  C_13
REMARK    7  A    between atoms: C_13  and  N_14
REMARK    8  A    between atoms: N_14  and  C_15
REMARK    9  A    between atoms: C_18  and  C_19
REMARK                            x       y       z     vdW  Elec       q    Type
REMARK                         _______ _______ _______ _____ _____    ______ ____
ROOT
ATOM      1  C   UNL     1      45.880   7.509  12.248  0.00  0.00    +0.000 C 
ATOM      2  F   UNL     1      45.514   8.556  11.449  0.00  0.00    +0.000 F 
ATOM      3  F   UNL     1      45.753   7.977  13.528  0.00  0.00    +0.000 F 
ENDROOT
BRANCH   1   6
ATOM      4  C   UNL     1      44.499   4.300  10.774  0.00  0.00    +0.000 A 
ATOM      5  C   UNL     1      45.283   5.430  10.957  0.00  0.00    +0.000 A 
ATOM      6  C   UNL     1      44.979   6.304  12.009  0.00  0.00    +0.000 A 
ATOM      7  C   UNL     1      43.864   5.991  12.803  0.00  0.00    +0.000 A 
ATOM      8  C   UNL     1      43.134   4.844  12.528  0.00  0.00    +0.000 A 
ATOM      9  N   UNL     1      43.433   3.986  11.537  0.00  0.00    +0.000 NA
BRANCH   4  10
ATOM     10  O   UNL     1      44.857   3.443   9.756  0.00  0.00    +0.000 OA
BRANCH  10  14
ATOM     11  C   UNL     1      46.847   2.819   5.786  0.00  0.00    +0.000 C 
ATOM     12  C   UNL     1      46.251   2.873   7.184  0.00  0.00    +0.000 C 
ATOM     13  C   UNL     1      44.715   3.082   7.228  0.00  0.00    +0.000 C 
ATOM     14  C   UNL     1      44.935   4.035   8.436  0.00  0.00    +0.000 C 
ATOM     15  C   UNL     1      46.376   4.242   7.906  0.00  0.00    +0.000 C 
BRANCH  12  16
ATOM     16  O   UNL     1      46.749   1.748   7.944  0.00  0.00    +0.000 OA
ATOM     17  H   UNL     1      47.165   1.159   7.294  0.00  0.00    +0.000 HD
ENDBRANCH  12  16
ENDBRANCH  10  14
ENDBRANCH   4  10
ENDBRANCH   1   6
BRANCH   1  18
ATOM     18  C   UNL     1      47.386   7.215  12.008  0.00  0.00    +0.000 C 
BRANCH  18  19
ATOM     19  N   UNL     1      48.249   7.264  13.204  0.00  0.00    +0.000 N 
ATOM     20  H   UNL     1      48.456   8.208  13.533  0.00  0.00    +0.000 HD
BRANCH  19  21
ATOM     21  C   UNL     1      48.020   6.342  14.231  0.00  0.00    +0.000 A 
ATOM     22  C   UNL     1      48.588   6.566  15.489  0.00  0.00    +0.000 A 
ATOM     23  C   UNL     1      48.446   5.626  16.514  0.00  0.00    +0.000 A 
ATOM     24  C   UNL     1      47.740   4.462  16.247  0.00  0.00    +0.000 A 
ATOM     25  N   UNL     1      47.195   4.174  15.036  0.00  0.00    +0.000 NA
ATOM     26  C   UNL     1      47.372   5.110  14.072  0.00  0.00    +0.000 A 
BRANCH  24  27
ATOM     27  C   UNL     1      47.548   3.436  17.323  0.00  0.00    +0.000 C 
ATOM     28  N   UNL     1      48.626   3.239  18.145  0.00  0.00    +0.000 N 
ATOM     29  O   UNL     1      46.507   2.810  17.460  0.00  0.00    +0.000 OA
ATOM     30  H   UNL     1      49.473   3.775  17.997  0.00  0.00    +0.000 HD
ATOM     31  H   UNL     1      48.569   2.558  18.887  0.00  0.00    +0.000 HD
ENDBRANCH  24  27
ENDBRANCH  19  21
ENDBRANCH  18  19
ENDBRANCH   1  18
TORSDOF 8
ENDMDL
MODEL 8
REMARK VINA RESULT:    -6.949      2.615      8.375
REMARK INTER + INTRA:         -10.956
REMARK INTER:                 -10.337
REMARK INTRA:                  -0.619
REMARK UNBOUND:                -0.961
REMARK  Name = 
REMARK  9 active torsions:
REMARK  status: ('A' for Active; 'I' for Inactive)
REMARK    1  A    between atoms: C_1  and  C_2
REMARK    2  A    between atoms: C_2  and  O_3
REMARK    3  A    between atoms: C_5  and  O_6
REMARK    4  A    between atoms: O_6  and  C_7
REMARK    5  A    between atoms: C_9  and  C_10
REMARK    6  A    between atoms: C_10  and  C_13
REMARK    7  A    between atoms: C_13  and  N_14
REMARK    8  A    between atoms: N_14  and  C_15
REMARK    9  A    between atoms: C_18  and  C_19
REMARK                            x       y       z     vdW  Elec       q    Type
REMARK                         _______ _______ _______ _____ _____    ______ ____
ROOT
ATOM      1  C   UNL     1      46.353   6.345  12.500  0.00  0.00    +0.000 C 
ATOM      2  F   UNL     1      47.004   7.047  11.523  0.00  0.00    +0.000 F 
ATOM      3  F   UNL     1      45.820   7.296  13.327  0.00  0.00    +0.000 F 
ENDROOT
BRANCH   1   6
ATOM      4  C   UNL     1      44.282   4.429   9.967  0.00  0.00    +0.000 A 
ATOM      5  C   UNL     1      45.234   5.278  10.510  0.00  0.00    +0.000 A 
ATOM      6  C   UNL     1      45.265   5.463  11.899  0.00  0.00    +0.000 A 
ATOM      7  C   UNL     1      44.296   4.791  12.659  0.00  0.00    +0.000 A 
ATOM      8  C   UNL     1      43.375   3.975  12.018  0.00  0.00    +0.000 A 
ATOM      9  N   UNL     1      43.353   3.771  10.690  0.00  0.00    +0.000 NA
BRANCH   4  10
ATOM     10  O   UNL     1      44.312   4.239   8.603  0.00  0.00    +0.000 OA
BRANCH  10  14
ATOM     11  C   UNL     1      47.820   2.246   6.646  0.00  0.00    +0.000 C 
ATOM     12  C   UNL     1      46.731   3.076   7.306  0.00  0.00    +0.000 C 
ATOM     13  C   UNL     1      46.167   2.480   8.623  0.00  0.00    +0.000 C 
ATOM     14  C   UNL     1      44.756   2.933   8.160  0.00  0.00    +0.000 C 
ATOM     15  C   UNL     1      45.307   2.896   6.712  0.00  0.00    +0.000 C 
BRANCH  12  16
ATOM     16  O   UNL     1      47.177   4.449   7.385  0.00  0.00    +0.000 OA
ATOM     17  H   UNL     1      46.414   4.986   7.110  0.00  0.00    +0.000 HD
ENDBRANCH  12  16
ENDBRANCH  10  14
ENDBRANCH   4  10
ENDBRANCH   1   6
BRANCH   1  18
ATOM     18  C   UNL     1      47.410   5.556  13.319  0.00  0.00    +0.000 C 
BRANCH  18  19
ATOM     19  N   UNL     1      46.874   4.605  14.311  0.00  0.00    +0.000 N 
ATOM     20  H   UNL     1      46.746   3.656  13.957  0.00  0.00    +0.000 HD
BRANCH  19  21
ATOM     21  C   UNL     1      47.362   4.660  15.622  0.00  0.00    +0.000 A 
ATOM     22  C   UNL     1      48.244   5.683  15.980  0.00  0.00    +0.000 A 
ATOM     23  C   UNL     1      48.813   5.722  17.256  0.00  0.00    +0.000 A 
ATOM     24  C   UNL     1      48.490   4.713  18.152  0.00  0.00    +0.000 A 
ATOM     25  N   UNL     1      47.666   3.676  17.851  0.00  0.00    +0.000 NA
ATOM     26  C   UNL     1      47.151   3.675  16.597  0.00  0.00    +0.000 A 
BRANCH  24  27
ATOM     27  C   UNL     1      49.062   4.727  19.537  0.00  0.00    +0.000 C 
ATOM     28  N   UNL     1      48.576   3.764  20.382  0.00  0.00    +0.000 N 
ATOM     29  O   UNL     1      49.898   5.541  19.898  0.00  0.00    +0.000 OA
ATOM     30  H   UNL     1      47.880   3.109  20.046  0.00  0.00    +0.000 HD
ATOM     31  H   UNL     1      48.913   3.719  21.333  0.00  0.00    +0.000 HD
ENDBRANCH  24  27
ENDBRANCH  19  21
ENDBRANCH  18  19
ENDBRANCH   1  18
TORSDOF 8
ENDMDL
MODEL 9
REMARK VINA RESULT:    -6.683      3.288      4.733
REMARK INTER + INTRA:         -10.574
REMARK INTER:                  -9.049
REMARK INTRA:                  -1.525
REMARK UNBOUND:                -0.961
REMARK  Name = 
REMARK  9 active torsions:
REMARK  status: ('A' for Active; 'I' for Inactive)
REMARK    1  A    between atoms: C_1  and  C_2
REMARK    2  A    between atoms: C_2  and  O_3
REMARK    3  A    between atoms: C_5  and  O_6
REMARK    4  A    between atoms: O_6  and  C_7
REMARK    5  A    between atoms: C_9  and  C_10
REMARK    6  A    between atoms: C_10  and  C_13
REMARK    7  A    between atoms: C_13  and  N_14
REMARK    8  A    between atoms: N_14  and  C_15
REMARK    9  A    between atoms: C_18  and  C_19
REMARK                            x       y       z     vdW  Elec       q    Type
REMARK                         _______ _______ _______ _____ _____    ______ ____
ROOT
ATOM      1  C   UNL     1      48.330   8.529  12.247  0.00  0.00    +0.000 C 
ATOM      2  F   UNL     1      49.050   9.436  11.519  0.00  0.00    +0.000 F 
ATOM      3  F   UNL     1      48.468   7.344  11.577  0.00  0.00    +0.000 F 
ENDROOT
BRANCH   1   6
ATOM      4  C   UNL     1      49.716   7.065  15.459  0.00  0.00    +0.000 A 
ATOM      5  C   UNL     1      49.168   7.158  14.188  0.00  0.00    +0.000 A 
ATOM      6  C   UNL     1      48.871   8.425  13.668  0.00  0.00    +0.000 A 
ATOM      7  C   UNL     1      49.120   9.533  14.493  0.00  0.00    +0.000 A 
ATOM      8  C   UNL     1      49.656   9.333  15.757  0.00  0.00    +0.000 A 
ATOM      9  N   UNL     1      49.969   8.124  16.254  0.00  0.00    +0.000 NA
BRANCH   4  10
ATOM     10  O   UNL     1      50.035   5.805  15.916  0.00  0.00    +0.000 OA
BRANCH  10  14
ATOM     11  C   UNL     1      47.223   2.820  17.729  0.00  0.00    +0.000 C 
ATOM     12  C   UNL     1      48.152   3.741  16.957  0.00  0.00    +0.000 C 
ATOM     13  C   UNL     1      49.551   3.940  17.598  0.00  0.00    +0.000 C 
ATOM     14  C   UNL     1      49.462   5.437  17.195  0.00  0.00    +0.000 C 
ATOM     15  C   UNL     1      47.923   5.260  17.185  0.00  0.00    +0.000 C 
BRANCH  12  16
ATOM     16  O   UNL     1      48.156   3.339  15.567  0.00  0.00    +0.000 OA
ATOM     17  H   UNL     1      47.347   3.719  15.185  0.00  0.00    +0.000 HD
ENDBRANCH  12  16
ENDBRANCH  10  14
ENDBRANCH   4  10
ENDBRANCH   1   6
BRANCH   1  18
ATOM     18  C   UNL     1      46.831   8.929  12.182  0.00  0.00    +0.000 C 
BRANCH  18  19
ATOM     19  N   UNL     1      45.939   8.236  13.130  0.00  0.00    +0.000 N 
ATOM     20  H   UNL     1      45.276   8.848  13.606  0.00  0.00    +0.000 HD
BRANCH  19  21
ATOM     21  C   UNL     1      45.403   6.997  12.759  0.00  0.00    +0.000 A 
ATOM     22  C   UNL     1      45.914   5.831  13.336  0.00  0.00    +0.000 A 
ATOM     23  C   UNL     1      45.457   4.574  12.930  0.00  0.00    +0.000 A 
ATOM     24  C   UNL     1      44.494   4.514  11.933  0.00  0.00    +0.000 A 
ATOM     25  N   UNL     1      43.984   5.610  11.313  0.00  0.00    +0.000 NA
ATOM     26  C   UNL     1      44.470   6.804  11.731  0.00  0.00    +0.000 A 
BRANCH  24  27
ATOM     27  C   UNL     1      43.962   3.188  11.481  0.00  0.00    +0.000 C 
ATOM     28  N   UNL     1      43.745   2.272  12.477  0.00  0.00    +0.000 N 
ATOM     29  O   UNL     1      43.741   2.929  10.307  0.00  0.00    +0.000 OA
ATOM     30  H   UNL     1      43.944   2.523  13.439  0.00  0.00    +0.000 HD
ATOM     31  H   UNL     1      43.394   1.355  12.244  0.00  0.00    +0.000 HD
ENDBRANCH  24  27
ENDBRANCH  19  21
ENDBRANCH  18  19
ENDBRANCH   1  18
TORSDOF 8
ENDMDL
