MODEL 1
REMARK VINA RESULT:    -7.203      0.000      0.000
REMARK INTER + INTRA:          -9.640
REMARK INTER:                  -9.098
REMARK INTRA:                  -0.542
REMARK UNBOUND:                -0.542
REMARK  Name = 
REMARK  5 active torsions:
REMARK  status: ('A' for Active; 'I' for Inactive)
REMARK    1  A    between atoms: N_1  and  C_2
REMARK    2  A    between atoms: C_2  and  C_3
REMARK    3  A    between atoms: C_3  and  C_4
REMARK    4  A    between atoms: C_8  and  C_9
REMARK    5  A    between atoms: C_9  and  N_10
REMARK                            x       y       z     vdW  Elec       q    Type
REMARK                         _______ _______ _______ _____ _____    ______ ____
ROOT
ATOM      1  C   UNL     1      46.442   6.520  12.883  0.00  0.00    +0.000 A 
ATOM      2  C   UNL     1      46.562   7.897  12.740  0.00  0.00    +0.000 A 
ATOM      3  C   UNL     1      45.594   8.580  12.031  0.00  0.00    +0.000 A 
ATOM      4  C   UNL     1      44.528   7.872  11.464  0.00  0.00    +0.000 A 
ATOM      5  C   UNL     1      44.507   6.479  11.567  0.00  0.00    +0.000 A 
ATOM      6  N   UNL     1      45.445   5.810  12.284  0.00  0.00    +0.000 NA
ENDROOT
BRANCH   1   7
ATOM      7  C   UNL     1      47.430   5.767  13.731  0.00  0.00    +0.000 C 
BRANCH   7   8
ATOM      8  C   UNL     1      46.762   4.609  14.472  0.00  0.00    +0.000 C 
BRANCH   8   9
ATOM      9  N   UNL     1      47.152   3.322  13.893  0.00  0.00    +0.000 NA
ATOM     10  H   UNL     1      47.870   2.896  14.479  0.00  0.00    +0.000 HD
ATOM     11  H   UNL     1      47.587   3.476  12.984  0.00  0.00    +0.000 HD
ENDBRANCH   8   9
ENDBRANCH   7   8
ENDBRANCH   1   7
BRANCH   5  12
ATOM     12  C   UNL     1      43.443   5.633  10.902  0.00  0.00    +0.000 C 
BRANCH  12  13
ATOM     13  N   UNL     1      43.901   4.282  10.577  0.00  0.00    +0.000 N 
ATOM     14  N   UNL     1      43.362   3.230  11.245  0.00  0.00    +0.000 NA
ATOM     15  C   UNL     1      43.878   2.166  10.625  0.00  0.00    +0.000 A 
ATOM     16  C   UNL     1      44.766   2.512   9.586  0.00  0.00    +0.000 A 
ATOM     17  C   UNL     1      45.511   1.815   8.622  0.00  0.00    +0.000 A 
ATOM     18  C   UNL     1      46.258   2.553   7.703  0.00  0.00    +0.000 A 
ATOM     19  F   UNL     1      46.935   1.905   6.746  0.00  0.00    +0.000 F 
ATOM     20  C   UNL     1      46.305   3.942   7.744  0.00  0.00    +0.000 A 
ATOM     21  C   UNL     1      45.592   4.652   8.713  0.00  0.00    +0.000 A 
ATOM     22  C   UNL     1      44.805   3.909   9.608  0.00  0.00    +0.000 A 
ENDBRANCH  12  13
ENDBRANCH   5  12
TORSDOF 5
ENDMDL
MODEL 2
REMARK VINA RESULT:    -7.154      2.922      6.027
REMARK INTER + INTRA:          -9.578
REMARK INTER:                  -9.193
REMARK INTRA:                  -0.385
REMARK UNBOUND:                -0.542
REMARK  Name = 
REMARK  5 active torsions:
REMARK  status: ('A' for Active; 'I' for Inactive)
REMARK    1  A    between atoms: N_1  and  C_2
REMARK    2  A    between atoms: C_2  and  C_3
REMARK    3  A    between atoms: C_3  and  C_4
REMARK    4  A    between atoms: C_8  and  C_9
REMARK    5  A    between atoms: C_9  and  N_10
REMARK                            x       y       z     vdW  Elec       q    Type
REMARK                         _______ _______ _______ _____ _____    ______ ____
ROOT
ATOM      1  C   UNL     1      46.002   3.379   7.769  0.00  0.00    +0.000 A 
ATOM      2  C   UNL     1      45.634   2.076   8.080  0.00  0.00    +0.000 A 
ATOM      3  C   UNL     1      44.816   1.857   9.171  0.00  0.00    +0.000 A 
ATOM      4  C   UNL     1      44.393   2.944   9.943  0.00  0.00    +0.000 A 
ATOM      5  C   UNL     1      44.867   4.222   9.635  0.00  0.00    +0.000 A 
ATOM      6  N   UNL     1      45.650   4.441   8.548  0.00  0.00    +0.000 NA
ENDROOT
BRANCH   1   7
ATOM      7  C   UNL     1      46.812   3.654   6.531  0.00  0.00    +0.000 C 
BRANCH   7   8
ATOM      8  C   UNL     1      47.045   2.379   5.723  0.00  0.00    +0.000 C 
BRANCH   8   9
ATOM      9  N   UNL     1      48.459   2.001   5.736  0.00  0.00    +0.000 NA
ATOM     10  H   UNL     1      48.547   1.044   6.078  0.00  0.00    +0.000 HD
ATOM     11  H   UNL     1      48.960   2.584   6.405  0.00  0.00    +0.000 HD
ENDBRANCH   8   9
ENDBRANCH   7   8
ENDBRANCH   1   7
BRANCH   5  12
ATOM     12  C   UNL     1      44.534   5.435  10.475  0.00  0.00    +0.000 C 
BRANCH  12  13
ATOM     13  N   UNL     1      45.212   5.442  11.772  0.00  0.00    +0.000 N 
ATOM     14  N   UNL     1      44.713   4.676  12.776  0.00  0.00    +0.000 NA
ATOM     15  C   UNL     1      45.622   4.798  13.746  0.00  0.00    +0.000 A 
ATOM     16  C   UNL     1      46.686   5.656  13.398  0.00  0.00    +0.000 A 
ATOM     17  C   UNL     1      47.882   6.075  14.001  0.00  0.00    +0.000 A 
ATOM     18  C   UNL     1      48.723   6.924  13.282  0.00  0.00    +0.000 A 
ATOM     19  F   UNL     1      49.891   7.295  13.823  0.00  0.00    +0.000 F 
ATOM     20  C   UNL     1      48.389   7.384  12.013  0.00  0.00    +0.000 A 
ATOM     21  C   UNL     1      47.190   7.000  11.408  0.00  0.00    +0.000 A 
ATOM     22  C   UNL     1      46.367   6.108  12.115  0.00  0.00    +0.000 A 
ENDBRANCH  12  13
ENDBRANCH   5  12
TORSDOF 5
ENDMDL
MODEL 3
REMARK VINA RESULT:    -6.741      1.547      2.890
REMARK INTER + INTRA:          -9.057
REMARK INTER:                  -8.470
REMARK INTRA:                  -0.586
REMARK UNBOUND:                -0.542
REMARK  Name = 
REMARK  5 active torsions:
REMARK  status: ('A' for Active; 'I' for Inactive)
REMARK    1  A    between atoms: N_1  and  C_2
REMARK    2  A    between atoms: C_2  and  C_3
REMARK    3  A    between atoms: C_3  and  C_4
REMARK    4  A    between atoms: C_8  and  C_9
REMARK    5  A    between atoms: C_9  and  N_10
REMARK                            x       y       z     vdW  Elec       q    Type
REMARK                         _______ _______ _______ _____ _____    ______ ____
ROOT
ATOM      1  C   UNL     1      46.689   7.917  13.035  0.00  0.00    +0.000 A 
ATOM      2  C   UNL     1      47.770   7.262  13.609  0.00  0.00    +0.000 A 
ATOM      3  C   UNL     1      47.653   5.918  13.907  0.00  0.00    +0.000 A 
ATOM      4  C   UNL     1      46.450   5.256  13.638  0.00  0.00    +0.000 A 
ATOM      5  C   UNL     1      45.368   5.988  13.142  0.00  0.00    +0.000 A 
ATOM      6  N   UNL     1      45.491   7.303  12.826  0.00  0.00    +0.000 NA
ENDROOT
BRANCH   1   7
ATOM      7  C   UNL     1      46.824   9.355  12.613  0.00  0.00    +0.000 C 
BRANCH   7   8
ATOM      8  C   UNL     1      45.631   9.804  11.770  0.00  0.00    +0.000 C 
BRANCH   8   9
ATOM      9  N   UNL     1      44.457  10.049  12.611  0.00  0.00    +0.000 NA
ATOM     10  H   UNL     1      44.197   9.183  13.082  0.00  0.00    +0.000 HD
ATOM     11  H   UNL     1      43.663  10.296  12.021  0.00  0.00    +0.000 HD
ENDBRANCH   8   9
ENDBRANCH   7   8
ENDBRANCH   1   7
BRANCH   5  12
ATOM     12  C   UNL     1      44.007   5.369  12.915  0.00  0.00    +0.000 C 
BRANCH  12  13
ATOM     13  N   UNL     1      44.042   4.211  12.021  0.00  0.00    +0.000 N 
ATOM     14  N   UNL     1      43.426   3.065  12.410  0.00  0.00    +0.000 NA
ATOM     15  C   UNL     1      43.521   2.277  11.336  0.00  0.00    +0.000 A 
ATOM     16  C   UNL     1      44.217   2.883  10.269  0.00  0.00    +0.000 A 
ATOM     17  C   UNL     1      44.541   2.533   8.949  0.00  0.00    +0.000 A 
ATOM     18  C   UNL     1      45.224   3.465   8.167  0.00  0.00    +0.000 A 
ATOM     19  F   UNL     1      45.499   3.167   6.890  0.00  0.00    +0.000 F 
ATOM     20  C   UNL     1      45.613   4.701   8.672  0.00  0.00    +0.000 A 
ATOM     21  C   UNL     1      45.322   5.056   9.991  0.00  0.00    +0.000 A 
ATOM     22  C   UNL     1      44.594   4.135  10.762  0.00  0.00    +0.000 A 
ENDBRANCH  12  13
ENDBRANCH   5  12
TORSDOF 5
ENDMDL
MODEL 4
REMARK VINA RESULT:    -6.652      1.794      2.836
REMARK INTER + INTRA:          -8.944
REMARK INTER:                  -8.425
REMARK INTRA:                  -0.519
REMARK UNBOUND:                -0.542
REMARK  Name = 
REMARK  5 active torsions:
REMARK  status: ('A' for Active; 'I' for Inactive)
REMARK    1  A    between atoms: N_1  and  C_2
REMARK    2  A    between atoms: C_2  and  C_3
REMARK    3  A    between atoms: C_3  and  C_4
REMARK    4  A    between atoms: C_8  and  C_9
REMARK    5  A    between atoms: C_9  and  N_10
REMARK                            x       y       z     vdW  Elec       q    Type
REMARK                         _______ _______ _______ _____ _____    ______ ____
ROOT
ATOM      1  C   UNL     1      45.227   4.988  13.069  0.00  0.00    +0.000 A 
ATOM      2  C   UNL     1      44.026   5.588  13.425  0.00  0.00    +0.000 A 
ATOM      3  C   UNL     1      42.861   5.155  12.824  0.00  0.00    +0.000 A 
ATOM      4  C   UNL     1      42.919   4.139  11.863  0.00  0.00    +0.000 A 
ATOM      5  C   UNL     1      44.165   3.636  11.481  0.00  0.00    +0.000 A 
ATOM      6  N   UNL     1      45.307   4.043  12.090  0.00  0.00    +0.000 NA
ENDROOT
BRANCH   1   7
ATOM      7  C   UNL     1      46.496   5.374  13.779  0.00  0.00    +0.000 C 
BRANCH   7   8
ATOM      8  C   UNL     1      46.833   4.389  14.897  0.00  0.00    +0.000 C 
BRANCH   8   9
ATOM      9  N   UNL     1      47.440   3.171  14.358  0.00  0.00    +0.000 NA
ATOM     10  H   UNL     1      46.995   2.358  14.786  0.00  0.00    +0.000 HD
ATOM     11  H   UNL     1      48.421   3.130  14.632  0.00  0.00    +0.000 HD
ENDBRANCH   8   9
ENDBRANCH   7   8
ENDBRANCH   1   7
BRANCH   5  12
ATOM     12  C   UNL     1      44.321   2.606  10.384  0.00  0.00    +0.000 C 
BRANCH  12  13
ATOM     13  N   UNL     1      44.970   3.136   9.184  0.00  0.00    +0.000 N 
ATOM     14  N   UNL     1      44.855   4.461   8.909  0.00  0.00    +0.000 NA
ATOM     15  C   UNL     1      45.659   4.634   7.857  0.00  0.00    +0.000 A 
ATOM     16  C   UNL     1      46.267   3.436   7.426  0.00  0.00    +0.000 A 
ATOM     17  C   UNL     1      47.201   3.077   6.442  0.00  0.00    +0.000 A 
ATOM     18  C   UNL     1      47.599   1.742   6.365  0.00  0.00    +0.000 A 
ATOM     19  F   UNL     1      48.526   1.391   5.464  0.00  0.00    +0.000 F 
ATOM     20  C   UNL     1      47.073   0.771   7.209  0.00  0.00    +0.000 A 
ATOM     21  C   UNL     1      46.123   1.105   8.177  0.00  0.00    +0.000 A 
ATOM     22  C   UNL     1      45.758   2.457   8.283  0.00  0.00    +0.000 A 
ENDBRANCH  12  13
ENDBRANCH   5  12
TORSDOF 5
ENDMDL
MODEL 5
REMARK VINA RESULT:    -6.590      2.871      6.160
REMARK INTER + INTRA:          -8.865
REMARK INTER:                  -8.335
REMARK INTRA:                  -0.530
REMARK UNBOUND:                -0.542
REMARK  Name = 
REMARK  5 active torsions:
REMARK  status: ('A' for Active; 'I' for Inactive)
REMARK    1  A    between atoms: N_1  and  C_2
REMARK    2  A    between atoms: C_2  and  C_3
REMARK    3  A    between atoms: C_3  and  C_4
REMARK    4  A    between atoms: C_8  and  C_9
REMARK    5  A    between atoms: C_9  and  N_10
REMARK                            x       y       z     vdW  Elec       q    Type
REMARK                         _______ _______ _______ _____ _____    ______ ____
ROOT
ATOM      1  C   UNL     1      45.734   3.494   8.415  0.00  0.00    +0.000 A 
ATOM      2  C   UNL     1      45.261   2.227   8.731  0.00  0.00    +0.000 A 
ATOM      3  C   UNL     1      44.395   2.086   9.798  0.00  0.00    +0.000 A 
ATOM      4  C   UNL     1      44.028   3.214  10.540  0.00  0.00    +0.000 A 
ATOM      5  C   UNL     1      44.605   4.448  10.229  0.00  0.00    +0.000 A 
ATOM      6  N   UNL     1      45.437   4.591   9.166  0.00  0.00    +0.000 NA
ENDROOT
BRANCH   1   7
ATOM      7  C   UNL     1      46.602   3.687   7.201  0.00  0.00    +0.000 C 
BRANCH   7   8
ATOM      8  C   UNL     1      47.235   2.372   6.752  0.00  0.00    +0.000 C 
BRANCH   8   9
ATOM      9  N   UNL     1      48.620   2.577   6.321  0.00  0.00    +0.000 NA
ATOM     10  H   UNL     1      49.121   3.094   7.043  0.00  0.00    +0.000 HD
ATOM     11  H   UNL     1      48.633   3.169   5.492  0.00  0.00    +0.000 HD
ENDBRANCH   8   9
ENDBRANCH   7   8
ENDBRANCH   1   7
BRANCH   5  12
ATOM     12  C   UNL     1      44.335   5.696  11.041  0.00  0.00    +0.000 C 
BRANCH  12  13
ATOM     13  N   UNL     1      45.521   6.201  11.734  0.00  0.00    +0.000 N 
ATOM     14  N   UNL     1      46.044   7.395  11.353  0.00  0.00    +0.000 NA
ATOM     15  C   UNL     1      47.002   7.621  12.255  0.00  0.00    +0.000 A 
ATOM     16  C   UNL     1      47.129   6.578  13.196  0.00  0.00    +0.000 A 
ATOM     17  C   UNL     1      47.908   6.340  14.339  0.00  0.00    +0.000 A 
ATOM     18  C   UNL     1      47.692   5.162  15.053  0.00  0.00    +0.000 A 
ATOM     19  F   UNL     1      48.392   4.942  16.174  0.00  0.00    +0.000 F 
ATOM     20  C   UNL     1      46.758   4.217  14.642  0.00  0.00    +0.000 A 
ATOM     21  C   UNL     1      45.993   4.424  13.492  0.00  0.00    +0.000 A 
ATOM     22  C   UNL     1      46.180   5.632  12.801  0.00  0.00    +0.000 A 
ENDBRANCH  12  13
ENDBRANCH   5  12
TORSDOF 5
ENDMDL
MODEL 6
REMARK VINA RESULT:    -6.019      2.096      2.929
REMARK INTER + INTRA:          -8.144
REMARK INTER:                  -7.353
REMARK INTRA:                  -0.791
REMARK UNBOUND:                -0.542
REMARK  Name = 
REMARK  5 active torsions:
REMARK  status: ('A' for Active; 'I' for Inactive)
REMARK    1  A    between atoms: N_1  and  C_2
REMARK    2  A    between atoms: C_2  and  C_3
REMARK    3  A    between atoms: C_3  and  C_4
REMARK    4  A    between atoms: C_8  and  C_9
REMARK    5  A    between atoms: C_9  and  N_10
REMARK                            x       y       z     vdW  Elec       q    Type
REMARK                         _______ _______ _______ _____ _____    ______ ____
ROOT
ATOM      1  C   UNL     1      48.650   7.393  14.365  0.00  0.00    +0.000 A 
ATOM      2  C   UNL     1      49.697   7.409  13.453  0.00  0.00    +0.000 A 
ATOM      3  C   UNL     1      49.409   7.540  12.109  0.00  0.00    +0.000 A 
ATOM      4  C   UNL     1      48.075   7.637  11.698  0.00  0.00    +0.000 A 
ATOM      5  C   UNL     1      47.060   7.526  12.653  0.00  0.00    +0.000 A 
ATOM      6  N   UNL     1      47.344   7.423  13.976  0.00  0.00    +0.000 NA
ENDROOT
BRANCH   1   7
ATOM      7  C   UNL     1      48.942   7.348  15.841  0.00  0.00    +0.000 C 
BRANCH   7   8
ATOM      8  C   UNL     1      48.968   5.913  16.362  0.00  0.00    +0.000 C 
BRANCH   8   9
ATOM      9  N   UNL     1      47.789   5.170  15.913  0.00  0.00    +0.000 NA
ATOM     10  H   UNL     1      47.179   4.998  16.712  0.00  0.00    +0.000 HD
ATOM     11  H   UNL     1      48.075   4.251  15.575  0.00  0.00    +0.000 HD
ENDBRANCH   8   9
ENDBRANCH   7   8
ENDBRANCH   1   7
BRANCH   5  12
ATOM     12  C   UNL     1      45.594   7.526  12.280  0.00  0.00    +0.000 C 
BRANCH  12  13
ATOM     13  N   UNL     1      45.019   6.183  12.201  0.00  0.00    +0.000 N 
ATOM     14  N   UNL     1      44.321   5.706  13.265  0.00  0.00    +0.000 NA
ATOM     15  C   UNL     1      43.827   4.547  12.822  0.00  0.00    +0.000 A 
ATOM     16  C   UNL     1      44.220   4.251  11.500  0.00  0.00    +0.000 A 
ATOM     17  C   UNL     1      43.952   3.231  10.574  0.00  0.00    +0.000 A 
ATOM     18  C   UNL     1      44.516   3.330   9.302  0.00  0.00    +0.000 A 
ATOM     19  F   UNL     1      44.232   2.391   8.389  0.00  0.00    +0.000 F 
ATOM     20  C   UNL     1      45.352   4.383   8.950  0.00  0.00    +0.000 A 
ATOM     21  C   UNL     1      45.652   5.393   9.868  0.00  0.00    +0.000 A 
ATOM     22  C   UNL     1      45.046   5.316  11.132  0.00  0.00    +0.000 A 
ENDBRANCH  12  13
ENDBRANCH   5  12
TORSDOF 5
ENDMDL
MODEL 7
REMARK VINA RESULT:    -5.812      3.302      4.992
REMARK INTER + INTRA:          -7.883
REMARK INTER:                  -7.331
REMARK INTRA:                  -0.552
REMARK UNBOUND:                -0.542
REMARK  Name = 
REMARK  5 active torsions:
REMARK  status: ('A' for Active; 'I' for Inactive)
REMARK    1  A    between atoms: N_1  and  C_2
REMARK    2  A    between atoms: C_2  and  C_3
REMARK    3  A    between atoms: C_3  and  C_4
REMARK    4  A    between atoms: C_8  and  C_9
REMARK    5  A    between atoms: C_9  and  N_10
REMARK                            x       y       z     vdW  Elec       q    Type
REMARK                         _______ _______ _______ _____ _____    ______ ____
ROOT
ATOM      1  C   UNL     1      48.799   5.518  16.814  0.00  0.00    +0.000 A 
ATOM      2  C   UNL     1      49.125   6.684  17.495  0.00  0.00    +0.000 A 
ATOM      3  C   UNL     1      49.087   7.885  16.814  0.00  0.00    +0.000 A 
ATOM      4  C   UNL     1      48.738   7.897  15.459  0.00  0.00    +0.000 A 
ATOM      5  C   UNL     1      48.508   6.683  14.806  0.00  0.00    +0.000 A 
ATOM      6  N   UNL     1      48.521   5.506  15.480  0.00  0.00    +0.000 NA
ENDROOT
BRANCH   1   7
ATOM      7  C   UNL     1      48.740   4.210  17.556  0.00  0.00    +0.000 C 
BRANCH   7   8
ATOM      8  C   UNL     1      47.797   3.222  16.871  0.00  0.00    +0.000 C 
BRANCH   8   9
ATOM      9  N   UNL     1      46.645   2.919  17.723  0.00  0.00    +0.000 NA
ATOM     10  H   UNL     1      46.556   3.645  18.435  0.00  0.00    +0.000 HD
ATOM     11  H   UNL     1      46.816   2.050  18.229  0.00  0.00    +0.000 HD
ENDBRANCH   8   9
ENDBRANCH   7   8
ENDBRANCH   1   7
BRANCH   5  12
ATOM     12  C   UNL     1      48.220   6.603  13.323  0.00  0.00    +0.000 C 
BRANCH  12  13
ATOM     13  N   UNL     1      46.790   6.628  13.011  0.00  0.00    +0.000 N 
ATOM     14  N   UNL     1      46.185   7.827  12.810  0.00  0.00    +0.000 NA
ATOM     15  C   UNL     1      44.953   7.494  12.417  0.00  0.00    +0.000 A 
ATOM     16  C   UNL     1      44.741   6.100  12.391  0.00  0.00    +0.000 A 
ATOM     17  C   UNL     1      43.690   5.247  12.020  0.00  0.00    +0.000 A 
ATOM     18  C   UNL     1      43.899   3.870  12.097  0.00  0.00    +0.000 A 
ATOM     19  F   UNL     1      42.925   3.041  11.699  0.00  0.00    +0.000 F 
ATOM     20  C   UNL     1      45.096   3.334  12.558  0.00  0.00    +0.000 A 
ATOM     21  C   UNL     1      46.143   4.168  12.958  0.00  0.00    +0.000 A 
ATOM     22  C   UNL     1      45.948   5.554  12.836  0.00  0.00    +0.000 A 
ENDBRANCH  12  13
ENDBRANCH   5  12
TORSDOF 5
ENDMDL
MODEL 8
REMARK VINA RESULT:    -5.773      2.816      5.956
REMARK INTER + INTRA:          -7.834
REMARK INTER:                  -7.402
REMARK INTRA:                  -0.432
REMARK UNBOUND:                -0.542
REMARK  Name = 
REMARK  5 active torsions:
REMARK  status: ('A' for Active; 'I' for Inactive)
REMARK    1  A    between atoms: N_1  and  C_2
REMARK    2  A    between atoms: C_2  and  C_3
REMARK    3  A    between atoms: C_3  and  C_4
REMARK    4  A    between atoms: C_8  and  C_9
REMARK    5  A    between atoms: C_9  and  N_10
REMARK                            x       y       z     vdW  Elec       q    Type
REMARK                         _______ _______ _______ _____ _____    ______ ____
ROOT
ATOM      1  C   UNL     1      44.618   3.479   9.875  0.00  0.00    +0.000 A 
ATOM      2  C   UNL     1      43.893   2.445  10.454  0.00  0.00    +0.000 A 
ATOM      3  C   UNL     1      43.313   2.649  11.690  0.00  0.00    +0.000 A 
ATOM      4  C   UNL     1      43.481   3.880  12.334  0.00  0.00    +0.000 A 
ATOM      5  C   UNL     1      44.294   4.851  11.743  0.00  0.00    +0.000 A 
ATOM      6  N   UNL     1      44.843   4.660  10.517  0.00  0.00    +0.000 NA
ENDROOT
BRANCH   1   7
ATOM      7  C   UNL     1      45.178   3.315   8.488  0.00  0.00    +0.000 C 
BRANCH   7   8
ATOM      8  C   UNL     1      46.080   4.488   8.108  0.00  0.00    +0.000 C 
BRANCH   8   9
ATOM      9  N   UNL     1      46.844   4.191   6.895  0.00  0.00    +0.000 NA
ATOM     10  H   UNL     1      47.029   3.189   6.854  0.00  0.00    +0.000 HD
ATOM     11  H   UNL     1      47.757   4.642   6.950  0.00  0.00    +0.000 HD
ENDBRANCH   8   9
ENDBRANCH   7   8
ENDBRANCH   1   7
BRANCH   5  12
ATOM     12  C   UNL     1      44.602   6.169  12.417  0.00  0.00    +0.000 C 
BRANCH  12  13
ATOM     13  N   UNL     1      45.900   6.181  13.094  0.00  0.00    +0.000 N 
ATOM     14  N   UNL     1      46.190   5.185  13.971  0.00  0.00    +0.000 NA
ATOM     15  C   UNL     1      47.466   5.411  14.291  0.00  0.00    +0.000 A 
ATOM     16  C   UNL     1      47.998   6.555  13.660  0.00  0.00    +0.000 A 
ATOM     17  C   UNL     1      49.250   7.187  13.608  0.00  0.00    +0.000 A 
ATOM     18  C   UNL     1      49.388   8.314  12.798  0.00  0.00    +0.000 A 
ATOM     19  F   UNL     1      50.588   8.901  12.698  0.00  0.00    +0.000 F 
ATOM     20  C   UNL     1      48.318   8.835  12.078  0.00  0.00    +0.000 A 
ATOM     21  C   UNL     1      47.058   8.234  12.139  0.00  0.00    +0.000 A 
ATOM     22  C   UNL     1      46.933   7.073  12.919  0.00  0.00    +0.000 A 
ENDBRANCH  12  13
ENDBRANCH   5  12
TORSDOF 5
ENDMDL
MODEL 9
REMARK VINA RESULT:    -5.024      3.320      4.575
REMARK INTER + INTRA:          -6.887
REMARK INTER:                  -6.200
REMARK INTRA:                  -0.688
REMARK UNBOUND:                -0.542
REMARK  Name = 
REMARK  5 active torsions:
REMARK  status: ('A' for Active; 'I' for Inactive)
REMARK    1  A    between atoms: N_1  and  C_2
REMARK    2  A    between atoms: C_2  and  C_3
REMARK    3  A    between atoms: C_3  and  C_4
REMARK    4  A    between atoms: C_8  and  C_9
REMARK    5  A    between atoms: C_9  and  N_10
REMARK                            x       y       z     vdW  Elec       q    Type
REMARK                         _______ _______ _______ _____ _____    ______ ____
ROOT
ATOM      1  C   UNL     1      50.700   8.344  13.733  0.00  0.00    +0.000 A 
ATOM      2  C   UNL     1      51.211   8.427  12.445  0.00  0.00    +0.000 A 
ATOM      3  C   UNL     1      50.349   8.285  11.375  0.00  0.00    +0.000 A 
ATOM      4  C   UNL     1      48.991   8.046  11.614  0.00  0.00    +0.000 A 
ATOM      5  C   UNL     1      48.550   7.884  12.930  0.00  0.00    +0.000 A 
ATOM      6  N   UNL     1      49.393   8.048  13.981  0.00  0.00    +0.000 NA
ENDROOT
BRANCH   1   7
ATOM      7  C   UNL     1      51.600   8.590  14.913  0.00  0.00    +0.000 C 
BRANCH   7   8
ATOM      8  C   UNL     1      51.057   7.929  16.179  0.00  0.00    +0.000 C 
BRANCH   8   9
ATOM      9  N   UNL     1      51.053   6.470  16.048  0.00  0.00    +0.000 NA
ATOM     10  H   UNL     1      52.006   6.147  15.885  0.00  0.00    +0.000 HD
ATOM     11  H   UNL     1      50.522   6.206  15.218  0.00  0.00    +0.000 HD
ENDBRANCH   8   9
ENDBRANCH   7   8
ENDBRANCH   1   7
BRANCH   5  12
ATOM     12  C   UNL     1      47.119   7.530  13.267  0.00  0.00    +0.000 C 
BRANCH  12  13
ATOM     13  N   UNL     1      46.870   6.088  13.286  0.00  0.00    +0.000 N 
ATOM     14  N   UNL     1      47.369   5.351  14.312  0.00  0.00    +0.000 NA
ATOM     15  C   UNL     1      46.855   4.136  14.104  0.00  0.00    +0.000 A 
ATOM     16  C   UNL     1      46.057   4.067  12.943  0.00  0.00    +0.000 A 
ATOM     17  C   UNL     1      45.271   3.087  12.317  0.00  0.00    +0.000 A 
ATOM     18  C   UNL     1      44.569   3.440  11.165  0.00  0.00    +0.000 A 
ATOM     19  F   UNL     1      43.776   2.532  10.582  0.00  0.00    +0.000 F 
ATOM     20  C   UNL     1      44.657   4.714  10.614  0.00  0.00    +0.000 A 
ATOM     21  C   UNL     1      45.456   5.694  11.208  0.00  0.00    +0.000 A 
ATOM     22  C   UNL     1      46.125   5.350  12.394  0.00  0.00    +0.000 A 
ENDBRANCH  12  13
ENDBRANCH   5  12
TORSDOF 5
ENDMDL
