MODEL 1
REMARK VINA RESULT:    -7.980      0.000      0.000
REMARK INTER + INTRA:         -10.153
REMARK INTER:                  -9.846
REMARK INTRA:                  -0.307
REMARK UNBOUND:                -0.307
REMARK  Name = 
REMARK  5 active torsions:
REMARK  status: ('A' for Active; 'I' for Inactive)
REMARK    1  A    between atoms: C_1  and  C_2
REMARK    2  A    between atoms: C_4  and  O_5
REMARK    3  A    between atoms: O_5  and  C_6
REMARK    4  A    between atoms: C_6  and  C_7
REMARK    5  A    between atoms: C_16  and  C_17
REMARK                            x       y       z     vdW  Elec       q    Type
REMARK                         _______ _______ _______ _____ _____    ______ ____
ROOT
ATOM      1  C   UNL     1      46.748   0.233   7.689  0.00  0.00    +0.000 C 
ATOM      2  C   UNL     1      46.171   1.598   7.945  0.00  0.00    +0.000 A 
ATOM      3  C   UNL     1      45.238   1.761   8.982  0.00  0.00    +0.000 A 
ATOM      4  C   UNL     1      44.678   3.010   9.201  0.00  0.00    +0.000 A 
ATOM      5  N   UNL     1      44.999   4.104   8.483  0.00  0.00    +0.000 NA
ATOM      6  C   UNL     1      45.905   3.934   7.490  0.00  0.00    +0.000 A 
ATOM      7  C   UNL     1      46.521   2.724   7.179  0.00  0.00    +0.000 A 
ENDROOT
BRANCH   7   8
ATOM      8  C   UNL     1      47.469   2.658   6.036  0.00  0.00    +0.000 C 
ATOM      9  N   UNL     1      48.798   2.486   6.319  0.00  0.00    +0.000 N 
ATOM     10  O   UNL     1      47.102   2.740   4.870  0.00  0.00    +0.000 OA
ATOM     11  H   UNL     1      49.155   2.209   7.222  0.00  0.00    +0.000 HD
ATOM     12  H   UNL     1      49.413   2.375   5.521  0.00  0.00    +0.000 HD
ENDBRANCH   7   8
BRANCH   4  13
ATOM     13  O   UNL     1      43.765   3.116  10.230  0.00  0.00    +0.000 OA
BRANCH  13  14
ATOM     14  C   UNL     1      43.596   4.472  10.656  0.00  0.00    +0.000 C 
BRANCH  14  15
ATOM     15  C   UNL     1      44.701   4.879  11.610  0.00  0.00    +0.000 A 
ATOM     16  C   UNL     1      45.092   4.045  12.671  0.00  0.00    +0.000 A 
ATOM     17  C   UNL     1      46.158   4.405  13.498  0.00  0.00    +0.000 A 
ATOM     18  C   UNL     1      46.844   5.590  13.259  0.00  0.00    +0.000 A 
ATOM     19  F   UNL     1      47.870   5.930  14.050  0.00  0.00    +0.000 F 
ATOM     20  C   UNL     1      46.486   6.423  12.206  0.00  0.00    +0.000 A 
ATOM     21  C   UNL     1      45.419   6.065  11.379  0.00  0.00    +0.000 A 
ENDBRANCH  14  15
ENDBRANCH  13  14
ENDBRANCH   4  13
TORSDOF 4
ENDMDL
MODEL 2
REMARK VINA RESULT:    -7.825      3.344      6.542
REMARK INTER + INTRA:          -9.962
REMARK INTER:                  -9.729
REMARK INTRA:                  -0.233
REMARK UNBOUND:                -0.307
REMARK  Name = 
REMARK  5 active torsions:
REMARK  status: ('A' for Active; 'I' for Inactive)
REMARK    1  A    between atoms: C_1  and  C_2
REMARK    2  A    between atoms: C_4  and  O_5
REMARK    3  A    between atoms: O_5  and  C_6
REMARK    4  A    between atoms: C_6  and  C_7
REMARK    5  A    between atoms: C_16  and  C_17
REMARK                            x       y       z     vdW  Elec       q    Type
REMARK                         _______ _______ _______ _____ _____    ______ ____
ROOT
ATOM      1  C   UNL     1      46.239   7.341  12.871  0.00  0.00    +0.000 C 
ATOM      2  C   UNL     1      45.945   5.905  12.538  0.00  0.00    +0.000 A 
ATOM      3  C   UNL     1      45.204   5.610  11.382  0.00  0.00    +0.000 A 
ATOM      4  C   UNL     1      44.902   4.288  11.088  0.00  0.00    +0.000 A 
ATOM      5  N   UNL     1      45.306   3.248  11.843  0.00  0.00    +0.000 NA
ATOM      6  C   UNL     1      46.027   3.547  12.951  0.00  0.00    +0.000 A 
ATOM      7  C   UNL     1      46.378   4.836  13.344  0.00  0.00    +0.000 A 
ENDROOT
BRANCH   7   8
ATOM      8  C   UNL     1      47.137   5.035  14.607  0.00  0.00    +0.000 C 
ATOM      9  N   UNL     1      46.674   4.412  15.735  0.00  0.00    +0.000 N 
ATOM     10  O   UNL     1      48.152   5.719  14.664  0.00  0.00    +0.000 OA
ATOM     11  H   UNL     1      45.977   3.681  15.734  0.00  0.00    +0.000 HD
ATOM     12  H   UNL     1      47.246   4.509  16.565  0.00  0.00    +0.000 HD
ENDBRANCH   7   8
BRANCH   4  13
ATOM     13  O   UNL     1      44.168   4.053   9.943  0.00  0.00    +0.000 OA
BRANCH  13  14
ATOM     14  C   UNL     1      44.289   2.697   9.502  0.00  0.00    +0.000 C 
BRANCH  14  15
ATOM     15  C   UNL     1      45.392   2.562   8.471  0.00  0.00    +0.000 A 
ATOM     16  C   UNL     1      46.097   1.357   8.312  0.00  0.00    +0.000 A 
ATOM     17  C   UNL     1      47.062   1.229   7.311  0.00  0.00    +0.000 A 
ATOM     18  C   UNL     1      47.315   2.298   6.460  0.00  0.00    +0.000 A 
ATOM     19  F   UNL     1      48.237   2.171   5.496  0.00  0.00    +0.000 F 
ATOM     20  C   UNL     1      46.619   3.494   6.588  0.00  0.00    +0.000 A 
ATOM     21  C   UNL     1      45.655   3.623   7.589  0.00  0.00    +0.000 A 
ENDBRANCH  14  15
ENDBRANCH  13  14
ENDBRANCH   4  13
TORSDOF 4
ENDMDL
MODEL 3
REMARK VINA RESULT:    -7.609      3.468      6.512
REMARK INTER + INTRA:          -9.695
REMARK INTER:                  -9.398
REMARK INTRA:                  -0.297
REMARK UNBOUND:                -0.307
REMARK  Name = 
REMARK  5 active torsions:
REMARK  status: ('A' for Active; 'I' for Inactive)
REMARK    1  A    between atoms: C_1  and  C_2
REMARK    2  A    between atoms: C_4  and  O_5
REMARK    3  A    between atoms: O_5  and  C_6
REMARK    4  A    between atoms: C_6  and  C_7
REMARK    5  A    between atoms: C_16  and  C_17
REMARK                            x       y       z     vdW  Elec       q    Type
REMARK                         _______ _______ _______ _____ _____    ______ ____
ROOT
ATOM      1  C   UNL     1      46.977   7.604  12.095  0.00  0.00    +0.000 C 
ATOM      2  C   UNL     1      46.554   6.194  12.399  0.00  0.00    +0.000 A 
ATOM      3  C   UNL     1      45.580   5.584  11.591  0.00  0.00    +0.000 A 
ATOM      4  C   UNL     1      45.162   4.295  11.887  0.00  0.00    +0.000 A 
ATOM      5  N   UNL     1      45.662   3.568  12.906  0.00  0.00    +0.000 NA
ATOM      6  C   UNL     1      46.605   4.167  13.672  0.00  0.00    +0.000 A 
ATOM      7  C   UNL     1      47.090   5.456  13.470  0.00  0.00    +0.000 A 
ENDROOT
BRANCH   7   8
ATOM      8  C   UNL     1      48.098   6.016  14.408  0.00  0.00    +0.000 C 
ATOM      9  N   UNL     1      47.844   5.917  15.750  0.00  0.00    +0.000 N 
ATOM     10  O   UNL     1      49.135   6.542  14.023  0.00  0.00    +0.000 OA
ATOM     11  H   UNL     1      47.128   5.328  16.151  0.00  0.00    +0.000 HD
ATOM     12  H   UNL     1      48.578   6.244  16.368  0.00  0.00    +0.000 HD
ENDBRANCH   7   8
BRANCH   4  13
ATOM     13  O   UNL     1      44.201   3.744  11.065  0.00  0.00    +0.000 OA
BRANCH  13  14
ATOM     14  C   UNL     1      44.235   4.309   9.751  0.00  0.00    +0.000 C 
BRANCH  14  15
ATOM     15  C   UNL     1      45.139   3.503   8.840  0.00  0.00    +0.000 A 
ATOM     16  C   UNL     1      45.975   4.130   7.902  0.00  0.00    +0.000 A 
ATOM     17  C   UNL     1      46.851   3.375   7.120  0.00  0.00    +0.000 A 
ATOM     18  C   UNL     1      46.905   1.996   7.283  0.00  0.00    +0.000 A 
ATOM     19  F   UNL     1      47.751   1.275   6.536  0.00  0.00    +0.000 F 
ATOM     20  C   UNL     1      46.100   1.356   8.216  0.00  0.00    +0.000 A 
ATOM     21  C   UNL     1      45.222   2.109   8.999  0.00  0.00    +0.000 A 
ENDBRANCH  14  15
ENDBRANCH  13  14
ENDBRANCH   4  13
TORSDOF 4
ENDMDL
MODEL 4
REMARK VINA RESULT:    -6.655      4.064      6.993
REMARK INTER + INTRA:          -8.519
REMARK INTER:                  -8.097
REMARK INTRA:                  -0.421
REMARK UNBOUND:                -0.307
REMARK  Name = 
REMARK  5 active torsions:
REMARK  status: ('A' for Active; 'I' for Inactive)
REMARK    1  A    between atoms: C_1  and  C_2
REMARK    2  A    between atoms: C_4  and  O_5
REMARK    3  A    between atoms: O_5  and  C_6
REMARK    4  A    between atoms: C_6  and  C_7
REMARK    5  A    between atoms: C_16  and  C_17
REMARK                            x       y       z     vdW  Elec       q    Type
REMARK                         _______ _______ _______ _____ _____    ______ ____
ROOT
ATOM      1  C   UNL     1      48.085   7.401  12.633  0.00  0.00    +0.000 C 
ATOM      2  C   UNL     1      47.559   6.195  13.361  0.00  0.00    +0.000 A 
ATOM      3  C   UNL     1      46.645   5.350  12.711  0.00  0.00    +0.000 A 
ATOM      4  C   UNL     1      46.131   4.256  13.389  0.00  0.00    +0.000 A 
ATOM      5  N   UNL     1      46.482   3.931  14.650  0.00  0.00    +0.000 NA
ATOM      6  C   UNL     1      47.370   4.751  15.261  0.00  0.00    +0.000 A 
ATOM      7  C   UNL     1      47.940   5.880  14.678  0.00  0.00    +0.000 A 
ENDROOT
BRANCH   7   8
ATOM      8  C   UNL     1      48.872   6.724  15.471  0.00  0.00    +0.000 C 
ATOM      9  N   UNL     1      48.331   7.703  16.259  0.00  0.00    +0.000 N 
ATOM     10  O   UNL     1      50.087   6.563  15.448  0.00  0.00    +0.000 OA
ATOM     11  H   UNL     1      47.350   7.769  16.490  0.00  0.00    +0.000 HD
ATOM     12  H   UNL     1      48.982   8.218  16.841  0.00  0.00    +0.000 HD
ENDBRANCH   7   8
BRANCH   4  13
ATOM     13  O   UNL     1      45.234   3.459  12.707  0.00  0.00    +0.000 OA
BRANCH  13  14
ATOM     14  C   UNL     1      44.484   4.206  11.744  0.00  0.00    +0.000 C 
BRANCH  14  15
ATOM     15  C   UNL     1      44.879   3.816  10.333  0.00  0.00    +0.000 A 
ATOM     16  C   UNL     1      45.317   4.777   9.407  0.00  0.00    +0.000 A 
ATOM     17  C   UNL     1      45.742   4.390   8.134  0.00  0.00    +0.000 A 
ATOM     18  C   UNL     1      45.745   3.044   7.790  0.00  0.00    +0.000 A 
ATOM     19  F   UNL     1      46.160   2.675   6.571  0.00  0.00    +0.000 F 
ATOM     20  C   UNL     1      45.332   2.074   8.695  0.00  0.00    +0.000 A 
ATOM     21  C   UNL     1      44.906   2.460   9.968  0.00  0.00    +0.000 A 
ENDBRANCH  14  15
ENDBRANCH  13  14
ENDBRANCH   4  13
TORSDOF 4
ENDMDL
MODEL 5
REMARK VINA RESULT:    -6.320      3.968      6.080
REMARK INTER + INTRA:          -8.105
REMARK INTER:                  -7.721
REMARK INTRA:                  -0.384
REMARK UNBOUND:                -0.307
REMARK  Name = 
REMARK  5 active torsions:
REMARK  status: ('A' for Active; 'I' for Inactive)
REMARK    1  A    between atoms: C_1  and  C_2
REMARK    2  A    between atoms: C_4  and  O_5
REMARK    3  A    between atoms: O_5  and  C_6
REMARK    4  A    between atoms: C_6  and  C_7
REMARK    5  A    between atoms: C_16  and  C_17
REMARK                            x       y       z     vdW  Elec       q    Type
REMARK                         _______ _______ _______ _____ _____    ______ ____
ROOT
ATOM      1  C   UNL     1      45.755   6.934  11.454  0.00  0.00    +0.000 C 
ATOM      2  C   UNL     1      45.691   5.525  11.974  0.00  0.00    +0.000 A 
ATOM      3  C   UNL     1      46.610   5.117  12.954  0.00  0.00    +0.000 A 
ATOM      4  C   UNL     1      46.577   3.809  13.414  0.00  0.00    +0.000 A 
ATOM      5  N   UNL     1      45.682   2.895  12.988  0.00  0.00    +0.000 NA
ATOM      6  C   UNL     1      44.797   3.305  12.049  0.00  0.00    +0.000 A 
ATOM      7  C   UNL     1      44.748   4.589  11.512  0.00  0.00    +0.000 A 
ENDROOT
BRANCH   7   8
ATOM      8  C   UNL     1      43.753   4.904  10.453  0.00  0.00    +0.000 C 
ATOM      9  N   UNL     1      44.044   4.520   9.171  0.00  0.00    +0.000 N 
ATOM     10  O   UNL     1      42.696   5.475  10.691  0.00  0.00    +0.000 OA
ATOM     11  H   UNL     1      44.783   3.876   8.925  0.00  0.00    +0.000 HD
ATOM     12  H   UNL     1      43.321   4.685   8.481  0.00  0.00    +0.000 HD
ENDBRANCH   7   8
BRANCH   4  13
ATOM     13  O   UNL     1      47.503   3.457  14.374  0.00  0.00    +0.000 OA
BRANCH  13  14
ATOM     14  C   UNL     1      47.155   3.970  15.664  0.00  0.00    +0.000 C 
BRANCH  14  15
ATOM     15  C   UNL     1      48.351   3.948  16.594  0.00  0.00    +0.000 A 
ATOM     16  C   UNL     1      48.977   2.741  16.948  0.00  0.00    +0.000 A 
ATOM     17  C   UNL     1      50.120   2.746  17.750  0.00  0.00    +0.000 A 
ATOM     18  C   UNL     1      50.647   3.955  18.189  0.00  0.00    +0.000 A 
ATOM     19  F   UNL     1      51.747   3.957  18.953  0.00  0.00    +0.000 F 
ATOM     20  C   UNL     1      50.055   5.162  17.838  0.00  0.00    +0.000 A 
ATOM     21  C   UNL     1      48.911   5.158  17.037  0.00  0.00    +0.000 A 
ENDBRANCH  14  15
ENDBRANCH  13  14
ENDBRANCH   4  13
TORSDOF 4
ENDMDL
MODEL 6
REMARK VINA RESULT:    -5.989      4.597      6.435
REMARK INTER + INTRA:          -7.696
REMARK INTER:                  -7.322
REMARK INTRA:                  -0.374
REMARK UNBOUND:                -0.307
REMARK  Name = 
REMARK  5 active torsions:
REMARK  status: ('A' for Active; 'I' for Inactive)
REMARK    1  A    between atoms: C_1  and  C_2
REMARK    2  A    between atoms: C_4  and  O_5
REMARK    3  A    between atoms: O_5  and  C_6
REMARK    4  A    between atoms: C_6  and  C_7
REMARK    5  A    between atoms: C_16  and  C_17
REMARK                            x       y       z     vdW  Elec       q    Type
REMARK                         _______ _______ _______ _____ _____    ______ ____
ROOT
ATOM      1  C   UNL     1      43.861   2.890  12.427  0.00  0.00    +0.000 C 
ATOM      2  C   UNL     1      44.687   4.120  12.683  0.00  0.00    +0.000 A 
ATOM      3  C   UNL     1      45.795   4.032  13.542  0.00  0.00    +0.000 A 
ATOM      4  C   UNL     1      46.541   5.171  13.807  0.00  0.00    +0.000 A 
ATOM      5  N   UNL     1      46.278   6.374  13.261  0.00  0.00    +0.000 NA
ATOM      6  C   UNL     1      45.211   6.443  12.429  0.00  0.00    +0.000 A 
ATOM      7  C   UNL     1      44.391   5.366  12.102  0.00  0.00    +0.000 A 
ENDROOT
BRANCH   7   8
ATOM      8  C   UNL     1      43.222   5.581  11.208  0.00  0.00    +0.000 C 
ATOM      9  N   UNL     1      42.140   6.244  11.722  0.00  0.00    +0.000 N 
ATOM     10  O   UNL     1      43.205   5.199  10.044  0.00  0.00    +0.000 OA
ATOM     11  H   UNL     1      42.150   6.762  12.588  0.00  0.00    +0.000 HD
ATOM     12  H   UNL     1      41.386   6.437  11.073  0.00  0.00    +0.000 HD
ENDBRANCH   7   8
BRANCH   4  13
ATOM     13  O   UNL     1      47.617   5.031  14.659  0.00  0.00    +0.000 OA
BRANCH  13  14
ATOM     14  C   UNL     1      47.289   4.240  15.806  0.00  0.00    +0.000 C 
BRANCH  14  15
ATOM     15  C   UNL     1      48.545   3.761  16.508  0.00  0.00    +0.000 A 
ATOM     16  C   UNL     1      48.885   2.399  16.545  0.00  0.00    +0.000 A 
ATOM     17  C   UNL     1      50.080   1.985  17.136  0.00  0.00    +0.000 A 
ATOM     18  C   UNL     1      50.944   2.929  17.677  0.00  0.00    +0.000 A 
ATOM     19  F   UNL     1      52.093   2.530  18.237  0.00  0.00    +0.000 F 
ATOM     20  C   UNL     1      50.636   4.284  17.637  0.00  0.00    +0.000 A 
ATOM     21  C   UNL     1      49.441   4.700  17.048  0.00  0.00    +0.000 A 
ENDBRANCH  14  15
ENDBRANCH  13  14
ENDBRANCH   4  13
TORSDOF 4
ENDMDL
MODEL 7
REMARK VINA RESULT:    -5.812      5.300      7.228
REMARK INTER + INTRA:          -7.478
REMARK INTER:                  -7.109
REMARK INTRA:                  -0.369
REMARK UNBOUND:                -0.307
REMARK  Name = 
REMARK  5 active torsions:
REMARK  status: ('A' for Active; 'I' for Inactive)
REMARK    1  A    between atoms: C_1  and  C_2
REMARK    2  A    between atoms: C_4  and  O_5
REMARK    3  A    between atoms: O_5  and  C_6
REMARK    4  A    between atoms: C_6  and  C_7
REMARK    5  A    between atoms: C_16  and  C_17
REMARK                            x       y       z     vdW  Elec       q    Type
REMARK                         _______ _______ _______ _____ _____    ______ ____
ROOT
ATOM      1  C   UNL     1      47.874   7.749  13.271  0.00  0.00    +0.000 C 
ATOM      2  C   UNL     1      47.061   6.501  13.471  0.00  0.00    +0.000 A 
ATOM      3  C   UNL     1      47.600   5.448  14.229  0.00  0.00    +0.000 A 
ATOM      4  C   UNL     1      46.867   4.282  14.389  0.00  0.00    +0.000 A 
ATOM      5  N   UNL     1      45.635   4.103  13.873  0.00  0.00    +0.000 NA
ATOM      6  C   UNL     1      45.124   5.129  13.150  0.00  0.00    +0.000 A 
ATOM      7  C   UNL     1      45.776   6.337  12.920  0.00  0.00    +0.000 A 
ENDROOT
BRANCH   7   8
ATOM      8  C   UNL     1      45.126   7.371  12.072  0.00  0.00    +0.000 C 
ATOM      9  N   UNL     1      44.727   8.533  12.678  0.00  0.00    +0.000 N 
ATOM     10  O   UNL     1      44.951   7.221  10.869  0.00  0.00    +0.000 OA
ATOM     11  H   UNL     1      45.011   8.818  13.604  0.00  0.00    +0.000 HD
ATOM     12  H   UNL     1      44.349   9.247  12.066  0.00  0.00    +0.000 HD
ENDBRANCH   7   8
BRANCH   4  13
ATOM     13  O   UNL     1      47.443   3.278  15.139  0.00  0.00    +0.000 OA
BRANCH  13  14
ATOM     14  C   UNL     1      47.580   3.652  16.514  0.00  0.00    +0.000 C 
BRANCH  14  15
ATOM     15  C   UNL     1      48.997   3.418  16.998  0.00  0.00    +0.000 A 
ATOM     16  C   UNL     1      49.588   2.146  16.936  0.00  0.00    +0.000 A 
ATOM     17  C   UNL     1      50.917   1.964  17.321  0.00  0.00    +0.000 A 
ATOM     18  C   UNL     1      51.663   3.053  17.756  0.00  0.00    +0.000 A 
ATOM     19  F   UNL     1      52.940   2.877  18.118  0.00  0.00    +0.000 F 
ATOM     20  C   UNL     1      51.105   4.324  17.810  0.00  0.00    +0.000 A 
ATOM     21  C   UNL     1      49.775   4.508  17.426  0.00  0.00    +0.000 A 
ENDBRANCH  14  15
ENDBRANCH  13  14
ENDBRANCH   4  13
TORSDOF 4
ENDMDL
MODEL 8
REMARK VINA RESULT:    -5.579      3.762      5.814
REMARK INTER + INTRA:          -7.191
REMARK INTER:                  -6.649
REMARK INTRA:                  -0.542
REMARK UNBOUND:                -0.307
REMARK  Name = 
REMARK  5 active torsions:
REMARK  status: ('A' for Active; 'I' for Inactive)
REMARK    1  A    between atoms: C_1  and  C_2
REMARK    2  A    between atoms: C_4  and  O_5
REMARK    3  A    between atoms: O_5  and  C_6
REMARK    4  A    between atoms: C_6  and  C_7
REMARK    5  A    between atoms: C_16  and  C_17
REMARK                            x       y       z     vdW  Elec       q    Type
REMARK                         _______ _______ _______ _____ _____    ______ ____
ROOT
ATOM      1  C   UNL     1      45.280   4.538   9.351  0.00  0.00    +0.000 C 
ATOM      2  C   UNL     1      45.125   5.331  10.618  0.00  0.00    +0.000 A 
ATOM      3  C   UNL     1      45.560   6.666  10.645  0.00  0.00    +0.000 A 
ATOM      4  C   UNL     1      45.451   7.392  11.822  0.00  0.00    +0.000 A 
ATOM      5  N   UNL     1      44.918   6.894  12.955  0.00  0.00    +0.000 NA
ATOM      6  C   UNL     1      44.496   5.608  12.912  0.00  0.00    +0.000 A 
ATOM      7  C   UNL     1      44.567   4.787  11.789  0.00  0.00    +0.000 A 
ENDROOT
BRANCH   7   8
ATOM      8  C   UNL     1      44.108   3.376  11.882  0.00  0.00    +0.000 C 
ATOM      9  N   UNL     1      44.911   2.487  12.544  0.00  0.00    +0.000 N 
ATOM     10  O   UNL     1      43.046   2.996  11.404  0.00  0.00    +0.000 OA
ATOM     11  H   UNL     1      45.688   2.751  13.133  0.00  0.00    +0.000 HD
ATOM     12  H   UNL     1      44.544   1.548  12.652  0.00  0.00    +0.000 HD
ENDBRANCH   7   8
BRANCH   4  13
ATOM     13  O   UNL     1      45.895   8.698  11.796  0.00  0.00    +0.000 OA
BRANCH  13  14
ATOM     14  C   UNL     1      46.852   8.956  12.829  0.00  0.00    +0.000 C 
BRANCH  14  15
ATOM     15  C   UNL     1      48.261   8.963  12.270  0.00  0.00    +0.000 A 
ATOM     16  C   UNL     1      48.983   7.771  12.099  0.00  0.00    +0.000 A 
ATOM     17  C   UNL     1      50.253   7.791  11.518  0.00  0.00    +0.000 A 
ATOM     18  C   UNL     1      50.797   8.998  11.095  0.00  0.00    +0.000 A 
ATOM     19  F   UNL     1      52.012   9.013  10.533  0.00  0.00    +0.000 F 
ATOM     20  C   UNL     1      50.094  10.187  11.240  0.00  0.00    +0.000 A 
ATOM     21  C   UNL     1      48.825  10.169  11.821  0.00  0.00    +0.000 A 
ENDBRANCH  14  15
ENDBRANCH  13  14
ENDBRANCH   4  13
TORSDOF 4
ENDMDL
MODEL 9
REMARK VINA RESULT:    -5.499      4.610      6.586
REMARK INTER + INTRA:          -7.091
REMARK INTER:                  -6.666
REMARK INTRA:                  -0.426
REMARK UNBOUND:                -0.307
REMARK  Name = 
REMARK  5 active torsions:
REMARK  status: ('A' for Active; 'I' for Inactive)
REMARK    1  A    between atoms: C_1  and  C_2
REMARK    2  A    between atoms: C_4  and  O_5
REMARK    3  A    between atoms: O_5  and  C_6
REMARK    4  A    between atoms: C_6  and  C_7
REMARK    5  A    between atoms: C_16  and  C_17
REMARK                            x       y       z     vdW  Elec       q    Type
REMARK                         _______ _______ _______ _____ _____    ______ ____
ROOT
ATOM      1  C   UNL     1      44.912   7.981  11.530  0.00  0.00    +0.000 C 
ATOM      2  C   UNL     1      45.404   6.697  12.139  0.00  0.00    +0.000 A 
ATOM      3  C   UNL     1      46.627   6.694  12.830  0.00  0.00    +0.000 A 
ATOM      4  C   UNL     1      47.101   5.505  13.364  0.00  0.00    +0.000 A 
ATOM      5  N   UNL     1      46.435   4.336  13.284  0.00  0.00    +0.000 NA
ATOM      6  C   UNL     1      45.253   4.357  12.621  0.00  0.00    +0.000 A 
ATOM      7  C   UNL     1      44.690   5.489  12.039  0.00  0.00    +0.000 A 
ENDROOT
BRANCH   7   8
ATOM      8  C   UNL     1      43.405   5.372  11.302  0.00  0.00    +0.000 C 
ATOM      9  N   UNL     1      43.462   5.105   9.960  0.00  0.00    +0.000 N 
ATOM     10  O   UNL     1      42.317   5.493  11.851  0.00  0.00    +0.000 OA
ATOM     11  H   UNL     1      44.292   4.794   9.477  0.00  0.00    +0.000 HD
ATOM     12  H   UNL     1      42.573   4.962   9.495  0.00  0.00    +0.000 HD
ENDBRANCH   7   8
BRANCH   4  13
ATOM     13  O   UNL     1      48.309   5.555  14.030  0.00  0.00    +0.000 OA
BRANCH  13  14
ATOM     14  C   UNL     1      48.282   6.491  15.112  0.00  0.00    +0.000 C 
BRANCH  14  15
ATOM     15  C   UNL     1      48.471   5.785  16.440  0.00  0.00    +0.000 A 
ATOM     16  C   UNL     1      49.327   6.303  17.426  0.00  0.00    +0.000 A 
ATOM     17  C   UNL     1      49.435   5.676  18.669  0.00  0.00    +0.000 A 
ATOM     18  C   UNL     1      48.680   4.540  18.934  0.00  0.00    +0.000 A 
ATOM     19  F   UNL     1      48.780   3.944  20.130  0.00  0.00    +0.000 F 
ATOM     20  C   UNL     1      47.815   4.019  17.980  0.00  0.00    +0.000 A 
ATOM     21  C   UNL     1      47.706   4.644  16.737  0.00  0.00    +0.000 A 
ENDBRANCH  14  15
ENDBRANCH  13  14
ENDBRANCH   4  13
TORSDOF 4
ENDMDL
