MODEL 1
REMARK VINA RESULT:    -8.354      0.000      0.000
REMARK INTER + INTRA:         -11.649
REMARK INTER:                 -10.796
REMARK INTRA:                  -0.853
REMARK UNBOUND:                -0.853
REMARK  Name = 
REMARK  5 active torsions:
REMARK  status: ('A' for Active; 'I' for Inactive)
REMARK    1  A    between atoms: C_2  and  C_3
REMARK    2  A    between atoms: C_6  and  C_7
REMARK    3  A    between atoms: C_11  and  C_12
REMARK    4  A    between atoms: C_12  and  N_13
REMARK    5  A    between atoms: C_17  and  C_18
REMARK                            x       y       z     vdW  Elec       q    Type
REMARK                         _______ _______ _______ _____ _____    ______ ____
ROOT
ATOM      1  C   UNL     1      44.139   4.902  11.573  0.00  0.00    +0.000 C 
ATOM      2  C   UNL     1      43.254   6.062  11.154  0.00  0.00    +0.000 C 
ATOM      3  C   UNL     1      42.733   5.101  12.167  0.00  0.00    +0.000 C 
ENDROOT
BRANCH   1   4
ATOM      4  N   UNL     1      44.275   3.656  10.824  0.00  0.00    +0.000 N 
ATOM      5  C   UNL     1      45.079   3.401   9.723  0.00  0.00    +0.000 A 
ATOM      6  C   UNL     1      45.754   4.375   9.006  0.00  0.00    +0.000 A 
ATOM      7  C   UNL     1      46.469   4.008   7.859  0.00  0.00    +0.000 A 
ATOM      8  C   UNL     1      46.483   2.676   7.443  0.00  0.00    +0.000 A 
ATOM      9  C   UNL     1      45.801   1.769   8.233  0.00  0.00    +0.000 A 
ATOM     10  N   UNL     1      45.114   2.103   9.354  0.00  0.00    +0.000 NA
ATOM     11  H   UNL     1      44.095   2.780  11.308  0.00  0.00    +0.000 HD
BRANCH   8  12
ATOM     12  C   UNL     1      47.204   2.304   6.201  0.00  0.00    +0.000 C 
ATOM     13  N   UNL     1      47.107   3.128   5.108  0.00  0.00    +0.000 N 
ATOM     14  O   UNL     1      47.880   1.291   6.148  0.00  0.00    +0.000 OA
ATOM     15  H   UNL     1      46.602   3.999   5.061  0.00  0.00    +0.000 HD
ATOM     16  H   UNL     1      47.632   2.851   4.289  0.00  0.00    +0.000 HD
ENDBRANCH   8  12
ENDBRANCH   1   4
BRANCH   1  21
ATOM     17  C   UNL     1      47.234   6.477  12.818  0.00  0.00    +0.000 A 
ATOM     18  N   UNL     1      47.633   5.747  13.873  0.00  0.00    +0.000 NA
ATOM     19  C   UNL     1      46.815   4.753  14.243  0.00  0.00    +0.000 A 
ATOM     20  C   UNL     1      45.648   4.445  13.584  0.00  0.00    +0.000 A 
ATOM     21  C   UNL     1      45.334   5.212  12.473  0.00  0.00    +0.000 A 
ATOM     22  N   UNL     1      46.109   6.258  12.120  0.00  0.00    +0.000 NA
BRANCH  17  26
ATOM     23  C   UNL     1      49.797   9.628  11.413  0.00  0.00    +0.000 A 
ATOM     24  C   UNL     1      50.322   8.362  11.676  0.00  0.00    +0.000 A 
ATOM     25  C   UNL     1      49.484   7.345  12.140  0.00  0.00    +0.000 A 
ATOM     26  C   UNL     1      48.104   7.557  12.338  0.00  0.00    +0.000 A 
ATOM     27  C   UNL     1      47.601   8.842  12.074  0.00  0.00    +0.000 A 
ATOM     28  C   UNL     1      48.440   9.858  11.623  0.00  0.00    +0.000 A 
ATOM     29  F   UNL     1      47.911  11.067  11.391  0.00  0.00    +0.000 F 
BRANCH  23  31
ATOM     30  N   UNL     1      51.344  11.508  10.526  0.00  0.00    +0.000 NA
ATOM     31  C   UNL     1      50.645  10.677  10.941  0.00  0.00    +0.000 C 
ENDBRANCH  23  31
ENDBRANCH  17  26
ENDBRANCH   1  21
TORSDOF 5
ENDMDL
MODEL 2
REMARK VINA RESULT:    -8.209      2.864      4.482
REMARK INTER + INTRA:         -11.462
REMARK INTER:                 -11.056
REMARK INTRA:                  -0.406
REMARK UNBOUND:                -0.853
REMARK  Name = 
REMARK  5 active torsions:
REMARK  status: ('A' for Active; 'I' for Inactive)
REMARK    1  A    between atoms: C_2  and  C_3
REMARK    2  A    between atoms: C_6  and  C_7
REMARK    3  A    between atoms: C_11  and  C_12
REMARK    4  A    between atoms: C_12  and  N_13
REMARK    5  A    between atoms: C_17  and  C_18
REMARK                            x       y       z     vdW  Elec       q    Type
REMARK                         _______ _______ _______ _____ _____    ______ ____
ROOT
ATOM      1  C   UNL     1      43.947   4.921  11.544  0.00  0.00    +0.000 C 
ATOM      2  C   UNL     1      42.650   5.691  11.376  0.00  0.00    +0.000 C 
ATOM      3  C   UNL     1      42.813   4.826  12.579  0.00  0.00    +0.000 C 
ENDROOT
BRANCH   1   4
ATOM      4  N   UNL     1      44.240   3.645  10.895  0.00  0.00    +0.000 N 
ATOM      5  C   UNL     1      45.034   3.413   9.781  0.00  0.00    +0.000 A 
ATOM      6  C   UNL     1      45.532   4.407   8.955  0.00  0.00    +0.000 A 
ATOM      7  C   UNL     1      46.253   4.046   7.809  0.00  0.00    +0.000 A 
ATOM      8  C   UNL     1      46.449   2.699   7.505  0.00  0.00    +0.000 A 
ATOM      9  C   UNL     1      45.937   1.777   8.399  0.00  0.00    +0.000 A 
ATOM     10  N   UNL     1      45.248   2.106   9.519  0.00  0.00    +0.000 NA
ATOM     11  H   UNL     1      44.209   2.800  11.458  0.00  0.00    +0.000 HD
BRANCH   8  12
ATOM     12  C   UNL     1      47.174   2.326   6.265  0.00  0.00    +0.000 C 
ATOM     13  N   UNL     1      47.076   3.147   5.170  0.00  0.00    +0.000 N 
ATOM     14  O   UNL     1      47.853   1.315   6.216  0.00  0.00    +0.000 OA
ATOM     15  H   UNL     1      46.568   4.016   5.120  0.00  0.00    +0.000 HD
ATOM     16  H   UNL     1      47.603   2.870   4.353  0.00  0.00    +0.000 HD
ENDBRANCH   8  12
ENDBRANCH   1   4
BRANCH   1  21
ATOM     17  C   UNL     1      46.889   6.041  13.468  0.00  0.00    +0.000 A 
ATOM     18  N   UNL     1      47.323   7.166  12.875  0.00  0.00    +0.000 NA
ATOM     19  C   UNL     1      46.682   7.527  11.756  0.00  0.00    +0.000 A 
ATOM     20  C   UNL     1      45.615   6.832  11.236  0.00  0.00    +0.000 A 
ATOM     21  C   UNL     1      45.195   5.712  11.935  0.00  0.00    +0.000 A 
ATOM     22  N   UNL     1      45.865   5.295  13.028  0.00  0.00    +0.000 NA
BRANCH  17  26
ATOM     23  C   UNL     1      48.761   4.803  17.133  0.00  0.00    +0.000 A 
ATOM     24  C   UNL     1      49.137   6.001  16.523  0.00  0.00    +0.000 A 
ATOM     25  C   UNL     1      48.529   6.393  15.328  0.00  0.00    +0.000 A 
ATOM     26  C   UNL     1      47.525   5.613  14.719  0.00  0.00    +0.000 A 
ATOM     27  C   UNL     1      47.170   4.408  15.348  0.00  0.00    +0.000 A 
ATOM     28  C   UNL     1      47.785   4.013  16.533  0.00  0.00    +0.000 A 
ATOM     29  F   UNL     1      47.413   2.851  17.089  0.00  0.00    +0.000 F 
BRANCH  23  31
ATOM     30  N   UNL     1      49.869   4.090  19.364  0.00  0.00    +0.000 NA
ATOM     31  C   UNL     1      49.377   4.390  18.355  0.00  0.00    +0.000 C 
ENDBRANCH  23  31
ENDBRANCH  17  26
ENDBRANCH   1  21
TORSDOF 5
ENDMDL
MODEL 3
REMARK VINA RESULT:    -7.154      5.408      8.726
REMARK INTER + INTRA:         -10.099
REMARK INTER:                  -9.260
REMARK INTRA:                  -0.839
REMARK UNBOUND:                -0.853
REMARK  Name = 
REMARK  5 active torsions:
REMARK  status: ('A' for Active; 'I' for Inactive)
REMARK    1  A    between atoms: C_2  and  C_3
REMARK    2  A    between atoms: C_6  and  C_7
REMARK    3  A    between atoms: C_11  and  C_12
REMARK    4  A    between atoms: C_12  and  N_13
REMARK    5  A    between atoms: C_17  and  C_18
REMARK                            x       y       z     vdW  Elec       q    Type
REMARK                         _______ _______ _______ _____ _____    ______ ____
ROOT
ATOM      1  C   UNL     1      49.007   5.255  17.783  0.00  0.00    +0.000 C 
ATOM      2  C   UNL     1      47.685   4.584  18.111  0.00  0.00    +0.000 C 
ATOM      3  C   UNL     1      48.042   5.840  18.830  0.00  0.00    +0.000 C 
ENDROOT
BRANCH   1   4
ATOM      4  N   UNL     1      50.295   4.859  18.347  0.00  0.00    +0.000 N 
ATOM      5  C   UNL     1      51.025   3.708  18.092  0.00  0.00    +0.000 A 
ATOM      6  C   UNL     1      50.541   2.615  17.393  0.00  0.00    +0.000 A 
ATOM      7  C   UNL     1      51.342   1.472  17.270  0.00  0.00    +0.000 A 
ATOM      8  C   UNL     1      52.605   1.440  17.862  0.00  0.00    +0.000 A 
ATOM      9  C   UNL     1      53.014   2.585  18.520  0.00  0.00    +0.000 A 
ATOM     10  N   UNL     1      52.259   3.705  18.638  0.00  0.00    +0.000 NA
ATOM     11  H   UNL     1      50.931   5.590  18.653  0.00  0.00    +0.000 HD
BRANCH   8  12
ATOM     12  C   UNL     1      53.427   0.209  17.766  0.00  0.00    +0.000 C 
ATOM     13  N   UNL     1      53.119  -0.857  18.574  0.00  0.00    +0.000 N 
ATOM     14  O   UNL     1      54.357   0.135  16.980  0.00  0.00    +0.000 OA
ATOM     15  H   UNL     1      52.356  -0.906  19.231  0.00  0.00    +0.000 HD
ATOM     16  H   UNL     1      53.689  -1.685  18.462  0.00  0.00    +0.000 HD
ENDBRANCH   8  12
ENDBRANCH   1   4
BRANCH   1  21
ATOM     17  C   UNL     1      48.307   6.246  14.299  0.00  0.00    +0.000 A 
ATOM     18  N   UNL     1      49.317   7.049  13.923  0.00  0.00    +0.000 NA
ATOM     19  C   UNL     1      50.217   7.344  14.870  0.00  0.00    +0.000 A 
ATOM     20  C   UNL     1      50.163   6.845  16.150  0.00  0.00    +0.000 A 
ATOM     21  C   UNL     1      49.119   5.982  16.443  0.00  0.00    +0.000 A 
ATOM     22  N   UNL     1      48.167   5.721  15.525  0.00  0.00    +0.000 NA
BRANCH  17  26
ATOM     23  C   UNL     1      45.389   5.111  11.355  0.00  0.00    +0.000 A 
ATOM     24  C   UNL     1      46.183   6.242  11.156  0.00  0.00    +0.000 A 
ATOM     25  C   UNL     1      47.124   6.609  12.121  0.00  0.00    +0.000 A 
ATOM     26  C   UNL     1      47.309   5.854  13.298  0.00  0.00    +0.000 A 
ATOM     27  C   UNL     1      46.492   4.725  13.479  0.00  0.00    +0.000 A 
ATOM     28  C   UNL     1      45.547   4.367  12.521  0.00  0.00    +0.000 A 
ATOM     29  F   UNL     1      44.790   3.285  12.745  0.00  0.00    +0.000 F 
BRANCH  23  31
ATOM     30  N   UNL     1      43.664   4.402   9.557  0.00  0.00    +0.000 NA
ATOM     31  C   UNL     1      44.421   4.727  10.376  0.00  0.00    +0.000 C 
ENDBRANCH  23  31
ENDBRANCH  17  26
ENDBRANCH   1  21
TORSDOF 5
ENDMDL
MODEL 4
REMARK VINA RESULT:    -7.044      5.181      8.743
REMARK INTER + INTRA:          -9.956
REMARK INTER:                  -9.077
REMARK INTRA:                  -0.879
REMARK UNBOUND:                -0.853
REMARK  Name = 
REMARK  5 active torsions:
REMARK  status: ('A' for Active; 'I' for Inactive)
REMARK    1  A    between atoms: C_2  and  C_3
REMARK    2  A    between atoms: C_6  and  C_7
REMARK    3  A    between atoms: C_11  and  C_12
REMARK    4  A    between atoms: C_12  and  N_13
REMARK    5  A    between atoms: C_17  and  C_18
REMARK                            x       y       z     vdW  Elec       q    Type
REMARK                         _______ _______ _______ _____ _____    ______ ____
ROOT
ATOM      1  C   UNL     1      49.176   5.823  17.909  0.00  0.00    +0.000 C 
ATOM      2  C   UNL     1      47.839   5.417  18.503  0.00  0.00    +0.000 C 
ATOM      3  C   UNL     1      48.450   6.704  18.942  0.00  0.00    +0.000 C 
ENDROOT
BRANCH   1   4
ATOM      4  N   UNL     1      50.470   5.335  18.378  0.00  0.00    +0.000 N 
ATOM      5  C   UNL     1      51.082   4.123  18.097  0.00  0.00    +0.000 A 
ATOM      6  C   UNL     1      50.456   3.059  17.469  0.00  0.00    +0.000 A 
ATOM      7  C   UNL     1      51.151   1.851  17.314  0.00  0.00    +0.000 A 
ATOM      8  C   UNL     1      52.451   1.729  17.804  0.00  0.00    +0.000 A 
ATOM      9  C   UNL     1      53.004   2.849  18.395  0.00  0.00    +0.000 A 
ATOM     10  N   UNL     1      52.353   4.030  18.543  0.00  0.00    +0.000 NA
ATOM     11  H   UNL     1      51.186   6.018  18.612  0.00  0.00    +0.000 HD
BRANCH   8  12
ATOM     12  C   UNL     1      53.161   0.432  17.676  0.00  0.00    +0.000 C 
ATOM     13  N   UNL     1      52.821  -0.594  18.520  0.00  0.00    +0.000 N 
ATOM     14  O   UNL     1      54.028   0.272  16.833  0.00  0.00    +0.000 OA
ATOM     15  H   UNL     1      52.101  -0.573  19.226  0.00  0.00    +0.000 HD
ATOM     16  H   UNL     1      53.312  -1.468  18.386  0.00  0.00    +0.000 HD
ENDBRANCH   8  12
ENDBRANCH   1   4
BRANCH   1  21
ATOM     17  C   UNL     1      48.290   6.123  14.341  0.00  0.00    +0.000 A 
ATOM     18  N   UNL     1      49.224   6.912  13.783  0.00  0.00    +0.000 NA
ATOM     19  C   UNL     1      50.130   7.433  14.620  0.00  0.00    +0.000 A 
ATOM     20  C   UNL     1      50.155   7.169  15.970  0.00  0.00    +0.000 A 
ATOM     21  C   UNL     1      49.189   6.303  16.458  0.00  0.00    +0.000 A 
ATOM     22  N   UNL     1      48.230   5.818  15.645  0.00  0.00    +0.000 NA
BRANCH  17  26
ATOM     23  C   UNL     1      45.366   4.254  11.804  0.00  0.00    +0.000 A 
ATOM     24  C   UNL     1      45.880   3.568  12.906  0.00  0.00    +0.000 A 
ATOM     25  C   UNL     1      46.836   4.179  13.721  0.00  0.00    +0.000 A 
ATOM     26  C   UNL     1      47.292   5.489  13.471  0.00  0.00    +0.000 A 
ATOM     27  C   UNL     1      46.766   6.156  12.352  0.00  0.00    +0.000 A 
ATOM     28  C   UNL     1      45.821   5.542  11.534  0.00  0.00    +0.000 A 
ATOM     29  F   UNL     1      45.355   6.219  10.476  0.00  0.00    +0.000 F 
BRANCH  23  31
ATOM     30  N   UNL     1      43.570   3.141  10.306  0.00  0.00    +0.000 NA
ATOM     31  C   UNL     1      44.390   3.639  10.961  0.00  0.00    +0.000 C 
ENDBRANCH  23  31
ENDBRANCH  17  26
ENDBRANCH   1  21
TORSDOF 5
ENDMDL
MODEL 5
REMARK VINA RESULT:    -6.466      4.862      7.411
REMARK INTER + INTRA:          -9.209
REMARK INTER:                  -8.332
REMARK INTRA:                  -0.877
REMARK UNBOUND:                -0.853
REMARK  Name = 
REMARK  5 active torsions:
REMARK  status: ('A' for Active; 'I' for Inactive)
REMARK    1  A    between atoms: C_2  and  C_3
REMARK    2  A    between atoms: C_6  and  C_7
REMARK    3  A    between atoms: C_11  and  C_12
REMARK    4  A    between atoms: C_12  and  N_13
REMARK    5  A    between atoms: C_17  and  C_18
REMARK                            x       y       z     vdW  Elec       q    Type
REMARK                         _______ _______ _______ _____ _____    ______ ____
ROOT
ATOM      1  C   UNL     1      48.857   7.975  13.649  0.00  0.00    +0.000 C 
ATOM      2  C   UNL     1      50.013   7.658  12.718  0.00  0.00    +0.000 C 
ATOM      3  C   UNL     1      49.681   9.088  12.978  0.00  0.00    +0.000 C 
ENDROOT
BRANCH   1   4
ATOM      4  N   UNL     1      47.452   7.979  13.248  0.00  0.00    +0.000 N 
ATOM      5  C   UNL     1      46.590   6.898  13.134  0.00  0.00    +0.000 A 
ATOM      6  C   UNL     1      46.988   5.573  13.189  0.00  0.00    +0.000 A 
ATOM      7  C   UNL     1      46.037   4.564  12.977  0.00  0.00    +0.000 A 
ATOM      8  C   UNL     1      44.713   4.903  12.700  0.00  0.00    +0.000 A 
ATOM      9  C   UNL     1      44.403   6.250  12.688  0.00  0.00    +0.000 A 
ATOM     10  N   UNL     1      45.305   7.240  12.904  0.00  0.00    +0.000 NA
ATOM     11  H   UNL     1      46.905   8.818  13.418  0.00  0.00    +0.000 HD
BRANCH   8  12
ATOM     12  C   UNL     1      43.724   3.830  12.431  0.00  0.00    +0.000 C 
ATOM     13  N   UNL     1      42.684   4.088  11.574  0.00  0.00    +0.000 N 
ATOM     14  O   UNL     1      43.833   2.733  12.952  0.00  0.00    +0.000 OA
ATOM     15  H   UNL     1      42.525   4.947  11.072  0.00  0.00    +0.000 HD
ATOM     16  H   UNL     1      42.046   3.323  11.399  0.00  0.00    +0.000 HD
ENDBRANCH   8  12
ENDBRANCH   1   4
BRANCH   1  21
ATOM     17  C   UNL     1      49.928   6.390  16.803  0.00  0.00    +0.000 A 
ATOM     18  N   UNL     1      49.351   7.091  17.794  0.00  0.00    +0.000 NA
ATOM     19  C   UNL     1      48.654   8.171  17.422  0.00  0.00    +0.000 A 
ATOM     20  C   UNL     1      48.486   8.551  16.110  0.00  0.00    +0.000 A 
ATOM     21  C   UNL     1      49.068   7.745  15.145  0.00  0.00    +0.000 A 
ATOM     22  N   UNL     1      49.827   6.690  15.500  0.00  0.00    +0.000 NA
BRANCH  17  26
ATOM     23  C   UNL     1      52.129   2.836  17.801  0.00  0.00    +0.000 A 
ATOM     24  C   UNL     1      52.764   4.079  17.807  0.00  0.00    +0.000 A 
ATOM     25  C   UNL     1      52.044   5.229  17.475  0.00  0.00    +0.000 A 
ATOM     26  C   UNL     1      50.674   5.173  17.142  0.00  0.00    +0.000 A 
ATOM     27  C   UNL     1      50.060   3.910  17.135  0.00  0.00    +0.000 A 
ATOM     28  C   UNL     1      50.782   2.763  17.456  0.00  0.00    +0.000 A 
ATOM     29  F   UNL     1      50.150   1.582  17.429  0.00  0.00    +0.000 F 
BRANCH  23  31
ATOM     30  N   UNL     1      53.426   0.687  18.444  0.00  0.00    +0.000 NA
ATOM     31  C   UNL     1      52.856   1.652  18.137  0.00  0.00    +0.000 C 
ENDBRANCH  23  31
ENDBRANCH  17  26
ENDBRANCH   1  21
TORSDOF 5
ENDMDL
MODEL 6
REMARK VINA RESULT:    -6.279      4.470      8.766
REMARK INTER + INTRA:          -8.968
REMARK INTER:                  -8.290
REMARK INTRA:                  -0.678
REMARK UNBOUND:                -0.853
REMARK  Name = 
REMARK  5 active torsions:
REMARK  status: ('A' for Active; 'I' for Inactive)
REMARK    1  A    between atoms: C_2  and  C_3
REMARK    2  A    between atoms: C_6  and  C_7
REMARK    3  A    between atoms: C_11  and  C_12
REMARK    4  A    between atoms: C_12  and  N_13
REMARK    5  A    between atoms: C_17  and  C_18
REMARK                            x       y       z     vdW  Elec       q    Type
REMARK                         _______ _______ _______ _____ _____    ______ ____
ROOT
ATOM      1  C   UNL     1      50.007   8.409  14.081  0.00  0.00    +0.000 C 
ATOM      2  C   UNL     1      50.861   9.624  14.394  0.00  0.00    +0.000 C 
ATOM      3  C   UNL     1      51.252   8.756  13.247  0.00  0.00    +0.000 C 
ENDROOT
BRANCH   1   4
ATOM      4  N   UNL     1      50.115   7.125  14.769  0.00  0.00    +0.000 N 
ATOM      5  C   UNL     1      49.555   6.752  15.981  0.00  0.00    +0.000 A 
ATOM      6  C   UNL     1      48.948   7.629  16.865  0.00  0.00    +0.000 A 
ATOM      7  C   UNL     1      48.492   7.150  18.100  0.00  0.00    +0.000 A 
ATOM      8  C   UNL     1      48.666   5.806  18.433  0.00  0.00    +0.000 A 
ATOM      9  C   UNL     1      49.261   5.000  17.480  0.00  0.00    +0.000 A 
ATOM     10  N   UNL     1      49.696   5.442  16.274  0.00  0.00    +0.000 NA
ATOM     11  H   UNL     1      50.273   6.291  14.210  0.00  0.00    +0.000 HD
BRANCH   8  12
ATOM     12  C   UNL     1      48.222   5.319  19.762  0.00  0.00    +0.000 C 
ATOM     13  N   UNL     1      48.523   4.031  20.128  0.00  0.00    +0.000 N 
ATOM     14  O   UNL     1      47.607   6.046  20.523  0.00  0.00    +0.000 OA
ATOM     15  H   UNL     1      49.050   3.365  19.586  0.00  0.00    +0.000 HD
ATOM     16  H   UNL     1      48.223   3.745  21.050  0.00  0.00    +0.000 HD
ENDBRANCH   8  12
ENDBRANCH   1   4
BRANCH   1  21
ATOM     17  C   UNL     1      46.682   7.734  12.633  0.00  0.00    +0.000 A 
ATOM     18  N   UNL     1      46.251   8.897  12.114  0.00  0.00    +0.000 NA
ATOM     19  C   UNL     1      47.039   9.960  12.319  0.00  0.00    +0.000 A 
ATOM     20  C   UNL     1      48.242   9.896  12.983  0.00  0.00    +0.000 A 
ATOM     21  C   UNL     1      48.640   8.650  13.441  0.00  0.00    +0.000 A 
ATOM     22  N   UNL     1      47.833   7.579  13.302  0.00  0.00    +0.000 NA
BRANCH  17  26
ATOM     23  C   UNL     1      44.345   4.184  11.996  0.00  0.00    +0.000 A 
ATOM     24  C   UNL     1      45.174   4.287  13.116  0.00  0.00    +0.000 A 
ATOM     25  C   UNL     1      45.936   5.441  13.311  0.00  0.00    +0.000 A 
ATOM     26  C   UNL     1      45.882   6.524  12.410  0.00  0.00    +0.000 A 
ATOM     27  C   UNL     1      45.047   6.393  11.288  0.00  0.00    +0.000 A 
ATOM     28  C   UNL     1      44.296   5.237  11.089  0.00  0.00    +0.000 A 
ATOM     29  F   UNL     1      43.519   5.161   9.999  0.00  0.00    +0.000 F 
BRANCH  23  31
ATOM     30  N   UNL     1      42.958   2.028  11.619  0.00  0.00    +0.000 NA
ATOM     31  C   UNL     1      43.562   3.007  11.784  0.00  0.00    +0.000 C 
ENDBRANCH  23  31
ENDBRANCH  17  26
ENDBRANCH   1  21
TORSDOF 5
ENDMDL
MODEL 7
REMARK VINA RESULT:    -5.804      4.694      7.421
REMARK INTER + INTRA:          -8.354
REMARK INTER:                  -7.507
REMARK INTRA:                  -0.847
REMARK UNBOUND:                -0.853
REMARK  Name = 
REMARK  5 active torsions:
REMARK  status: ('A' for Active; 'I' for Inactive)
REMARK    1  A    between atoms: C_2  and  C_3
REMARK    2  A    between atoms: C_6  and  C_7
REMARK    3  A    between atoms: C_11  and  C_12
REMARK    4  A    between atoms: C_12  and  N_13
REMARK    5  A    between atoms: C_17  and  C_18
REMARK                            x       y       z     vdW  Elec       q    Type
REMARK                         _______ _______ _______ _____ _____    ______ ____
ROOT
ATOM      1  C   UNL     1      49.536   8.499  12.394  0.00  0.00    +0.000 C 
ATOM      2  C   UNL     1      50.572   7.817  11.520  0.00  0.00    +0.000 C 
ATOM      3  C   UNL     1      50.384   9.289  11.382  0.00  0.00    +0.000 C 
ENDROOT
BRANCH   1   4
ATOM      4  N   UNL     1      48.105   8.539  12.100  0.00  0.00    +0.000 N 
ATOM      5  C   UNL     1      47.136   7.605  12.434  0.00  0.00    +0.000 A 
ATOM      6  C   UNL     1      47.405   6.345  12.941  0.00  0.00    +0.000 A 
ATOM      7  C   UNL     1      46.345   5.455  13.163  0.00  0.00    +0.000 A 
ATOM      8  C   UNL     1      45.039   5.839  12.859  0.00  0.00    +0.000 A 
ATOM      9  C   UNL     1      44.862   7.123  12.379  0.00  0.00    +0.000 A 
ATOM     10  N   UNL     1      45.873   8.003  12.170  0.00  0.00    +0.000 NA
ATOM     11  H   UNL     1      47.662   9.446  11.986  0.00  0.00    +0.000 HD
BRANCH   8  12
ATOM     12  C   UNL     1      43.929   4.873  13.053  0.00  0.00    +0.000 C 
ATOM     13  N   UNL     1      42.642   5.345  13.095  0.00  0.00    +0.000 N 
ATOM     14  O   UNL     1      44.150   3.679  13.165  0.00  0.00    +0.000 OA
ATOM     15  H   UNL     1      42.355   6.305  12.981  0.00  0.00    +0.000 HD
ATOM     16  H   UNL     1      41.913   4.653  13.205  0.00  0.00    +0.000 HD
ENDBRANCH   8  12
ENDBRANCH   1   4
BRANCH   1  21
ATOM     17  C   UNL     1      50.654   7.713  15.820  0.00  0.00    +0.000 A 
ATOM     18  N   UNL     1      50.312   8.765  16.582  0.00  0.00    +0.000 NA
ATOM     19  C   UNL     1      49.770   9.807  15.937  0.00  0.00    +0.000 A 
ATOM     20  C   UNL     1      49.530   9.818  14.583  0.00  0.00    +0.000 A 
ATOM     21  C   UNL     1      49.863   8.673  13.877  0.00  0.00    +0.000 A 
ATOM     22  N   UNL     1      50.467   7.638  14.494  0.00  0.00    +0.000 NA
BRANCH  17  26
ATOM     23  C   UNL     1      52.287   4.227  17.732  0.00  0.00    +0.000 A 
ATOM     24  C   UNL     1      50.903   4.388  17.630  0.00  0.00    +0.000 A 
ATOM     25  C   UNL     1      50.380   5.527  17.014  0.00  0.00    +0.000 A 
ATOM     26  C   UNL     1      51.217   6.525  16.473  0.00  0.00    +0.000 A 
ATOM     27  C   UNL     1      52.605   6.343  16.595  0.00  0.00    +0.000 A 
ATOM     28  C   UNL     1      53.125   5.212  17.219  0.00  0.00    +0.000 A 
ATOM     29  F   UNL     1      54.456   5.091  17.315  0.00  0.00    +0.000 F 
BRANCH  23  31
ATOM     30  N   UNL     1      53.272   2.103  18.841  0.00  0.00    +0.000 NA
ATOM     31  C   UNL     1      52.833   3.066  18.362  0.00  0.00    +0.000 C 
ENDBRANCH  23  31
ENDBRANCH  17  26
ENDBRANCH   1  21
TORSDOF 5
ENDMDL
MODEL 8
REMARK VINA RESULT:    -5.798      5.513      8.250
REMARK INTER + INTRA:          -8.346
REMARK INTER:                  -7.587
REMARK INTRA:                  -0.760
REMARK UNBOUND:                -0.853
REMARK  Name = 
REMARK  5 active torsions:
REMARK  status: ('A' for Active; 'I' for Inactive)
REMARK    1  A    between atoms: C_2  and  C_3
REMARK    2  A    between atoms: C_6  and  C_7
REMARK    3  A    between atoms: C_11  and  C_12
REMARK    4  A    between atoms: C_12  and  N_13
REMARK    5  A    between atoms: C_17  and  C_18
REMARK                            x       y       z     vdW  Elec       q    Type
REMARK                         _______ _______ _______ _____ _____    ______ ____
ROOT
ATOM      1  C   UNL     1      49.968   7.876  15.326  0.00  0.00    +0.000 C 
ATOM      2  C   UNL     1      51.346   7.785  14.698  0.00  0.00    +0.000 C 
ATOM      3  C   UNL     1      51.032   8.963  15.556  0.00  0.00    +0.000 C 
ENDROOT
BRANCH   1   4
ATOM      4  N   UNL     1      48.778   8.372  14.639  0.00  0.00    +0.000 N 
ATOM      5  C   UNL     1      47.850   7.651  13.903  0.00  0.00    +0.000 A 
ATOM      6  C   UNL     1      48.014   6.331  13.517  0.00  0.00    +0.000 A 
ATOM      7  C   UNL     1      47.045   5.731  12.702  0.00  0.00    +0.000 A 
ATOM      8  C   UNL     1      45.940   6.469  12.276  0.00  0.00    +0.000 A 
ATOM      9  C   UNL     1      45.847   7.771  12.730  0.00  0.00    +0.000 A 
ATOM     10  N   UNL     1      46.767   8.365  13.529  0.00  0.00    +0.000 NA
ATOM     11  H   UNL     1      48.333   9.214  14.994  0.00  0.00    +0.000 HD
BRANCH   8  12
ATOM     12  C   UNL     1      44.943   5.839  11.375  0.00  0.00    +0.000 C 
ATOM     13  N   UNL     1      45.174   5.850  10.023  0.00  0.00    +0.000 N 
ATOM     14  O   UNL     1      43.939   5.312  11.822  0.00  0.00    +0.000 OA
ATOM     15  H   UNL     1      45.985   6.230   9.559  0.00  0.00    +0.000 HD
ATOM     16  H   UNL     1      44.483   5.390   9.445  0.00  0.00    +0.000 HD
ENDBRANCH   8  12
ENDBRANCH   1   4
BRANCH   1  21
ATOM     17  C   UNL     1      50.150   4.966  17.586  0.00  0.00    +0.000 A 
ATOM     18  N   UNL     1      49.089   5.055  18.405  0.00  0.00    +0.000 NA
ATOM     19  C   UNL     1      48.331   6.151  18.269  0.00  0.00    +0.000 A 
ATOM     20  C   UNL     1      48.573   7.129  17.333  0.00  0.00    +0.000 A 
ATOM     21  C   UNL     1      49.657   6.937  16.491  0.00  0.00    +0.000 A 
ATOM     22  N   UNL     1      50.470   5.873  16.652  0.00  0.00    +0.000 NA
BRANCH  17  26
ATOM     23  C   UNL     1      52.621   1.455  17.794  0.00  0.00    +0.000 A 
ATOM     24  C   UNL     1      51.288   1.352  17.390  0.00  0.00    +0.000 A 
ATOM     25  C   UNL     1      50.489   2.497  17.333  0.00  0.00    +0.000 A 
ATOM     26  C   UNL     1      50.998   3.771  17.659  0.00  0.00    +0.000 A 
ATOM     27  C   UNL     1      52.340   3.847  18.070  0.00  0.00    +0.000 A 
ATOM     28  C   UNL     1      53.131   2.704  18.137  0.00  0.00    +0.000 A 
ATOM     29  F   UNL     1      54.403   2.831  18.540  0.00  0.00    +0.000 F 
BRANCH  23  31
ATOM     30  N   UNL     1      54.145  -0.635  17.932  0.00  0.00    +0.000 NA
ATOM     31  C   UNL     1      53.447   0.291  17.859  0.00  0.00    +0.000 C 
ENDBRANCH  23  31
ENDBRANCH  17  26
ENDBRANCH   1  21
TORSDOF 5
ENDMDL
