MODEL 1
REMARK VINA RESULT:    -7.874      0.000      0.000
REMARK INTER + INTRA:         -10.322
REMARK INTER:                 -10.405
REMARK INTRA:                   0.083
REMARK UNBOUND:                 0.083
REMARK  Name = 
REMARK  7 active torsions:
REMARK  status: ('A' for Active; 'I' for Inactive)
REMARK    1  A    between atoms: C_1  and  O_2
REMARK    2  A    between atoms: O_2  and  C_3
REMARK    3  A    between atoms: C_5  and  C_6
REMARK    4  A    between atoms: C_11  and  N_12
REMARK    5  A    between atoms: N_12  and  C_13
REMARK    6  A    between atoms: C_13  and  C_14
REMARK    7  A    between atoms: C_17  and  O_18
REMARK                            x       y       z     vdW  Elec       q    Type
REMARK                         _______ _______ _______ _____ _____    ______ ____
ROOT
ATOM      1  N   UNL     1      44.762   5.117   9.786  0.00  0.00    +0.000 N 
ATOM      2  H   UNL     1      43.847   5.514   9.583  0.00  0.00    +0.000 HD
ENDROOT
BRANCH   1   8
ATOM      3  C   UNL     1      44.623   6.563  11.721  0.00  0.00    +0.000 A 
ATOM      4  C   UNL     1      45.204   7.514  12.564  0.00  0.00    +0.000 A 
ATOM      5  C   UNL     1      46.556   7.835  12.434  0.00  0.00    +0.000 A 
ATOM      6  C   UNL     1      47.273   7.148  11.468  0.00  0.00    +0.000 A 
ATOM      7  N   UNL     1      46.739   6.223  10.624  0.00  0.00    +0.000 NA
ATOM      8  C   UNL     1      45.418   5.936  10.743  0.00  0.00    +0.000 A 
BRANCH   5   9
ATOM      9  C   UNL     1      47.108   8.893  13.319  0.00  0.00    +0.000 C 
ATOM     10  N   UNL     1      47.064   8.722  14.674  0.00  0.00    +0.000 N 
ATOM     11  O   UNL     1      47.607   9.908  12.857  0.00  0.00    +0.000 OA
ATOM     12  H   UNL     1      46.683   7.927  15.161  0.00  0.00    +0.000 HD
ATOM     13  H   UNL     1      47.463   9.464  15.233  0.00  0.00    +0.000 HD
ENDBRANCH   5   9
BRANCH   3  15
ATOM     14  C   UNL     1      42.960   5.357  12.909  0.00  0.00    +0.000 C 
ATOM     15  O   UNL     1      43.298   6.190  11.802  0.00  0.00    +0.000 OA
ENDBRANCH   3  15
ENDBRANCH   1   8
BRANCH   1  16
ATOM     16  C   UNL     1      44.875   3.644   9.787  0.00  0.00    +0.000 C 
ATOM     17  C   UNL     1      43.779   2.822  10.435  0.00  0.00    +0.000 C 
ATOM     18  C   UNL     1      45.087   2.967  11.137  0.00  0.00    +0.000 C 
BRANCH  16  19
ATOM     19  C   UNL     1      45.709   3.098   8.634  0.00  0.00    +0.000 A 
ATOM     20  C   UNL     1      46.339   3.941   7.702  0.00  0.00    +0.000 A 
ATOM     21  C   UNL     1      47.216   3.440   6.731  0.00  0.00    +0.000 A 
ATOM     22  C   UNL     1      47.471   2.075   6.677  0.00  0.00    +0.000 A 
ATOM     23  C   UNL     1      46.817   1.213   7.548  0.00  0.00    +0.000 A 
ATOM     24  F   UNL     1      47.047  -0.107   7.503  0.00  0.00    +0.000 F 
ATOM     25  C   UNL     1      45.939   1.713   8.507  0.00  0.00    +0.000 A 
BRANCH  22  26
ATOM     26  O   UNL     1      48.376   1.567   5.788  0.00  0.00    +0.000 OA
ATOM     27  H   UNL     1      48.082   1.773   4.886  0.00  0.00    +0.000 HD
ENDBRANCH  22  26
ENDBRANCH  16  19
ENDBRANCH   1  16
TORSDOF 6
ENDMDL
MODEL 2
REMARK VINA RESULT:    -7.852      3.036      7.072
REMARK INTER + INTRA:         -10.293
REMARK INTER:                  -9.771
REMARK INTRA:                  -0.522
REMARK UNBOUND:                 0.083
REMARK  Name = 
REMARK  7 active torsions:
REMARK  status: ('A' for Active; 'I' for Inactive)
REMARK    1  A    between atoms: C_1  and  O_2
REMARK    2  A    between atoms: O_2  and  C_3
REMARK    3  A    between atoms: C_5  and  C_6
REMARK    4  A    between atoms: C_11  and  N_12
REMARK    5  A    between atoms: N_12  and  C_13
REMARK    6  A    between atoms: C_13  and  C_14
REMARK    7  A    between atoms: C_17  and  O_18
REMARK                            x       y       z     vdW  Elec       q    Type
REMARK                         _______ _______ _______ _____ _____    ______ ____
ROOT
ATOM      1  N   UNL     1      44.164   5.531  10.424  0.00  0.00    +0.000 N 
ATOM      2  H   UNL     1      43.740   6.240   9.832  0.00  0.00    +0.000 HD
ENDROOT
BRANCH   1   8
ATOM      3  C   UNL     1      44.330   3.194   9.821  0.00  0.00    +0.000 A 
ATOM      4  C   UNL     1      44.999   2.160   9.159  0.00  0.00    +0.000 A 
ATOM      5  C   UNL     1      46.053   2.448   8.293  0.00  0.00    +0.000 A 
ATOM      6  C   UNL     1      46.367   3.784   8.109  0.00  0.00    +0.000 A 
ATOM      7  N   UNL     1      45.744   4.817   8.743  0.00  0.00    +0.000 NA
ATOM      8  C   UNL     1      44.735   4.524   9.601  0.00  0.00    +0.000 A 
BRANCH   5   9
ATOM      9  C   UNL     1      46.765   1.307   7.659  0.00  0.00    +0.000 C 
ATOM     10  N   UNL     1      47.808   1.556   6.813  0.00  0.00    +0.000 N 
ATOM     11  O   UNL     1      46.437   0.152   7.887  0.00  0.00    +0.000 OA
ATOM     12  H   UNL     1      48.165   2.464   6.559  0.00  0.00    +0.000 HD
ATOM     13  H   UNL     1      48.266   0.747   6.415  0.00  0.00    +0.000 HD
ENDBRANCH   5   9
BRANCH   3  15
ATOM     14  C   UNL     1      43.550   2.143  11.800  0.00  0.00    +0.000 C 
ATOM     15  O   UNL     1      43.273   2.982  10.680  0.00  0.00    +0.000 OA
ENDBRANCH   3  15
ENDBRANCH   1   8
BRANCH   1  16
ATOM     16  C   UNL     1      44.797   5.988  11.679  0.00  0.00    +0.000 C 
ATOM     17  C   UNL     1      45.534   4.982  12.541  0.00  0.00    +0.000 C 
ATOM     18  C   UNL     1      44.197   5.472  12.983  0.00  0.00    +0.000 C 
BRANCH  16  19
ATOM     19  C   UNL     1      45.181   7.462  11.664  0.00  0.00    +0.000 A 
ATOM     20  C   UNL     1      44.265   8.470  11.314  0.00  0.00    +0.000 A 
ATOM     21  C   UNL     1      44.583   9.829  11.437  0.00  0.00    +0.000 A 
ATOM     22  C   UNL     1      45.836  10.200  11.911  0.00  0.00    +0.000 A 
ATOM     23  C   UNL     1      46.780   9.225  12.209  0.00  0.00    +0.000 A 
ATOM     24  F   UNL     1      47.995   9.567  12.659  0.00  0.00    +0.000 F 
ATOM     25  C   UNL     1      46.464   7.874  12.078  0.00  0.00    +0.000 A 
BRANCH  22  26
ATOM     26  O   UNL     1      46.148  11.515  12.109  0.00  0.00    +0.000 OA
ATOM     27  H   UNL     1      46.019  11.732  13.047  0.00  0.00    +0.000 HD
ENDBRANCH  22  26
ENDBRANCH  16  19
ENDBRANCH   1  16
TORSDOF 6
ENDMDL
MODEL 3
REMARK VINA RESULT:    -7.590      2.180      2.372
REMARK INTER + INTRA:          -9.946
REMARK INTER:                  -9.669
REMARK INTRA:                  -0.277
REMARK UNBOUND:                 0.083
REMARK  Name = 
REMARK  7 active torsions:
REMARK  status: ('A' for Active; 'I' for Inactive)
REMARK    1  A    between atoms: C_1  and  O_2
REMARK    2  A    between atoms: O_2  and  C_3
REMARK    3  A    between atoms: C_5  and  C_6
REMARK    4  A    between atoms: C_11  and  N_12
REMARK    5  A    between atoms: N_12  and  C_13
REMARK    6  A    between atoms: C_13  and  C_14
REMARK    7  A    between atoms: C_17  and  O_18
REMARK                            x       y       z     vdW  Elec       q    Type
REMARK                         _______ _______ _______ _____ _____    ______ ____
ROOT
ATOM      1  N   UNL     1      45.429   3.737  12.224  0.00  0.00    +0.000 N 
ATOM      2  H   UNL     1      46.016   2.916  12.348  0.00  0.00    +0.000 HD
ENDROOT
BRANCH   1   8
ATOM      3  C   UNL     1      46.977   4.869  13.699  0.00  0.00    +0.000 A 
ATOM      4  C   UNL     1      47.590   6.046  14.135  0.00  0.00    +0.000 A 
ATOM      5  C   UNL     1      47.416   7.233  13.423  0.00  0.00    +0.000 A 
ATOM      6  C   UNL     1      46.649   7.167  12.272  0.00  0.00    +0.000 A 
ATOM      7  N   UNL     1      46.029   6.041  11.822  0.00  0.00    +0.000 NA
ATOM      8  C   UNL     1      46.185   4.898  12.535  0.00  0.00    +0.000 A 
BRANCH   5   9
ATOM      9  C   UNL     1      48.046   8.467  13.962  0.00  0.00    +0.000 C 
ATOM     10  N   UNL     1      47.529   9.045  15.087  0.00  0.00    +0.000 N 
ATOM     11  O   UNL     1      49.021   8.967  13.421  0.00  0.00    +0.000 OA
ATOM     12  H   UNL     1      46.736   8.716  15.614  0.00  0.00    +0.000 HD
ATOM     13  H   UNL     1      47.999   9.876  15.421  0.00  0.00    +0.000 HD
ENDBRANCH   5   9
BRANCH   3  15
ATOM     14  C   UNL     1      47.495   3.737  15.719  0.00  0.00    +0.000 C 
ATOM     15  O   UNL     1      47.115   3.660  14.346  0.00  0.00    +0.000 OA
ENDBRANCH   3  15
ENDBRANCH   1   8
BRANCH   1  16
ATOM     16  C   UNL     1      44.441   3.700  11.125  0.00  0.00    +0.000 C 
ATOM     17  C   UNL     1      43.172   4.521  11.249  0.00  0.00    +0.000 C 
ATOM     18  C   UNL     1      43.098   3.042  11.425  0.00  0.00    +0.000 C 
BRANCH  16  19
ATOM     19  C   UNL     1      45.051   3.370   9.769  0.00  0.00    +0.000 A 
ATOM     20  C   UNL     1      45.406   4.369   8.846  0.00  0.00    +0.000 A 
ATOM     21  C   UNL     1      46.094   4.067   7.662  0.00  0.00    +0.000 A 
ATOM     22  C   UNL     1      46.432   2.749   7.383  0.00  0.00    +0.000 A 
ATOM     23  C   UNL     1      46.043   1.735   8.250  0.00  0.00    +0.000 A 
ATOM     24  F   UNL     1      46.355   0.458   7.991  0.00  0.00    +0.000 F 
ATOM     25  C   UNL     1      45.352   2.037   9.422  0.00  0.00    +0.000 A 
BRANCH  22  26
ATOM     26  O   UNL     1      47.165   2.434   6.274  0.00  0.00    +0.000 OA
ATOM     27  H   UNL     1      48.050   2.826   6.359  0.00  0.00    +0.000 HD
ENDBRANCH  22  26
ENDBRANCH  16  19
ENDBRANCH   1  16
TORSDOF 6
ENDMDL
MODEL 4
REMARK VINA RESULT:    -6.842      5.471      7.080
REMARK INTER + INTRA:          -8.958
REMARK INTER:                  -8.322
REMARK INTRA:                  -0.636
REMARK UNBOUND:                 0.083
REMARK  Name = 
REMARK  7 active torsions:
REMARK  status: ('A' for Active; 'I' for Inactive)
REMARK    1  A    between atoms: C_1  and  O_2
REMARK    2  A    between atoms: O_2  and  C_3
REMARK    3  A    between atoms: C_5  and  C_6
REMARK    4  A    between atoms: C_11  and  N_12
REMARK    5  A    between atoms: N_12  and  C_13
REMARK    6  A    between atoms: C_13  and  C_14
REMARK    7  A    between atoms: C_17  and  O_18
REMARK                            x       y       z     vdW  Elec       q    Type
REMARK                         _______ _______ _______ _____ _____    ______ ____
ROOT
ATOM      1  N   UNL     1      46.881   5.251  15.417  0.00  0.00    +0.000 N 
ATOM      2  H   UNL     1      45.964   5.125  15.839  0.00  0.00    +0.000 HD
ENDROOT
BRANCH   1   8
ATOM      3  C   UNL     1      48.816   5.025  16.851  0.00  0.00    +0.000 A 
ATOM      4  C   UNL     1      49.855   4.244  17.366  0.00  0.00    +0.000 A 
ATOM      5  C   UNL     1      49.892   2.873  17.116  0.00  0.00    +0.000 A 
ATOM      6  C   UNL     1      48.849   2.341  16.375  0.00  0.00    +0.000 A 
ATOM      7  N   UNL     1      47.827   3.072  15.849  0.00  0.00    +0.000 NA
ATOM      8  C   UNL     1      47.813   4.409  16.079  0.00  0.00    +0.000 A 
BRANCH   5   9
ATOM      9  C   UNL     1      51.048   2.100  17.642  0.00  0.00    +0.000 C 
ATOM     10  N   UNL     1      51.972   2.731  18.427  0.00  0.00    +0.000 N 
ATOM     11  O   UNL     1      51.182   0.912  17.390  0.00  0.00    +0.000 OA
ATOM     12  H   UNL     1      51.958   3.700  18.701  0.00  0.00    +0.000 HD
ATOM     13  H   UNL     1      52.733   2.160  18.769  0.00  0.00    +0.000 HD
ENDBRANCH   5   9
BRANCH   3  15
ATOM     14  C   UNL     1      49.750   7.178  16.502  0.00  0.00    +0.000 C 
ATOM     15  O   UNL     1      48.711   6.382  17.068  0.00  0.00    +0.000 OA
ENDBRANCH   3  15
ENDBRANCH   1   8
BRANCH   1  16
ATOM     16  C   UNL     1      46.926   5.503  13.962  0.00  0.00    +0.000 C 
ATOM     17  C   UNL     1      48.256   5.834  13.313  0.00  0.00    +0.000 C 
ATOM     18  C   UNL     1      47.257   6.923  13.516  0.00  0.00    +0.000 C 
BRANCH  16  19
ATOM     19  C   UNL     1      45.810   4.810  13.190  0.00  0.00    +0.000 A 
ATOM     20  C   UNL     1      45.974   3.534  12.623  0.00  0.00    +0.000 A 
ATOM     21  C   UNL     1      44.903   2.845  12.037  0.00  0.00    +0.000 A 
ATOM     22  C   UNL     1      43.644   3.434  12.006  0.00  0.00    +0.000 A 
ATOM     23  C   UNL     1      43.468   4.719  12.507  0.00  0.00    +0.000 A 
ATOM     24  F   UNL     1      42.262   5.303  12.476  0.00  0.00    +0.000 F 
ATOM     25  C   UNL     1      44.536   5.404  13.081  0.00  0.00    +0.000 A 
BRANCH  22  26
ATOM     26  O   UNL     1      42.567   2.758  11.507  0.00  0.00    +0.000 OA
ATOM     27  H   UNL     1      42.867   1.906  11.150  0.00  0.00    +0.000 HD
ENDBRANCH  22  26
ENDBRANCH  16  19
ENDBRANCH   1  16
TORSDOF 6
ENDMDL
MODEL 5
REMARK VINA RESULT:    -6.822      3.322      4.008
REMARK INTER + INTRA:          -8.933
REMARK INTER:                  -8.743
REMARK INTRA:                  -0.190
REMARK UNBOUND:                 0.083
REMARK  Name = 
REMARK  7 active torsions:
REMARK  status: ('A' for Active; 'I' for Inactive)
REMARK    1  A    between atoms: C_1  and  O_2
REMARK    2  A    between atoms: O_2  and  C_3
REMARK    3  A    between atoms: C_5  and  C_6
REMARK    4  A    between atoms: C_11  and  N_12
REMARK    5  A    between atoms: N_12  and  C_13
REMARK    6  A    between atoms: C_13  and  C_14
REMARK    7  A    between atoms: C_17  and  O_18
REMARK                            x       y       z     vdW  Elec       q    Type
REMARK                         _______ _______ _______ _____ _____    ______ ____
ROOT
ATOM      1  N   UNL     1      46.148   3.762  13.214  0.00  0.00    +0.000 N 
ATOM      2  H   UNL     1      46.856   3.278  12.667  0.00  0.00    +0.000 HD
ENDROOT
BRANCH   1   8
ATOM      3  C   UNL     1      47.579   5.587  13.904  0.00  0.00    +0.000 A 
ATOM      4  C   UNL     1      48.362   6.207  14.881  0.00  0.00    +0.000 A 
ATOM      5  C   UNL     1      48.354   5.731  16.192  0.00  0.00    +0.000 A 
ATOM      6  C   UNL     1      47.520   4.660  16.466  0.00  0.00    +0.000 A 
ATOM      7  N   UNL     1      46.751   4.025  15.538  0.00  0.00    +0.000 NA
ATOM      8  C   UNL     1      46.785   4.481  14.261  0.00  0.00    +0.000 A 
BRANCH   5   9
ATOM      9  C   UNL     1      49.248   6.393  17.179  0.00  0.00    +0.000 C 
ATOM     10  N   UNL     1      50.602   6.267  17.045  0.00  0.00    +0.000 N 
ATOM     11  O   UNL     1      48.793   7.053  18.101  0.00  0.00    +0.000 OA
ATOM     12  H   UNL     1      51.083   5.754  16.323  0.00  0.00    +0.000 HD
ATOM     13  H   UNL     1      51.167   6.745  17.734  0.00  0.00    +0.000 HD
ENDBRANCH   5   9
BRANCH   3  15
ATOM     14  C   UNL     1      47.441   7.422  12.406  0.00  0.00    +0.000 C 
ATOM     15  O   UNL     1      47.530   6.011  12.593  0.00  0.00    +0.000 OA
ENDBRANCH   3  15
ENDBRANCH   1   8
BRANCH   1  16
ATOM     16  C   UNL     1      44.973   4.286  12.487  0.00  0.00    +0.000 C 
ATOM     17  C   UNL     1      44.194   5.441  13.083  0.00  0.00    +0.000 C 
ATOM     18  C   UNL     1      43.609   4.071  13.133  0.00  0.00    +0.000 C 
BRANCH  16  19
ATOM     19  C   UNL     1      45.037   4.055  10.983  0.00  0.00    +0.000 A 
ATOM     20  C   UNL     1      45.387   5.078  10.084  0.00  0.00    +0.000 A 
ATOM     21  C   UNL     1      45.579   4.824   8.719  0.00  0.00    +0.000 A 
ATOM     22  C   UNL     1      45.416   3.532   8.232  0.00  0.00    +0.000 A 
ATOM     23  C   UNL     1      45.014   2.514   9.088  0.00  0.00    +0.000 A 
ATOM     24  F   UNL     1      44.844   1.266   8.632  0.00  0.00    +0.000 F 
ATOM     25  C   UNL     1      44.815   2.771  10.443  0.00  0.00    +0.000 A 
BRANCH  22  26
ATOM     26  O   UNL     1      45.667   3.242   6.921  0.00  0.00    +0.000 OA
ATOM     27  H   UNL     1      45.636   4.063   6.404  0.00  0.00    +0.000 HD
ENDBRANCH  22  26
ENDBRANCH  16  19
ENDBRANCH   1  16
TORSDOF 6
ENDMDL
MODEL 6
REMARK VINA RESULT:    -6.526      4.588      7.613
REMARK INTER + INTRA:          -8.541
REMARK INTER:                  -8.572
REMARK INTRA:                   0.030
REMARK UNBOUND:                 0.083
REMARK  Name = 
REMARK  7 active torsions:
REMARK  status: ('A' for Active; 'I' for Inactive)
REMARK    1  A    between atoms: C_1  and  O_2
REMARK    2  A    between atoms: O_2  and  C_3
REMARK    3  A    between atoms: C_5  and  C_6
REMARK    4  A    between atoms: C_11  and  N_12
REMARK    5  A    between atoms: N_12  and  C_13
REMARK    6  A    between atoms: C_13  and  C_14
REMARK    7  A    between atoms: C_17  and  O_18
REMARK                            x       y       z     vdW  Elec       q    Type
REMARK                         _______ _______ _______ _____ _____    ______ ____
ROOT
ATOM      1  N   UNL     1      46.195   5.838  13.975  0.00  0.00    +0.000 N 
ATOM      2  H   UNL     1      45.532   6.608  14.029  0.00  0.00    +0.000 HD
ENDROOT
BRANCH   1   8
ATOM      3  C   UNL     1      45.672   5.770  11.614  0.00  0.00    +0.000 A 
ATOM      4  C   UNL     1      45.223   5.064  10.495  0.00  0.00    +0.000 A 
ATOM      5  C   UNL     1      45.025   3.685  10.569  0.00  0.00    +0.000 A 
ATOM      6  C   UNL     1      45.324   3.072  11.774  0.00  0.00    +0.000 A 
ATOM      7  N   UNL     1      45.754   3.728  12.887  0.00  0.00    +0.000 NA
ATOM      8  C   UNL     1      45.921   5.072  12.811  0.00  0.00    +0.000 A 
BRANCH   5   9
ATOM      9  C   UNL     1      44.493   2.993   9.365  0.00  0.00    +0.000 C 
ATOM     10  N   UNL     1      44.272   3.711   8.223  0.00  0.00    +0.000 N 
ATOM     11  O   UNL     1      44.258   1.794   9.377  0.00  0.00    +0.000 OA
ATOM     12  H   UNL     1      44.435   4.698   8.100  0.00  0.00    +0.000 HD
ATOM     13  H   UNL     1      43.921   3.194   7.429  0.00  0.00    +0.000 HD
ENDBRANCH   5   9
BRANCH   3  15
ATOM     14  C   UNL     1      44.738   7.948  11.490  0.00  0.00    +0.000 C 
ATOM     15  O   UNL     1      45.901   7.130  11.609  0.00  0.00    +0.000 OA
ENDBRANCH   3  15
ENDBRANCH   1   8
BRANCH   1  16
ATOM     16  C   UNL     1      47.569   6.095  14.455  0.00  0.00    +0.000 C 
ATOM     17  C   UNL     1      48.237   7.411  14.107  0.00  0.00    +0.000 C 
ATOM     18  C   UNL     1      48.667   6.171  13.399  0.00  0.00    +0.000 C 
BRANCH  16  19
ATOM     19  C   UNL     1      47.923   5.329  15.724  0.00  0.00    +0.000 A 
ATOM     20  C   UNL     1      48.898   5.789  16.626  0.00  0.00    +0.000 A 
ATOM     21  C   UNL     1      49.119   5.155  17.857  0.00  0.00    +0.000 A 
ATOM     22  C   UNL     1      48.364   4.040  18.199  0.00  0.00    +0.000 A 
ATOM     23  C   UNL     1      47.434   3.530  17.300  0.00  0.00    +0.000 A 
ATOM     24  F   UNL     1      46.704   2.451  17.612  0.00  0.00    +0.000 F 
ATOM     25  C   UNL     1      47.223   4.157  16.074  0.00  0.00    +0.000 A 
BRANCH  22  26
ATOM     26  O   UNL     1      48.507   3.445  19.420  0.00  0.00    +0.000 OA
ATOM     27  H   UNL     1      47.704   2.936  19.620  0.00  0.00    +0.000 HD
ENDBRANCH  22  26
ENDBRANCH  16  19
ENDBRANCH   1  16
TORSDOF 6
ENDMDL
MODEL 7
REMARK VINA RESULT:    -6.371      3.893      5.199
REMARK INTER + INTRA:          -8.336
REMARK INTER:                  -8.191
REMARK INTRA:                  -0.144
REMARK UNBOUND:                 0.083
REMARK  Name = 
REMARK  7 active torsions:
REMARK  status: ('A' for Active; 'I' for Inactive)
REMARK    1  A    between atoms: C_1  and  O_2
REMARK    2  A    between atoms: O_2  and  C_3
REMARK    3  A    between atoms: C_5  and  C_6
REMARK    4  A    between atoms: C_11  and  N_12
REMARK    5  A    between atoms: N_12  and  C_13
REMARK    6  A    between atoms: C_13  and  C_14
REMARK    7  A    between atoms: C_17  and  O_18
REMARK                            x       y       z     vdW  Elec       q    Type
REMARK                         _______ _______ _______ _____ _____    ______ ____
ROOT
ATOM      1  N   UNL     1      47.468   6.055  12.658  0.00  0.00    +0.000 N 
ATOM      2  H   UNL     1      48.340   6.521  12.421  0.00  0.00    +0.000 HD
ENDROOT
BRANCH   1   8
ATOM      3  C   UNL     1      48.310   6.414  14.897  0.00  0.00    +0.000 A 
ATOM      4  C   UNL     1      48.523   5.951  16.199  0.00  0.00    +0.000 A 
ATOM      5  C   UNL     1      47.948   4.751  16.618  0.00  0.00    +0.000 A 
ATOM      6  C   UNL     1      47.150   4.084  15.704  0.00  0.00    +0.000 A 
ATOM      7  N   UNL     1      46.929   4.500  14.426  0.00  0.00    +0.000 NA
ATOM      8  C   UNL     1      47.512   5.656  14.021  0.00  0.00    +0.000 A 
BRANCH   5   9
ATOM      9  C   UNL     1      48.252   4.278  17.994  0.00  0.00    +0.000 C 
ATOM     10  N   UNL     1      47.663   4.898  19.060  0.00  0.00    +0.000 N 
ATOM     11  O   UNL     1      49.013   3.341  18.187  0.00  0.00    +0.000 OA
ATOM     12  H   UNL     1      47.020   5.672  19.017  0.00  0.00    +0.000 HD
ATOM     13  H   UNL     1      47.893   4.532  19.974  0.00  0.00    +0.000 HD
ENDBRANCH   5   9
BRANCH   3  15
ATOM     14  C   UNL     1      48.262   8.786  14.955  0.00  0.00    +0.000 C 
ATOM     15  O   UNL     1      48.837   7.596  14.420  0.00  0.00    +0.000 OA
ENDBRANCH   3  15
ENDBRANCH   1   8
BRANCH   1  16
ATOM     16  C   UNL     1      46.236   6.558  12.014  0.00  0.00    +0.000 C 
ATOM     17  C   UNL     1      46.096   8.044  11.753  0.00  0.00    +0.000 C 
ATOM     18  C   UNL     1      45.317   7.428  12.865  0.00  0.00    +0.000 C 
BRANCH  16  19
ATOM     19  C   UNL     1      45.543   5.522  11.137  0.00  0.00    +0.000 A 
ATOM     20  C   UNL     1      45.760   5.452   9.750  0.00  0.00    +0.000 A 
ATOM     21  C   UNL     1      45.229   4.413   8.974  0.00  0.00    +0.000 A 
ATOM     22  C   UNL     1      44.462   3.426   9.581  0.00  0.00    +0.000 A 
ATOM     23  C   UNL     1      44.184   3.503  10.941  0.00  0.00    +0.000 A 
ATOM     24  F   UNL     1      43.439   2.564  11.539  0.00  0.00    +0.000 F 
ATOM     25  C   UNL     1      44.706   4.542  11.708  0.00  0.00    +0.000 A 
BRANCH  22  26
ATOM     26  O   UNL     1      43.992   2.363   8.863  0.00  0.00    +0.000 OA
ATOM     27  H   UNL     1      44.666   2.097   8.216  0.00  0.00    +0.000 HD
ENDBRANCH  22  26
ENDBRANCH  16  19
ENDBRANCH   1  16
TORSDOF 6
ENDMDL
MODEL 8
REMARK VINA RESULT:    -6.290      2.307      3.484
REMARK INTER + INTRA:          -8.229
REMARK INTER:                  -7.677
REMARK INTRA:                  -0.552
REMARK UNBOUND:                 0.083
REMARK  Name = 
REMARK  7 active torsions:
REMARK  status: ('A' for Active; 'I' for Inactive)
REMARK    1  A    between atoms: C_1  and  O_2
REMARK    2  A    between atoms: O_2  and  C_3
REMARK    3  A    between atoms: C_5  and  C_6
REMARK    4  A    between atoms: C_11  and  N_12
REMARK    5  A    between atoms: N_12  and  C_13
REMARK    6  A    between atoms: C_13  and  C_14
REMARK    7  A    between atoms: C_17  and  O_18
REMARK                            x       y       z     vdW  Elec       q    Type
REMARK                         _______ _______ _______ _____ _____    ______ ____
ROOT
ATOM      1  N   UNL     1      44.595   6.184  12.929  0.00  0.00    +0.000 N 
ATOM      2  H   UNL     1      44.460   5.549  13.711  0.00  0.00    +0.000 HD
ENDROOT
BRANCH   1   8
ATOM      3  C   UNL     1      46.167   8.018  12.782  0.00  0.00    +0.000 A 
ATOM      4  C   UNL     1      47.472   8.479  12.595  0.00  0.00    +0.000 A 
ATOM      5  C   UNL     1      48.535   7.578  12.553  0.00  0.00    +0.000 A 
ATOM      6  C   UNL     1      48.231   6.239  12.737  0.00  0.00    +0.000 A 
ATOM      7  N   UNL     1      46.970   5.753  12.912  0.00  0.00    +0.000 NA
ATOM      8  C   UNL     1      45.941   6.636  12.927  0.00  0.00    +0.000 A 
BRANCH   5   9
ATOM      9  C   UNL     1      49.896   8.118  12.297  0.00  0.00    +0.000 C 
ATOM     10  N   UNL     1      50.776   7.387  11.549  0.00  0.00    +0.000 N 
ATOM     11  O   UNL     1      50.238   9.206  12.736  0.00  0.00    +0.000 OA
ATOM     12  H   UNL     1      50.600   6.485  11.136  0.00  0.00    +0.000 HD
ATOM     13  H   UNL     1      51.685   7.802  11.394  0.00  0.00    +0.000 HD
ENDBRANCH   5   9
BRANCH   3  15
ATOM     14  C   UNL     1      45.105   9.978  11.968  0.00  0.00    +0.000 C 
ATOM     15  O   UNL     1      45.071   8.853  12.844  0.00  0.00    +0.000 OA
ENDBRANCH   3  15
ENDBRANCH   1   8
BRANCH   1  16
ATOM     16  C   UNL     1      43.850   5.893  11.686  0.00  0.00    +0.000 C 
ATOM     17  C   UNL     1      42.977   6.974  11.081  0.00  0.00    +0.000 C 
ATOM     18  C   UNL     1      42.330   5.832  11.789  0.00  0.00    +0.000 C 
BRANCH  16  19
ATOM     19  C   UNL     1      44.500   4.815  10.827  0.00  0.00    +0.000 A 
ATOM     20  C   UNL     1      44.283   3.445  11.056  0.00  0.00    +0.000 A 
ATOM     21  C   UNL     1      44.770   2.466  10.179  0.00  0.00    +0.000 A 
ATOM     22  C   UNL     1      45.491   2.850   9.055  0.00  0.00    +0.000 A 
ATOM     23  C   UNL     1      45.770   4.194   8.836  0.00  0.00    +0.000 A 
ATOM     24  F   UNL     1      46.471   4.579   7.761  0.00  0.00    +0.000 F 
ATOM     25  C   UNL     1      45.292   5.164   9.714  0.00  0.00    +0.000 A 
BRANCH  22  26
ATOM     26  O   UNL     1      45.915   1.923   8.146  0.00  0.00    +0.000 OA
ATOM     27  H   UNL     1      45.936   2.332   7.265  0.00  0.00    +0.000 HD
ENDBRANCH  22  26
ENDBRANCH  16  19
ENDBRANCH   1  16
TORSDOF 6
ENDMDL
MODEL 9
REMARK VINA RESULT:    -6.197      4.982      8.318
REMARK INTER + INTRA:          -8.106
REMARK INTER:                  -7.424
REMARK INTRA:                  -0.682
REMARK UNBOUND:                 0.083
REMARK  Name = 
REMARK  7 active torsions:
REMARK  status: ('A' for Active; 'I' for Inactive)
REMARK    1  A    between atoms: C_1  and  O_2
REMARK    2  A    between atoms: O_2  and  C_3
REMARK    3  A    between atoms: C_5  and  C_6
REMARK    4  A    between atoms: C_11  and  N_12
REMARK    5  A    between atoms: N_12  and  C_13
REMARK    6  A    between atoms: C_13  and  C_14
REMARK    7  A    between atoms: C_17  and  O_18
REMARK                            x       y       z     vdW  Elec       q    Type
REMARK                         _______ _______ _______ _____ _____    ______ ____
ROOT
ATOM      1  N   UNL     1      48.975   6.841  14.532  0.00  0.00    +0.000 N 
ATOM      2  H   UNL     1      49.788   6.322  14.208  0.00  0.00    +0.000 HD
ENDROOT
BRANCH   1   8
ATOM      3  C   UNL     1      46.904   6.996  13.292  0.00  0.00    +0.000 A 
ATOM      4  C   UNL     1      45.657   6.465  12.949  0.00  0.00    +0.000 A 
ATOM      5  C   UNL     1      45.310   5.175  13.349  0.00  0.00    +0.000 A 
ATOM      6  C   UNL     1      46.261   4.460  14.057  0.00  0.00    +0.000 A 
ATOM      7  N   UNL     1      47.482   4.947  14.417  0.00  0.00    +0.000 NA
ATOM      8  C   UNL     1      47.800   6.212  14.043  0.00  0.00    +0.000 A 
BRANCH   5   9
ATOM      9  C   UNL     1      43.951   4.682  13.004  0.00  0.00    +0.000 C 
ATOM     10  N   UNL     1      42.961   5.584  12.730  0.00  0.00    +0.000 N 
ATOM     11  O   UNL     1      43.706   3.485  12.954  0.00  0.00    +0.000 OA
ATOM     12  H   UNL     1      43.052   6.587  12.737  0.00  0.00    +0.000 HD
ATOM     13  H   UNL     1      42.057   5.199  12.491  0.00  0.00    +0.000 HD
ENDBRANCH   5   9
BRANCH   3  15
ATOM     14  C   UNL     1      46.273   9.190  12.648  0.00  0.00    +0.000 C 
ATOM     15  O   UNL     1      47.316   8.258  12.921  0.00  0.00    +0.000 OA
ENDBRANCH   3  15
ENDBRANCH   1   8
BRANCH   1  16
ATOM     16  C   UNL     1      49.054   7.447  15.878  0.00  0.00    +0.000 C 
ATOM     17  C   UNL     1      48.590   8.877  16.069  0.00  0.00    +0.000 C 
ATOM     18  C   UNL     1      50.052   8.584  16.067  0.00  0.00    +0.000 C 
BRANCH  16  19
ATOM     19  C   UNL     1      48.990   6.427  17.008  0.00  0.00    +0.000 A 
ATOM     20  C   UNL     1      48.045   6.518  18.045  0.00  0.00    +0.000 A 
ATOM     21  C   UNL     1      47.902   5.504  19.002  0.00  0.00    +0.000 A 
ATOM     22  C   UNL     1      48.714   4.379  18.935  0.00  0.00    +0.000 A 
ATOM     23  C   UNL     1      49.696   4.290  17.956  0.00  0.00    +0.000 A 
ATOM     24  F   UNL     1      50.493   3.216  17.884  0.00  0.00    +0.000 F 
ATOM     25  C   UNL     1      49.842   5.304  17.011  0.00  0.00    +0.000 A 
BRANCH  22  26
ATOM     26  O   UNL     1      48.549   3.343  19.810  0.00  0.00    +0.000 OA
ATOM     27  H   UNL     1      47.655   2.979  19.702  0.00  0.00    +0.000 HD
ENDBRANCH  22  26
ENDBRANCH  16  19
ENDBRANCH   1  16
TORSDOF 6
ENDMDL
