MODEL 1
REMARK VINA RESULT:    -8.232      0.000      0.000
REMARK INTER + INTRA:         -12.285
REMARK INTER:                 -11.119
REMARK INTRA:                  -1.166
REMARK UNBOUND:                -1.166
REMARK  Name = 
REMARK  6 active torsions:
REMARK  status: ('A' for Active; 'I' for Inactive)
REMARK    1  A    between atoms: C_2  and  C_25
REMARK    2  A    between atoms: N_3  and  C_4
REMARK    3  A    between atoms: C_4  and  C_5
REMARK    4  A    between atoms: C_8  and  C_9
REMARK    5  A    between atoms: C_9  and  N_10
REMARK    6  A    between atoms: C_11  and  C_13
REMARK                            x       y       z     vdW  Elec       q    Type
REMARK                         _______ _______ _______ _____ _____    ______ ____
ROOT
ATOM      1  C   UNL     1      44.861   5.237  10.511  0.00  0.00    +0.000 A 
ATOM      2  C   UNL     1      44.212   5.559  11.711  0.00  0.00    +0.000 A 
ATOM      3  C   UNL     1      44.784   6.464  12.610  0.00  0.00    +0.000 A 
ATOM      4  C   UNL     1      46.007   7.083  12.319  0.00  0.00    +0.000 A 
ATOM      5  C   UNL     1      46.660   6.752  11.125  0.00  0.00    +0.000 A 
ATOM      6  C   UNL     1      46.089   5.848  10.225  0.00  0.00    +0.000 A 
ENDROOT
BRANCH   1   7
ATOM      7  C   UNL     1      44.248   4.258   9.547  0.00  0.00    +0.000 C 
BRANCH   7  10
ATOM      8  O   UNL     1      45.241   1.667   9.165  0.00  0.00    +0.000 OA
ATOM      9  C   UNL     1      45.597   2.560   8.404  0.00  0.00    +0.000 C 
ATOM     10  N   UNL     1      45.170   3.863   8.511  0.00  0.00    +0.000 N 
ATOM     11  H   UNL     1      45.483   4.525   7.809  0.00  0.00    +0.000 HD
BRANCH   9  12
ATOM     12  C   UNL     1      46.513   2.332   7.298  0.00  0.00    +0.000 A 
ATOM     13  C   UNL     1      47.436   1.314   7.204  0.00  0.00    +0.000 A 
ATOM     14  O   UNL     1      48.111   1.453   6.030  0.00  0.00    +0.000 OA
ATOM     15  C   UNL     1      47.558   2.561   5.464  0.00  0.00    +0.000 A 
ATOM     16  N   UNL     1      46.598   3.127   6.162  0.00  0.00    +0.000 NA
ENDBRANCH   9  12
ENDBRANCH   7  10
ENDBRANCH   1   7
BRANCH   4  17
ATOM     17  C   UNL     1      46.634   8.053  13.287  0.00  0.00    +0.000 C 
BRANCH  17  18
ATOM     18  N   UNL     1      47.188   7.365  14.426  0.00  0.00    +0.000 N 
ATOM     19  C   UNL     1      48.490   6.934  14.438  0.00  0.00    +0.000 C 
ATOM     20  O   UNL     1      49.260   7.157  13.508  0.00  0.00    +0.000 OA
ATOM     21  H   UNL     1      46.526   6.973  15.087  0.00  0.00    +0.000 HD
BRANCH  19  22
ATOM     22  C   UNL     1      48.937   6.245  15.656  0.00  0.00    +0.000 A 
ATOM     23  C   UNL     1      50.052   6.711  16.342  0.00  0.00    +0.000 A 
ATOM     24  S   UNL     1      50.391   5.840  17.769  0.00  0.00    +0.000 S 
ATOM     25  C   UNL     1      49.095   4.775  17.493  0.00  0.00    +0.000 A 
ATOM     26  N   UNL     1      48.832   3.755  18.353  0.00  0.00    +0.000 NA
ATOM     27  C   UNL     1      47.840   3.004  18.003  0.00  0.00    +0.000 A 
ATOM     28  N   UNL     1      47.088   3.182  16.872  0.00  0.00    +0.000 N 
ATOM     29  C   UNL     1      47.300   4.212  15.987  0.00  0.00    +0.000 A 
ATOM     30  O   UNL     1      46.588   4.361  15.001  0.00  0.00    +0.000 OA
ATOM     31  C   UNL     1      48.406   5.086  16.333  0.00  0.00    +0.000 A 
ATOM     32  H   UNL     1      46.322   2.560  16.655  0.00  0.00    +0.000 HD
ENDBRANCH  19  22
ENDBRANCH  17  18
ENDBRANCH   4  17
TORSDOF 6
ENDMDL
MODEL 2
REMARK VINA RESULT:    -7.785      2.397      2.871
REMARK INTER + INTRA:         -11.682
REMARK INTER:                 -10.688
REMARK INTRA:                  -0.994
REMARK UNBOUND:                -1.166
REMARK  Name = 
REMARK  6 active torsions:
REMARK  status: ('A' for Active; 'I' for Inactive)
REMARK    1  A    between atoms: C_2  and  C_25
REMARK    2  A    between atoms: N_3  and  C_4
REMARK    3  A    between atoms: C_4  and  C_5
REMARK    4  A    between atoms: C_8  and  C_9
REMARK    5  A    between atoms: C_9  and  N_10
REMARK    6  A    between atoms: C_11  and  C_13
REMARK                            x       y       z     vdW  Elec       q    Type
REMARK                         _______ _______ _______ _____ _____    ______ ____
ROOT
ATOM      1  C   UNL     1      45.297   4.993  11.422  0.00  0.00    +0.000 A 
ATOM      2  C   UNL     1      45.714   6.268  11.018  0.00  0.00    +0.000 A 
ATOM      3  C   UNL     1      46.582   7.021  11.816  0.00  0.00    +0.000 A 
ATOM      4  C   UNL     1      47.068   6.504  13.024  0.00  0.00    +0.000 A 
ATOM      5  C   UNL     1      46.642   5.233  13.432  0.00  0.00    +0.000 A 
ATOM      6  C   UNL     1      45.775   4.481  12.635  0.00  0.00    +0.000 A 
ENDROOT
BRANCH   1   7
ATOM      7  C   UNL     1      44.359   4.187  10.566  0.00  0.00    +0.000 C 
BRANCH   7  10
ATOM      8  O   UNL     1      45.460   4.505   8.010  0.00  0.00    +0.000 OA
ATOM      9  C   UNL     1      45.555   3.418   8.570  0.00  0.00    +0.000 C 
ATOM     10  N   UNL     1      45.045   3.161   9.820  0.00  0.00    +0.000 N 
ATOM     11  H   UNL     1      45.212   2.245  10.223  0.00  0.00    +0.000 HD
BRANCH   9  12
ATOM     12  C   UNL     1      46.228   2.279   7.965  0.00  0.00    +0.000 A 
ATOM     13  C   UNL     1      47.133   2.327   6.927  0.00  0.00    +0.000 A 
ATOM     14  O   UNL     1      47.521   1.055   6.638  0.00  0.00    +0.000 OA
ATOM     15  C   UNL     1      46.824   0.290   7.524  0.00  0.00    +0.000 A 
ATOM     16  N   UNL     1      46.044   0.956   8.345  0.00  0.00    +0.000 NA
ENDBRANCH   9  12
ENDBRANCH   7  10
ENDBRANCH   1   7
BRANCH   4  17
ATOM     17  C   UNL     1      47.997   7.312  13.894  0.00  0.00    +0.000 C 
BRANCH  17  18
ATOM     18  N   UNL     1      47.933   6.878  15.267  0.00  0.00    +0.000 N 
ATOM     19  C   UNL     1      49.057   6.489  15.948  0.00  0.00    +0.000 C 
ATOM     20  O   UNL     1      50.175   6.541  15.445  0.00  0.00    +0.000 OA
ATOM     21  H   UNL     1      47.019   6.608  15.617  0.00  0.00    +0.000 HD
BRANCH  19  22
ATOM     22  C   UNL     1      48.863   6.067  17.342  0.00  0.00    +0.000 A 
ATOM     23  C   UNL     1      49.163   4.763  17.716  0.00  0.00    +0.000 A 
ATOM     24  S   UNL     1      48.947   4.460  19.380  0.00  0.00    +0.000 S 
ATOM     25  C   UNL     1      48.392   6.045  19.652  0.00  0.00    +0.000 A 
ATOM     26  N   UNL     1      48.013   6.450  20.893  0.00  0.00    +0.000 NA
ATOM     27  C   UNL     1      47.581   7.667  20.949  0.00  0.00    +0.000 A 
ATOM     28  N   UNL     1      47.495   8.514  19.876  0.00  0.00    +0.000 N 
ATOM     29  C   UNL     1      47.888   8.157  18.608  0.00  0.00    +0.000 A 
ATOM     30  O   UNL     1      47.828   8.950  17.676  0.00  0.00    +0.000 OA
ATOM     31  C   UNL     1      48.381   6.797  18.490  0.00  0.00    +0.000 A 
ATOM     32  H   UNL     1      47.150   9.456  19.985  0.00  0.00    +0.000 HD
ENDBRANCH  19  22
ENDBRANCH  17  18
ENDBRANCH   4  17
TORSDOF 6
ENDMDL
MODEL 3
REMARK VINA RESULT:    -7.701      1.906      2.171
REMARK INTER + INTRA:         -11.569
REMARK INTER:                 -10.780
REMARK INTRA:                  -0.788
REMARK UNBOUND:                -1.166
REMARK  Name = 
REMARK  6 active torsions:
REMARK  status: ('A' for Active; 'I' for Inactive)
REMARK    1  A    between atoms: C_2  and  C_25
REMARK    2  A    between atoms: N_3  and  C_4
REMARK    3  A    between atoms: C_4  and  C_5
REMARK    4  A    between atoms: C_8  and  C_9
REMARK    5  A    between atoms: C_9  and  N_10
REMARK    6  A    between atoms: C_11  and  C_13
REMARK                            x       y       z     vdW  Elec       q    Type
REMARK                         _______ _______ _______ _____ _____    ______ ____
ROOT
ATOM      1  C   UNL     1      45.306   4.948  11.460  0.00  0.00    +0.000 A 
ATOM      2  C   UNL     1      45.993   4.493  12.593  0.00  0.00    +0.000 A 
ATOM      3  C   UNL     1      46.884   5.332  13.272  0.00  0.00    +0.000 A 
ATOM      4  C   UNL     1      47.090   6.650  12.843  0.00  0.00    +0.000 A 
ATOM      5  C   UNL     1      46.411   7.100  11.704  0.00  0.00    +0.000 A 
ATOM      6  C   UNL     1      45.521   6.263  11.026  0.00  0.00    +0.000 A 
ENDROOT
BRANCH   1   7
ATOM      7  C   UNL     1      44.353   4.044  10.727  0.00  0.00    +0.000 C 
BRANCH   7  10
ATOM      8  O   UNL     1      45.288   4.426   8.114  0.00  0.00    +0.000 OA
ATOM      9  C   UNL     1      45.465   3.341   8.659  0.00  0.00    +0.000 C 
ATOM     10  N   UNL     1      45.041   3.055   9.935  0.00  0.00    +0.000 N 
ATOM     11  H   UNL     1      45.272   2.145  10.320  0.00  0.00    +0.000 HD
BRANCH   9  12
ATOM     12  C   UNL     1      46.152   2.237   8.007  0.00  0.00    +0.000 A 
ATOM     13  C   UNL     1      47.005   2.334   6.930  0.00  0.00    +0.000 A 
ATOM     14  O   UNL     1      47.428   1.081   6.604  0.00  0.00    +0.000 OA
ATOM     15  C   UNL     1      46.802   0.279   7.509  0.00  0.00    +0.000 A 
ATOM     16  N   UNL     1      46.035   0.903   8.375  0.00  0.00    +0.000 NA
ENDBRANCH   9  12
ENDBRANCH   7  10
ENDBRANCH   1   7
BRANCH   4  17
ATOM     17  C   UNL     1      48.055   7.556  13.564  0.00  0.00    +0.000 C 
BRANCH  17  18
ATOM     18  N   UNL     1      47.911   7.438  14.993  0.00  0.00    +0.000 N 
ATOM     19  C   UNL     1      48.942   7.001  15.783  0.00  0.00    +0.000 C 
ATOM     20  O   UNL     1      50.051   6.741  15.323  0.00  0.00    +0.000 OA
ATOM     21  H   UNL     1      46.963   7.420  15.355  0.00  0.00    +0.000 HD
BRANCH  19  22
ATOM     22  C   UNL     1      48.673   6.923  17.225  0.00  0.00    +0.000 A 
ATOM     23  C   UNL     1      48.298   8.065  17.920  0.00  0.00    +0.000 A 
ATOM     24  S   UNL     1      47.956   7.784  19.567  0.00  0.00    +0.000 S 
ATOM     25  C   UNL     1      48.349   6.136  19.423  0.00  0.00    +0.000 A 
ATOM     26  N   UNL     1      48.284   5.305  20.498  0.00  0.00    +0.000 NA
ATOM     27  C   UNL     1      48.643   4.088  20.254  0.00  0.00    +0.000 A 
ATOM     28  N   UNL     1      49.059   3.627  19.033  0.00  0.00    +0.000 N 
ATOM     29  C   UNL     1      49.119   4.423  17.914  0.00  0.00    +0.000 A 
ATOM     30  O   UNL     1      49.465   3.971  16.829  0.00  0.00    +0.000 OA
ATOM     31  C   UNL     1      48.727   5.803  18.135  0.00  0.00    +0.000 A 
ATOM     32  H   UNL     1      49.325   2.661  18.906  0.00  0.00    +0.000 HD
ENDBRANCH  19  22
ENDBRANCH  17  18
ENDBRANCH   4  17
TORSDOF 6
ENDMDL
MODEL 4
REMARK VINA RESULT:    -7.302      2.105      2.870
REMARK INTER + INTRA:         -11.030
REMARK INTER:                 -10.269
REMARK INTRA:                  -0.761
REMARK UNBOUND:                -1.166
REMARK  Name = 
REMARK  6 active torsions:
REMARK  status: ('A' for Active; 'I' for Inactive)
REMARK    1  A    between atoms: C_2  and  C_25
REMARK    2  A    between atoms: N_3  and  C_4
REMARK    3  A    between atoms: C_4  and  C_5
REMARK    4  A    between atoms: C_8  and  C_9
REMARK    5  A    between atoms: C_9  and  N_10
REMARK    6  A    between atoms: C_11  and  C_13
REMARK                            x       y       z     vdW  Elec       q    Type
REMARK                         _______ _______ _______ _____ _____    ______ ____
ROOT
ATOM      1  C   UNL     1      45.109   5.069  11.288  0.00  0.00    +0.000 A 
ATOM      2  C   UNL     1      45.516   6.365  10.942  0.00  0.00    +0.000 A 
ATOM      3  C   UNL     1      46.356   7.098  11.786  0.00  0.00    +0.000 A 
ATOM      4  C   UNL     1      46.824   6.543  12.985  0.00  0.00    +0.000 A 
ATOM      5  C   UNL     1      46.407   5.252  13.335  0.00  0.00    +0.000 A 
ATOM      6  C   UNL     1      45.569   4.519  12.492  0.00  0.00    +0.000 A 
ENDROOT
BRANCH   1   7
ATOM      7  C   UNL     1      44.201   4.284  10.382  0.00  0.00    +0.000 C 
BRANCH   7  10
ATOM      8  O   UNL     1      45.606   4.593   7.979  0.00  0.00    +0.000 OA
ATOM      9  C   UNL     1      45.567   3.488   8.509  0.00  0.00    +0.000 C 
ATOM     10  N   UNL     1      44.902   3.234   9.685  0.00  0.00    +0.000 N 
ATOM     11  H   UNL     1      44.963   2.298  10.073  0.00  0.00    +0.000 HD
BRANCH   9  12
ATOM     12  C   UNL     1      46.231   2.323   7.946  0.00  0.00    +0.000 A 
ATOM     13  C   UNL     1      47.135   2.326   6.907  0.00  0.00    +0.000 A 
ATOM     14  O   UNL     1      47.514   1.041   6.664  0.00  0.00    +0.000 OA
ATOM     15  C   UNL     1      46.812   0.315   7.578  0.00  0.00    +0.000 A 
ATOM     16  N   UNL     1      46.037   1.016   8.375  0.00  0.00    +0.000 NA
ENDBRANCH   9  12
ENDBRANCH   7  10
ENDBRANCH   1   7
BRANCH   4  17
ATOM     17  C   UNL     1      47.721   7.330  13.904  0.00  0.00    +0.000 C 
BRANCH  17  18
ATOM     18  N   UNL     1      48.269   6.491  14.940  0.00  0.00    +0.000 N 
ATOM     19  C   UNL     1      48.797   7.023  16.088  0.00  0.00    +0.000 C 
ATOM     20  O   UNL     1      48.782   8.230  16.315  0.00  0.00    +0.000 OA
ATOM     21  H   UNL     1      48.501   5.539  14.679  0.00  0.00    +0.000 HD
BRANCH  19  22
ATOM     22  C   UNL     1      49.326   6.065  17.068  0.00  0.00    +0.000 A 
ATOM     23  C   UNL     1      48.460   5.434  17.952  0.00  0.00    +0.000 A 
ATOM     24  S   UNL     1      49.227   4.303  18.973  0.00  0.00    +0.000 S 
ATOM     25  C   UNL     1      50.753   4.657  18.309  0.00  0.00    +0.000 A 
ATOM     26  N   UNL     1      51.874   4.033  18.760  0.00  0.00    +0.000 NA
ATOM     27  C   UNL     1      52.966   4.422  18.191  0.00  0.00    +0.000 A 
ATOM     28  N   UNL     1      53.039   5.377  17.211  0.00  0.00    +0.000 N 
ATOM     29  C   UNL     1      51.932   6.017  16.707  0.00  0.00    +0.000 A 
ATOM     30  O   UNL     1      52.029   6.843  15.808  0.00  0.00    +0.000 OA
ATOM     31  C   UNL     1      50.676   5.617  17.315  0.00  0.00    +0.000 A 
ATOM     32  H   UNL     1      53.926   5.635  16.803  0.00  0.00    +0.000 HD
ENDBRANCH  19  22
ENDBRANCH  17  18
ENDBRANCH   4  17
TORSDOF 6
ENDMDL
MODEL 5
REMARK VINA RESULT:    -7.288      2.073      3.508
REMARK INTER + INTRA:         -11.010
REMARK INTER:                 -10.063
REMARK INTRA:                  -0.947
REMARK UNBOUND:                -1.166
REMARK  Name = 
REMARK  6 active torsions:
REMARK  status: ('A' for Active; 'I' for Inactive)
REMARK    1  A    between atoms: C_2  and  C_25
REMARK    2  A    between atoms: N_3  and  C_4
REMARK    3  A    between atoms: C_4  and  C_5
REMARK    4  A    between atoms: C_8  and  C_9
REMARK    5  A    between atoms: C_9  and  N_10
REMARK    6  A    between atoms: C_11  and  C_13
REMARK                            x       y       z     vdW  Elec       q    Type
REMARK                         _______ _______ _______ _____ _____    ______ ____
ROOT
ATOM      1  C   UNL     1      45.100   4.499  10.882  0.00  0.00    +0.000 A 
ATOM      2  C   UNL     1      44.948   3.399  11.736  0.00  0.00    +0.000 A 
ATOM      3  C   UNL     1      45.511   3.406  13.017  0.00  0.00    +0.000 A 
ATOM      4  C   UNL     1      46.219   4.524  13.478  0.00  0.00    +0.000 A 
ATOM      5  C   UNL     1      46.381   5.619  12.619  0.00  0.00    +0.000 A 
ATOM      6  C   UNL     1      45.818   5.612  11.340  0.00  0.00    +0.000 A 
ENDROOT
BRANCH   1   7
ATOM      7  C   UNL     1      44.500   4.488   9.503  0.00  0.00    +0.000 C 
BRANCH   7  10
ATOM      8  O   UNL     1      44.978   1.815   8.814  0.00  0.00    +0.000 OA
ATOM      9  C   UNL     1      45.599   2.701   8.235  0.00  0.00    +0.000 C 
ATOM     10  N   UNL     1      45.438   4.039   8.504  0.00  0.00    +0.000 N 
ATOM     11  H   UNL     1      45.962   4.703   7.942  0.00  0.00    +0.000 HD
BRANCH   9  12
ATOM     12  C   UNL     1      46.573   2.424   7.191  0.00  0.00    +0.000 A 
ATOM     13  C   UNL     1      47.549   1.453   7.229  0.00  0.00    +0.000 A 
ATOM     14  O   UNL     1      48.268   1.523   6.074  0.00  0.00    +0.000 OA
ATOM     15  C   UNL     1      47.686   2.545   5.388  0.00  0.00    +0.000 A 
ATOM     16  N   UNL     1      46.668   3.117   5.992  0.00  0.00    +0.000 NA
ENDBRANCH   9  12
ENDBRANCH   7  10
ENDBRANCH   1   7
BRANCH   4  17
ATOM     17  C   UNL     1      46.836   4.536  14.853  0.00  0.00    +0.000 C 
BRANCH  17  18
ATOM     18  N   UNL     1      47.520   5.779  15.104  0.00  0.00    +0.000 N 
ATOM     19  C   UNL     1      48.553   5.858  16.002  0.00  0.00    +0.000 C 
ATOM     20  O   UNL     1      48.981   4.871  16.594  0.00  0.00    +0.000 OA
ATOM     21  H   UNL     1      47.045   6.627  14.815  0.00  0.00    +0.000 HD
BRANCH  19  22
ATOM     22  C   UNL     1      49.170   7.181  16.173  0.00  0.00    +0.000 A 
ATOM     23  C   UNL     1      49.168   7.787  17.422  0.00  0.00    +0.000 A 
ATOM     24  S   UNL     1      49.985   9.284  17.460  0.00  0.00    +0.000 S 
ATOM     25  C   UNL     1      50.324   9.201  15.795  0.00  0.00    +0.000 A 
ATOM     26  N   UNL     1      51.002  10.201  15.169  0.00  0.00    +0.000 NA
ATOM     27  C   UNL     1      51.160  10.024  13.899  0.00  0.00    +0.000 A 
ATOM     28  N   UNL     1      50.703   8.938  13.199  0.00  0.00    +0.000 N 
ATOM     29  C   UNL     1      50.036   7.893  13.793  0.00  0.00    +0.000 A 
ATOM     30  O   UNL     1      49.669   6.922  13.143  0.00  0.00    +0.000 OA
ATOM     31  C   UNL     1      49.830   8.043  15.221  0.00  0.00    +0.000 A 
ATOM     32  H   UNL     1      50.862   8.857  12.206  0.00  0.00    +0.000 HD
ENDBRANCH  19  22
ENDBRANCH  17  18
ENDBRANCH   4  17
TORSDOF 6
ENDMDL
MODEL 6
REMARK VINA RESULT:    -7.111      4.841      9.373
REMARK INTER + INTRA:         -10.771
REMARK INTER:                  -9.982
REMARK INTRA:                  -0.789
REMARK UNBOUND:                -1.166
REMARK  Name = 
REMARK  6 active torsions:
REMARK  status: ('A' for Active; 'I' for Inactive)
REMARK    1  A    between atoms: C_2  and  C_25
REMARK    2  A    between atoms: N_3  and  C_4
REMARK    3  A    between atoms: C_4  and  C_5
REMARK    4  A    between atoms: C_8  and  C_9
REMARK    5  A    between atoms: C_9  and  N_10
REMARK    6  A    between atoms: C_11  and  C_13
REMARK                            x       y       z     vdW  Elec       q    Type
REMARK                         _______ _______ _______ _____ _____    ______ ____
ROOT
ATOM      1  C   UNL     1      51.424   2.947  17.730  0.00  0.00    +0.000 A 
ATOM      2  C   UNL     1      50.809   4.163  18.057  0.00  0.00    +0.000 A 
ATOM      3  C   UNL     1      49.448   4.364  17.807  0.00  0.00    +0.000 A 
ATOM      4  C   UNL     1      48.668   3.345  17.244  0.00  0.00    +0.000 A 
ATOM      5  C   UNL     1      49.286   2.134  16.906  0.00  0.00    +0.000 A 
ATOM      6  C   UNL     1      50.646   1.933  17.157  0.00  0.00    +0.000 A 
ENDROOT
BRANCH   1   7
ATOM      7  C   UNL     1      52.889   2.734  17.993  0.00  0.00    +0.000 C 
BRANCH   7  10
ATOM      8  O   UNL     1      54.729   1.109  16.644  0.00  0.00    +0.000 OA
ATOM      9  C   UNL     1      54.115   0.648  17.600  0.00  0.00    +0.000 C 
ATOM     10  N   UNL     1      53.190   1.363  18.323  0.00  0.00    +0.000 N 
ATOM     11  H   UNL     1      52.765   0.913  19.127  0.00  0.00    +0.000 HD
BRANCH   9  12
ATOM     12  C   UNL     1      54.307  -0.714  18.074  0.00  0.00    +0.000 A 
ATOM     13  C   UNL     1      55.083  -1.681  17.474  0.00  0.00    +0.000 A 
ATOM     14  O   UNL     1      54.990  -2.822  18.211  0.00  0.00    +0.000 OA
ATOM     15  C   UNL     1      54.153  -2.486  19.231  0.00  0.00    +0.000 A 
ATOM     16  N   UNL     1      53.718  -1.246  19.214  0.00  0.00    +0.000 NA
ENDBRANCH   9  12
ENDBRANCH   7  10
ENDBRANCH   1   7
BRANCH   4  17
ATOM     17  C   UNL     1      47.203   3.557  16.963  0.00  0.00    +0.000 C 
BRANCH  17  18
ATOM     18  N   UNL     1      47.008   4.571  15.958  0.00  0.00    +0.000 N 
ATOM     19  C   UNL     1      47.106   4.283  14.621  0.00  0.00    +0.000 C 
ATOM     20  O   UNL     1      47.312   3.144  14.213  0.00  0.00    +0.000 OA
ATOM     21  H   UNL     1      47.071   5.536  16.266  0.00  0.00    +0.000 HD
BRANCH  19  22
ATOM     22  C   UNL     1      46.888   5.402  13.694  0.00  0.00    +0.000 A 
ATOM     23  C   UNL     1      47.928   6.277  13.412  0.00  0.00    +0.000 A 
ATOM     24  S   UNL     1      47.525   7.474  12.265  0.00  0.00    +0.000 S 
ATOM     25  C   UNL     1      45.929   6.898  12.145  0.00  0.00    +0.000 A 
ATOM     26  N   UNL     1      45.027   7.502  11.326  0.00  0.00    +0.000 NA
ATOM     27  C   UNL     1      43.844   6.983  11.359  0.00  0.00    +0.000 A 
ATOM     28  N   UNL     1      43.483   5.914  12.136  0.00  0.00    +0.000 N 
ATOM     29  C   UNL     1      44.365   5.257  12.960  0.00  0.00    +0.000 A 
ATOM     30  O   UNL     1      44.017   4.283  13.617  0.00  0.00    +0.000 OA
ATOM     31  C   UNL     1      45.710   5.803  12.961  0.00  0.00    +0.000 A 
ATOM     32  H   UNL     1      42.541   5.552  12.114  0.00  0.00    +0.000 HD
ENDBRANCH  19  22
ENDBRANCH  17  18
ENDBRANCH   4  17
TORSDOF 6
ENDMDL
MODEL 7
REMARK VINA RESULT:    -6.698      3.910      8.159
REMARK INTER + INTRA:         -10.213
REMARK INTER:                  -9.364
REMARK INTRA:                  -0.849
REMARK UNBOUND:                -1.166
REMARK  Name = 
REMARK  6 active torsions:
REMARK  status: ('A' for Active; 'I' for Inactive)
REMARK    1  A    between atoms: C_2  and  C_25
REMARK    2  A    between atoms: N_3  and  C_4
REMARK    3  A    between atoms: C_4  and  C_5
REMARK    4  A    between atoms: C_8  and  C_9
REMARK    5  A    between atoms: C_9  and  N_10
REMARK    6  A    between atoms: C_11  and  C_13
REMARK                            x       y       z     vdW  Elec       q    Type
REMARK                         _______ _______ _______ _____ _____    ______ ____
ROOT
ATOM      1  C   UNL     1      50.184   7.117  15.641  0.00  0.00    +0.000 A 
ATOM      2  C   UNL     1      50.898   7.833  14.670  0.00  0.00    +0.000 A 
ATOM      3  C   UNL     1      50.308   8.154  13.443  0.00  0.00    +0.000 A 
ATOM      4  C   UNL     1      48.984   7.784  13.170  0.00  0.00    +0.000 A 
ATOM      5  C   UNL     1      48.276   7.058  14.136  0.00  0.00    +0.000 A 
ATOM      6  C   UNL     1      48.864   6.738  15.363  0.00  0.00    +0.000 A 
ENDROOT
BRANCH   1   7
ATOM      7  C   UNL     1      50.822   6.767  16.957  0.00  0.00    +0.000 C 
BRANCH   7  10
ATOM      8  O   UNL     1      49.442   4.694  18.241  0.00  0.00    +0.000 OA
ATOM      9  C   UNL     1      50.495   4.442  17.663  0.00  0.00    +0.000 C 
ATOM     10  N   UNL     1      51.246   5.390  17.009  0.00  0.00    +0.000 N 
ATOM     11  H   UNL     1      52.080   5.081  16.520  0.00  0.00    +0.000 HD
BRANCH   9  12
ATOM     12  C   UNL     1      51.059   3.103  17.606  0.00  0.00    +0.000 A 
ATOM     13  C   UNL     1      50.393   1.956  17.236  0.00  0.00    +0.000 A 
ATOM     14  O   UNL     1      51.259   0.909  17.329  0.00  0.00    +0.000 OA
ATOM     15  C   UNL     1      52.419   1.480  17.756  0.00  0.00    +0.000 A 
ATOM     16  N   UNL     1      52.371   2.782  17.933  0.00  0.00    +0.000 NA
ENDBRANCH   9  12
ENDBRANCH   7  10
ENDBRANCH   1   7
BRANCH   4  17
ATOM     17  C   UNL     1      48.344   8.118  11.847  0.00  0.00    +0.000 C 
BRANCH  17  18
ATOM     18  N   UNL     1      47.615   6.991  11.323  0.00  0.00    +0.000 N 
ATOM     19  C   UNL     1      46.244   6.955  11.340  0.00  0.00    +0.000 C 
ATOM     20  O   UNL     1      45.572   7.897  11.750  0.00  0.00    +0.000 OA
ATOM     21  H   UNL     1      48.134   6.128  11.202  0.00  0.00    +0.000 HD
BRANCH  19  22
ATOM     22  C   UNL     1      45.615   5.752  10.778  0.00  0.00    +0.000 A 
ATOM     23  C   UNL     1      45.748   5.472   9.424  0.00  0.00    +0.000 A 
ATOM     24  S   UNL     1      45.018   4.004   8.953  0.00  0.00    +0.000 S 
ATOM     25  C   UNL     1      44.451   3.717  10.530  0.00  0.00    +0.000 A 
ATOM     26  N   UNL     1      43.717   2.609  10.819  0.00  0.00    +0.000 NA
ATOM     27  C   UNL     1      43.323   2.535  12.047  0.00  0.00    +0.000 A 
ATOM     28  N   UNL     1      43.597   3.467  13.012  0.00  0.00    +0.000 N 
ATOM     29  C   UNL     1      44.355   4.589  12.774  0.00  0.00    +0.000 A 
ATOM     30  O   UNL     1      44.609   5.387  13.668  0.00  0.00    +0.000 OA
ATOM     31  C   UNL     1      44.822   4.722  11.406  0.00  0.00    +0.000 A 
ATOM     32  H   UNL     1      43.262   3.350  13.957  0.00  0.00    +0.000 HD
ENDBRANCH  19  22
ENDBRANCH  17  18
ENDBRANCH   4  17
TORSDOF 6
ENDMDL
MODEL 8
REMARK VINA RESULT:    -6.659      4.935      9.196
REMARK INTER + INTRA:         -10.161
REMARK INTER:                  -9.083
REMARK INTRA:                  -1.079
REMARK UNBOUND:                -1.166
REMARK  Name = 
REMARK  6 active torsions:
REMARK  status: ('A' for Active; 'I' for Inactive)
REMARK    1  A    between atoms: C_2  and  C_25
REMARK    2  A    between atoms: N_3  and  C_4
REMARK    3  A    between atoms: C_4  and  C_5
REMARK    4  A    between atoms: C_8  and  C_9
REMARK    5  A    between atoms: C_9  and  N_10
REMARK    6  A    between atoms: C_11  and  C_13
REMARK                            x       y       z     vdW  Elec       q    Type
REMARK                         _______ _______ _______ _____ _____    ______ ____
ROOT
ATOM      1  C   UNL     1      51.610   3.075  17.757  0.00  0.00    +0.000 A 
ATOM      2  C   UNL     1      50.972   4.278  18.088  0.00  0.00    +0.000 A 
ATOM      3  C   UNL     1      49.599   4.439  17.875  0.00  0.00    +0.000 A 
ATOM      4  C   UNL     1      48.832   3.392  17.346  0.00  0.00    +0.000 A 
ATOM      5  C   UNL     1      49.473   2.194  17.006  0.00  0.00    +0.000 A 
ATOM      6  C   UNL     1      50.845   2.033  17.219  0.00  0.00    +0.000 A 
ENDROOT
BRANCH   1   7
ATOM      7  C   UNL     1      53.088   2.905  17.981  0.00  0.00    +0.000 C 
BRANCH   7  10
ATOM      8  O   UNL     1      54.282   0.864  19.484  0.00  0.00    +0.000 OA
ATOM      9  C   UNL     1      54.148   0.714  18.274  0.00  0.00    +0.000 C 
ATOM     10  N   UNL     1      53.580   1.658  17.451  0.00  0.00    +0.000 N 
ATOM     11  H   UNL     1      53.470   1.427  16.469  0.00  0.00    +0.000 HD
BRANCH   9  12
ATOM     12  C   UNL     1      54.578  -0.489  17.579  0.00  0.00    +0.000 A 
ATOM     13  C   UNL     1      55.065  -1.636  18.166  0.00  0.00    +0.000 A 
ATOM     14  O   UNL     1      55.372  -2.524  17.181  0.00  0.00    +0.000 OA
ATOM     15  C   UNL     1      55.053  -1.864  16.034  0.00  0.00    +0.000 A 
ATOM     16  N   UNL     1      54.569  -0.654  16.200  0.00  0.00    +0.000 NA
ENDBRANCH   9  12
ENDBRANCH   7  10
ENDBRANCH   1   7
BRANCH   4  17
ATOM     17  C   UNL     1      47.354   3.561  17.105  0.00  0.00    +0.000 C 
BRANCH  17  18
ATOM     18  N   UNL     1      47.104   4.533  16.072  0.00  0.00    +0.000 N 
ATOM     19  C   UNL     1      47.137   4.192  14.744  0.00  0.00    +0.000 C 
ATOM     20  O   UNL     1      47.328   3.037  14.372  0.00  0.00    +0.000 OA
ATOM     21  H   UNL     1      47.177   5.510  16.338  0.00  0.00    +0.000 HD
BRANCH  19  22
ATOM     22  C   UNL     1      46.866   5.271  13.785  0.00  0.00    +0.000 A 
ATOM     23  C   UNL     1      45.769   5.183  12.938  0.00  0.00    +0.000 A 
ATOM     24  S   UNL     1      45.561   6.550  11.940  0.00  0.00    +0.000 S 
ATOM     25  C   UNL     1      46.961   7.286  12.564  0.00  0.00    +0.000 A 
ATOM     26  N   UNL     1      47.374   8.501  12.113  0.00  0.00    +0.000 NA
ATOM     27  C   UNL     1      48.470   8.925  12.649  0.00  0.00    +0.000 A 
ATOM     28  N   UNL     1      49.190   8.246  13.596  0.00  0.00    +0.000 N 
ATOM     29  C   UNL     1      48.800   7.027  14.099  0.00  0.00    +0.000 A 
ATOM     30  O   UNL     1      49.450   6.461  14.970  0.00  0.00    +0.000 OA
ATOM     31  C   UNL     1      47.573   6.504  13.528  0.00  0.00    +0.000 A 
ATOM     32  H   UNL     1      50.039   8.633  13.979  0.00  0.00    +0.000 HD
ENDBRANCH  19  22
ENDBRANCH  17  18
ENDBRANCH   4  17
TORSDOF 6
ENDMDL
MODEL 9
REMARK VINA RESULT:    -6.659      1.862      2.497
REMARK INTER + INTRA:         -10.160
REMARK INTER:                  -9.077
REMARK INTRA:                  -1.083
REMARK UNBOUND:                -1.166
REMARK  Name = 
REMARK  6 active torsions:
REMARK  status: ('A' for Active; 'I' for Inactive)
REMARK    1  A    between atoms: C_2  and  C_25
REMARK    2  A    between atoms: N_3  and  C_4
REMARK    3  A    between atoms: C_4  and  C_5
REMARK    4  A    between atoms: C_8  and  C_9
REMARK    5  A    between atoms: C_9  and  N_10
REMARK    6  A    between atoms: C_11  and  C_13
REMARK                            x       y       z     vdW  Elec       q    Type
REMARK                         _______ _______ _______ _____ _____    ______ ____
ROOT
ATOM      1  C   UNL     1      45.816   7.175  11.845  0.00  0.00    +0.000 A 
ATOM      2  C   UNL     1      45.608   8.334  12.605  0.00  0.00    +0.000 A 
ATOM      3  C   UNL     1      46.630   8.856  13.403  0.00  0.00    +0.000 A 
ATOM      4  C   UNL     1      47.889   8.243  13.442  0.00  0.00    +0.000 A 
ATOM      5  C   UNL     1      48.093   7.078  12.691  0.00  0.00    +0.000 A 
ATOM      6  C   UNL     1      47.072   6.556  11.892  0.00  0.00    +0.000 A 
ENDROOT
BRANCH   1   7
ATOM      7  C   UNL     1      44.714   6.611  10.991  0.00  0.00    +0.000 C 
BRANCH   7  10
ATOM      8  O   UNL     1      43.780   4.000  10.593  0.00  0.00    +0.000 OA
ATOM      9  C   UNL     1      44.682   4.426   9.880  0.00  0.00    +0.000 C 
ATOM     10  N   UNL     1      45.210   5.689   9.999  0.00  0.00    +0.000 N 
ATOM     11  H   UNL     1      45.923   5.971   9.334  0.00  0.00    +0.000 HD
BRANCH   9  12
ATOM     12  C   UNL     1      45.287   3.633   8.821  0.00  0.00    +0.000 A 
ATOM     13  C   UNL     1      45.440   2.265   8.818  0.00  0.00    +0.000 A 
ATOM     14  O   UNL     1      46.065   1.906   7.663  0.00  0.00    +0.000 OA
ATOM     15  C   UNL     1      46.263   3.088   7.017  0.00  0.00    +0.000 A 
ATOM     16  N   UNL     1      45.817   4.152   7.647  0.00  0.00    +0.000 NA
ENDBRANCH   9  12
ENDBRANCH   7  10
ENDBRANCH   1   7
BRANCH   4  17
ATOM     17  C   UNL     1      48.993   8.794  14.307  0.00  0.00    +0.000 C 
BRANCH  17  18
ATOM     18  N   UNL     1      49.164   8.003  15.499  0.00  0.00    +0.000 N 
ATOM     19  C   UNL     1      48.563   8.349  16.681  0.00  0.00    +0.000 C 
ATOM     20  O   UNL     1      47.810   9.315  16.771  0.00  0.00    +0.000 OA
ATOM     21  H   UNL     1      49.947   7.356  15.508  0.00  0.00    +0.000 HD
BRANCH  19  22
ATOM     22  C   UNL     1      48.814   7.463  17.826  0.00  0.00    +0.000 A 
ATOM     23  C   UNL     1      49.198   8.005  19.046  0.00  0.00    +0.000 A 
ATOM     24  S   UNL     1      49.379   6.846  20.284  0.00  0.00    +0.000 S 
ATOM     25  C   UNL     1      49.005   5.572  19.221  0.00  0.00    +0.000 A 
ATOM     26  N   UNL     1      49.000   4.282  19.650  0.00  0.00    +0.000 NA
ATOM     27  C   UNL     1      48.733   3.415  18.729  0.00  0.00    +0.000 A 
ATOM     28  N   UNL     1      48.469   3.722  17.421  0.00  0.00    +0.000 N 
ATOM     29  C   UNL     1      48.440   5.012  16.947  0.00  0.00    +0.000 A 
ATOM     30  O   UNL     1      48.169   5.254  15.777  0.00  0.00    +0.000 OA
ATOM     31  C   UNL     1      48.736   6.027  17.942  0.00  0.00    +0.000 A 
ATOM     32  H   UNL     1      48.265   2.997  16.749  0.00  0.00    +0.000 HD
ENDBRANCH  19  22
ENDBRANCH  17  18
ENDBRANCH   4  17
TORSDOF 6
ENDMDL
