MODEL 1
REMARK VINA RESULT:    -7.839      0.000      0.000
REMARK INTER + INTRA:         -13.625
REMARK INTER:                 -12.651
REMARK INTRA:                  -0.974
REMARK UNBOUND:                -0.974
REMARK  Name = 
REMARK  12 active torsions:
REMARK  status: ('A' for Active; 'I' for Inactive)
REMARK    1  A    between atoms: C_1  and  O_2
REMARK    2  A    between atoms: O_2  and  C_3
REMARK    3  A    between atoms: C_3  and  C_4
REMARK    4  A    between atoms: C_3  and  C_21
REMARK    5  A    between atoms: C_4  and  N_5
REMARK    6  A    between atoms: N_5  and  C_6
REMARK    7  A    between atoms: C_6  and  C_7
REMARK    8  A    between atoms: C_10  and  C_11
REMARK    9  A    between atoms: C_11  and  O_12
REMARK   10  A    between atoms: C_11  and  C_13
REMARK   11  A    between atoms: C_13  and  C_14
REMARK   12  A    between atoms: C_21  and  C_23
REMARK                            x       y       z     vdW  Elec       q    Type
REMARK                         _______ _______ _______ _____ _____    ______ ____
ROOT
ATOM      1  N   UNL     1      47.212   5.007  14.488  0.00  0.00    +0.000 NA
ATOM      2  H   UNL     1      47.738   4.262  14.019  0.00  0.00    +0.000 HD
ENDROOT
BRANCH   1   3
ATOM      3  C   UNL     1      47.373   4.857  15.941  0.00  0.00    +0.000 C 
BRANCH   3   4
ATOM      4  C   UNL     1      48.745   5.334  16.479  0.00  0.00    +0.000 C 
BRANCH   4   6
ATOM      5  C   UNL     1      49.600   7.562  16.186  0.00  0.00    +0.000 C 
ATOM      6  O   UNL     1      48.601   6.734  16.763  0.00  0.00    +0.000 OA
ENDBRANCH   4   6
BRANCH   4   7
ATOM      7  C   UNL     1      49.117   4.504  17.728  0.00  0.00    +0.000 C 
ATOM      8  O   UNL     1      48.230   4.174  18.517  0.00  0.00    +0.000 OA
BRANCH   7   9
ATOM      9  C   UNL     1      50.535   4.223  18.034  0.00  0.00    +0.000 A 
ATOM     10  C   UNL     1      51.391   5.104  18.678  0.00  0.00    +0.000 A 
ATOM     11  S   UNL     1      52.892   4.409  19.107  0.00  0.00    +0.000 S 
ATOM     12  C   UNL     1      52.460   2.920  18.404  0.00  0.00    +0.000 A 
ATOM     13  N   UNL     1      53.289   1.841  18.490  0.00  0.00    +0.000 NA
ATOM     14  C   UNL     1      52.812   0.768  17.948  0.00  0.00    +0.000 A 
ATOM     15  N   UNL     1      51.611   0.688  17.297  0.00  0.00    +0.000 N 
ATOM     16  C   UNL     1      50.828   1.792  17.041  0.00  0.00    +0.000 A 
ATOM     17  O   UNL     1      49.952   1.748  16.185  0.00  0.00    +0.000 OA
ATOM     18  C   UNL     1      51.233   2.980  17.780  0.00  0.00    +0.000 A 
ATOM     19  H   UNL     1      51.352  -0.149  16.796  0.00  0.00    +0.000 HD
ENDBRANCH   7   9
ENDBRANCH   4   7
ENDBRANCH   3   4
ENDBRANCH   1   3
BRANCH   1  20
ATOM     20  C   UNL     1      45.806   4.828  14.096  0.00  0.00    +0.000 C 
BRANCH  20  21
ATOM     21  C   UNL     1      45.707   4.616  12.602  0.00  0.00    +0.000 A 
ATOM     22  C   UNL     1      45.983   5.645  11.698  0.00  0.00    +0.000 A 
ATOM     23  C   UNL     1      45.780   5.457  10.325  0.00  0.00    +0.000 A 
ATOM     24  C   UNL     1      45.299   4.235   9.826  0.00  0.00    +0.000 A 
ATOM     25  C   UNL     1      45.076   3.192  10.735  0.00  0.00    +0.000 A 
ATOM     26  C   UNL     1      45.281   3.378  12.103  0.00  0.00    +0.000 A 
BRANCH  24  27
ATOM     27  C   UNL     1      44.921   4.127   8.357  0.00  0.00    +0.000 C 
BRANCH  27  28
ATOM     28  O   UNL     1      44.147   2.939   8.181  0.00  0.00    +0.000 OA
ATOM     29  H   UNL     1      44.501   2.476   7.400  0.00  0.00    +0.000 HD
ENDBRANCH  27  28
BRANCH  27  30
ATOM     30  C   UNL     1      46.107   4.072   7.382  0.00  0.00    +0.000 C 
BRANCH  30  31
ATOM     31  C   UNL     1      46.185   2.779   6.544  0.00  0.00    +0.000 C 
ATOM     32  C   UNL     1      46.950   1.699   7.309  0.00  0.00    +0.000 C 
ATOM     33  C   UNL     1      48.378   1.907   6.853  0.00  0.00    +0.000 C 
ATOM     34  N   UNL     1      48.245   2.178   5.420  0.00  0.00    +0.000 NA
ATOM     35  C   UNL     1      46.990   2.932   5.251  0.00  0.00    +0.000 C 
ATOM     36  H   UNL     1      48.144   1.284   4.935  0.00  0.00    +0.000 HD
ENDBRANCH  30  31
ENDBRANCH  27  30
ENDBRANCH  24  27
ENDBRANCH  20  21
ENDBRANCH   1  20
TORSDOF 11
ENDMDL
MODEL 2
REMARK VINA RESULT:    -7.787      2.772      3.661
REMARK INTER + INTRA:         -13.540
REMARK INTER:                 -11.888
REMARK INTRA:                  -1.652
REMARK UNBOUND:                -0.974
REMARK  Name = 
REMARK  12 active torsions:
REMARK  status: ('A' for Active; 'I' for Inactive)
REMARK    1  A    between atoms: C_1  and  O_2
REMARK    2  A    between atoms: O_2  and  C_3
REMARK    3  A    between atoms: C_3  and  C_4
REMARK    4  A    between atoms: C_3  and  C_21
REMARK    5  A    between atoms: C_4  and  N_5
REMARK    6  A    between atoms: N_5  and  C_6
REMARK    7  A    between atoms: C_6  and  C_7
REMARK    8  A    between atoms: C_10  and  C_11
REMARK    9  A    between atoms: C_11  and  O_12
REMARK   10  A    between atoms: C_11  and  C_13
REMARK   11  A    between atoms: C_13  and  C_14
REMARK   12  A    between atoms: C_21  and  C_23
REMARK                            x       y       z     vdW  Elec       q    Type
REMARK                         _______ _______ _______ _____ _____    ______ ____
ROOT
ATOM      1  N   UNL     1      49.713   6.701  14.758  0.00  0.00    +0.000 NA
ATOM      2  H   UNL     1      49.256   5.945  14.237  0.00  0.00    +0.000 HD
ENDROOT
BRANCH   1   3
ATOM      3  C   UNL     1      49.264   6.648  16.157  0.00  0.00    +0.000 C 
BRANCH   3   4
ATOM      4  C   UNL     1      48.259   5.507  16.457  0.00  0.00    +0.000 C 
BRANCH   4   6
ATOM      5  C   UNL     1      46.856   4.276  14.942  0.00  0.00    +0.000 C 
ATOM      6  O   UNL     1      48.166   4.728  15.255  0.00  0.00    +0.000 OA
ENDBRANCH   4   6
BRANCH   4   7
ATOM      7  C   UNL     1      48.768   4.689  17.665  0.00  0.00    +0.000 C 
ATOM      8  O   UNL     1      47.968   4.335  18.532  0.00  0.00    +0.000 OA
BRANCH   7   9
ATOM      9  C   UNL     1      50.216   4.449  17.838  0.00  0.00    +0.000 A 
ATOM     10  C   UNL     1      51.113   5.378  18.342  0.00  0.00    +0.000 A 
ATOM     11  S   UNL     1      52.666   4.733  18.651  0.00  0.00    +0.000 S 
ATOM     12  C   UNL     1      52.197   3.200  18.077  0.00  0.00    +0.000 A 
ATOM     13  N   UNL     1      53.054   2.141  18.135  0.00  0.00    +0.000 NA
ATOM     14  C   UNL     1      52.548   1.032  17.703  0.00  0.00    +0.000 A 
ATOM     15  N   UNL     1      51.289   0.897  17.184  0.00  0.00    +0.000 N 
ATOM     16  C   UNL     1      50.460   1.971  16.951  0.00  0.00    +0.000 A 
ATOM     17  O   UNL     1      49.503   1.866  16.193  0.00  0.00    +0.000 OA
ATOM     18  C   UNL     1      50.912   3.205  17.580  0.00  0.00    +0.000 A 
ATOM     19  H   UNL     1      50.999   0.029  16.758  0.00  0.00    +0.000 HD
ENDBRANCH   7   9
ENDBRANCH   4   7
ENDBRANCH   3   4
ENDBRANCH   1   3
BRANCH   1  20
ATOM     20  C   UNL     1      49.288   7.956  14.120  0.00  0.00    +0.000 C 
BRANCH  20  21
ATOM     21  C   UNL     1      48.023   7.731  13.323  0.00  0.00    +0.000 A 
ATOM     22  C   UNL     1      46.881   8.510  13.530  0.00  0.00    +0.000 A 
ATOM     23  C   UNL     1      45.689   8.214  12.858  0.00  0.00    +0.000 A 
ATOM     24  C   UNL     1      45.612   7.133  11.963  0.00  0.00    +0.000 A 
ATOM     25  C   UNL     1      46.776   6.391  11.723  0.00  0.00    +0.000 A 
ATOM     26  C   UNL     1      47.966   6.688  12.390  0.00  0.00    +0.000 A 
BRANCH  24  27
ATOM     27  C   UNL     1      44.260   6.732  11.394  0.00  0.00    +0.000 C 
BRANCH  27  28
ATOM     28  O   UNL     1      43.490   7.919  11.195  0.00  0.00    +0.000 OA
ATOM     29  H   UNL     1      43.047   8.121  12.039  0.00  0.00    +0.000 HD
ENDBRANCH  27  28
BRANCH  27  30
ATOM     30  C   UNL     1      43.442   5.775  12.275  0.00  0.00    +0.000 C 
BRANCH  30  31
ATOM     31  C   UNL     1      43.152   4.404  11.628  0.00  0.00    +0.000 C 
ATOM     32  C   UNL     1      43.726   3.281  12.491  0.00  0.00    +0.000 C 
ATOM     33  C   UNL     1      45.115   3.091  11.921  0.00  0.00    +0.000 C 
ATOM     34  N   UNL     1      44.912   3.203  10.474  0.00  0.00    +0.000 NA
ATOM     35  C   UNL     1      43.845   4.202  10.278  0.00  0.00    +0.000 C 
ATOM     36  H   UNL     1      44.570   2.305  10.130  0.00  0.00    +0.000 HD
ENDBRANCH  30  31
ENDBRANCH  27  30
ENDBRANCH  24  27
ENDBRANCH  20  21
ENDBRANCH   1  20
TORSDOF 11
ENDMDL
MODEL 3
REMARK VINA RESULT:    -7.468      1.438      2.025
REMARK INTER + INTRA:         -13.027
REMARK INTER:                 -11.910
REMARK INTRA:                  -1.117
REMARK UNBOUND:                -0.974
REMARK  Name = 
REMARK  12 active torsions:
REMARK  status: ('A' for Active; 'I' for Inactive)
REMARK    1  A    between atoms: C_1  and  O_2
REMARK    2  A    between atoms: O_2  and  C_3
REMARK    3  A    between atoms: C_3  and  C_4
REMARK    4  A    between atoms: C_3  and  C_21
REMARK    5  A    between atoms: C_4  and  N_5
REMARK    6  A    between atoms: N_5  and  C_6
REMARK    7  A    between atoms: C_6  and  C_7
REMARK    8  A    between atoms: C_10  and  C_11
REMARK    9  A    between atoms: C_11  and  O_12
REMARK   10  A    between atoms: C_11  and  C_13
REMARK   11  A    between atoms: C_13  and  C_14
REMARK   12  A    between atoms: C_21  and  C_23
REMARK                            x       y       z     vdW  Elec       q    Type
REMARK                         _______ _______ _______ _____ _____    ______ ____
ROOT
ATOM      1  N   UNL     1      48.607   5.896  14.747  0.00  0.00    +0.000 NA
ATOM      2  H   UNL     1      48.034   5.046  14.754  0.00  0.00    +0.000 HD
ENDROOT
BRANCH   1   3
ATOM      3  C   UNL     1      48.652   6.446  16.109  0.00  0.00    +0.000 C 
BRANCH   3   4
ATOM      4  C   UNL     1      50.043   6.351  16.785  0.00  0.00    +0.000 C 
BRANCH   4   6
ATOM      5  C   UNL     1      48.983   8.272  17.767  0.00  0.00    +0.000 C 
ATOM      6  O   UNL     1      50.182   7.533  17.587  0.00  0.00    +0.000 OA
ENDBRANCH   4   6
BRANCH   4   7
ATOM      7  C   UNL     1      50.115   5.051  17.616  0.00  0.00    +0.000 C 
ATOM      8  O   UNL     1      49.091   4.617  18.146  0.00  0.00    +0.000 OA
BRANCH   7   9
ATOM      9  C   UNL     1      51.422   4.411  17.877  0.00  0.00    +0.000 A 
ATOM     10  C   UNL     1      52.543   5.076  18.350  0.00  0.00    +0.000 A 
ATOM     11  S   UNL     1      53.826   4.031  18.782  0.00  0.00    +0.000 S 
ATOM     12  C   UNL     1      52.936   2.661  18.305  0.00  0.00    +0.000 A 
ATOM     13  N   UNL     1      53.438   1.406  18.485  0.00  0.00    +0.000 NA
ATOM     14  C   UNL     1      52.635   0.461  18.116  0.00  0.00    +0.000 A 
ATOM     15  N   UNL     1      51.405   0.658  17.549  0.00  0.00    +0.000 N 
ATOM     16  C   UNL     1      50.938   1.904  17.195  0.00  0.00    +0.000 A 
ATOM     17  O   UNL     1      50.011   2.019  16.403  0.00  0.00    +0.000 OA
ATOM     18  C   UNL     1      51.723   3.000  17.748  0.00  0.00    +0.000 A 
ATOM     19  H   UNL     1      50.880  -0.120  17.177  0.00  0.00    +0.000 HD
ENDBRANCH   7   9
ENDBRANCH   4   7
ENDBRANCH   3   4
ENDBRANCH   1   3
BRANCH   1  20
ATOM     20  C   UNL     1      47.944   6.833  13.827  0.00  0.00    +0.000 C 
BRANCH  20  21
ATOM     21  C   UNL     1      46.865   6.117  13.047  0.00  0.00    +0.000 A 
ATOM     22  C   UNL     1      46.210   4.997  13.566  0.00  0.00    +0.000 A 
ATOM     23  C   UNL     1      45.291   4.286  12.783  0.00  0.00    +0.000 A 
ATOM     24  C   UNL     1      45.005   4.681  11.466  0.00  0.00    +0.000 A 
ATOM     25  C   UNL     1      45.627   5.836  10.973  0.00  0.00    +0.000 A 
ATOM     26  C   UNL     1      46.540   6.547  11.754  0.00  0.00    +0.000 A 
BRANCH  24  27
ATOM     27  C   UNL     1      44.145   3.785  10.589  0.00  0.00    +0.000 C 
BRANCH  27  28
ATOM     28  O   UNL     1      43.009   3.372  11.353  0.00  0.00    +0.000 OA
ATOM     29  H   UNL     1      42.249   3.338  10.744  0.00  0.00    +0.000 HD
ENDBRANCH  27  28
BRANCH  27  30
ATOM     30  C   UNL     1      44.848   2.525  10.061  0.00  0.00    +0.000 C 
BRANCH  30  31
ATOM     31  C   UNL     1      44.769   2.345   8.530  0.00  0.00    +0.000 C 
ATOM     32  C   UNL     1      46.020   1.634   8.017  0.00  0.00    +0.000 C 
ATOM     33  C   UNL     1      46.951   2.780   7.687  0.00  0.00    +0.000 C 
ATOM     34  N   UNL     1      46.069   3.772   7.067  0.00  0.00    +0.000 NA
ATOM     35  C   UNL     1      44.770   3.665   7.755  0.00  0.00    +0.000 C 
ATOM     36  H   UNL     1      45.931   3.508   6.090  0.00  0.00    +0.000 HD
ENDBRANCH  30  31
ENDBRANCH  27  30
ENDBRANCH  24  27
ENDBRANCH  20  21
ENDBRANCH   1  20
TORSDOF 11
ENDMDL
MODEL 4
REMARK VINA RESULT:    -7.431      2.317      3.116
REMARK INTER + INTRA:         -12.966
REMARK INTER:                 -11.402
REMARK INTRA:                  -1.564
REMARK UNBOUND:                -0.974
REMARK  Name = 
REMARK  12 active torsions:
REMARK  status: ('A' for Active; 'I' for Inactive)
REMARK    1  A    between atoms: C_1  and  O_2
REMARK    2  A    between atoms: O_2  and  C_3
REMARK    3  A    between atoms: C_3  and  C_4
REMARK    4  A    between atoms: C_3  and  C_21
REMARK    5  A    between atoms: C_4  and  N_5
REMARK    6  A    between atoms: N_5  and  C_6
REMARK    7  A    between atoms: C_6  and  C_7
REMARK    8  A    between atoms: C_10  and  C_11
REMARK    9  A    between atoms: C_11  and  O_12
REMARK   10  A    between atoms: C_11  and  C_13
REMARK   11  A    between atoms: C_13  and  C_14
REMARK   12  A    between atoms: C_21  and  C_23
REMARK                            x       y       z     vdW  Elec       q    Type
REMARK                         _______ _______ _______ _____ _____    ______ ____
ROOT
ATOM      1  N   UNL     1      48.239   6.330  12.943  0.00  0.00    +0.000 NA
ATOM      2  H   UNL     1      48.252   5.765  13.798  0.00  0.00    +0.000 HD
ENDROOT
BRANCH   1   3
ATOM      3  C   UNL     1      49.159   7.463  13.111  0.00  0.00    +0.000 C 
BRANCH   3   4
ATOM      4  C   UNL     1      50.049   7.373  14.376  0.00  0.00    +0.000 C 
BRANCH   4   6
ATOM      5  C   UNL     1      50.452   9.555  13.449  0.00  0.00    +0.000 C 
ATOM      6  O   UNL     1      50.841   8.571  14.396  0.00  0.00    +0.000 OA
ENDBRANCH   4   6
BRANCH   4   7
ATOM      7  C   UNL     1      49.147   7.230  15.622  0.00  0.00    +0.000 C 
ATOM      8  O   UNL     1      48.221   8.025  15.790  0.00  0.00    +0.000 OA
BRANCH   7   9
ATOM      9  C   UNL     1      49.473   6.230  16.661  0.00  0.00    +0.000 A 
ATOM     10  C   UNL     1      50.467   6.384  17.616  0.00  0.00    +0.000 A 
ATOM     11  S   UNL     1      50.446   5.176  18.825  0.00  0.00    +0.000 S 
ATOM     12  C   UNL     1      49.135   4.385  18.081  0.00  0.00    +0.000 A 
ATOM     13  N   UNL     1      48.561   3.292  18.660  0.00  0.00    +0.000 NA
ATOM     14  C   UNL     1      47.549   2.822  18.005  0.00  0.00    +0.000 A 
ATOM     15  N   UNL     1      47.092   3.315  16.813  0.00  0.00    +0.000 N 
ATOM     16  C   UNL     1      47.748   4.305  16.115  0.00  0.00    +0.000 A 
ATOM     17  O   UNL     1      47.516   4.485  14.926  0.00  0.00    +0.000 OA
ATOM     18  C   UNL     1      48.779   4.981  16.891  0.00  0.00    +0.000 A 
ATOM     19  H   UNL     1      46.372   2.830  16.297  0.00  0.00    +0.000 HD
ENDBRANCH   7   9
ENDBRANCH   4   7
ENDBRANCH   3   4
ENDBRANCH   1   3
BRANCH   1  20
ATOM     20  C   UNL     1      46.855   6.800  12.779  0.00  0.00    +0.000 C 
BRANCH  20  21
ATOM     21  C   UNL     1      46.093   5.864  11.868  0.00  0.00    +0.000 A 
ATOM     22  C   UNL     1      45.454   4.723  12.362  0.00  0.00    +0.000 A 
ATOM     23  C   UNL     1      44.848   3.814  11.486  0.00  0.00    +0.000 A 
ATOM     24  C   UNL     1      44.865   4.027  10.097  0.00  0.00    +0.000 A 
ATOM     25  C   UNL     1      45.461   5.200   9.616  0.00  0.00    +0.000 A 
ATOM     26  C   UNL     1      46.063   6.108  10.489  0.00  0.00    +0.000 A 
BRANCH  24  27
ATOM     27  C   UNL     1      44.358   2.933   9.170  0.00  0.00    +0.000 C 
BRANCH  27  28
ATOM     28  O   UNL     1      44.501   1.679   9.840  0.00  0.00    +0.000 OA
ATOM     29  H   UNL     1      44.953   1.853  10.685  0.00  0.00    +0.000 HD
ENDBRANCH  27  28
BRANCH  27  30
ATOM     30  C   UNL     1      45.085   2.838   7.819  0.00  0.00    +0.000 C 
BRANCH  30  31
ATOM     31  C   UNL     1      46.598   2.557   7.928  0.00  0.00    +0.000 C 
ATOM     32  C   UNL     1      47.370   3.437   6.945  0.00  0.00    +0.000 C 
ATOM     33  C   UNL     1      47.448   2.573   5.705  0.00  0.00    +0.000 C 
ATOM     34  N   UNL     1      47.717   1.233   6.235  0.00  0.00    +0.000 NA
ATOM     35  C   UNL     1      46.991   1.136   7.514  0.00  0.00    +0.000 C 
ATOM     36  H   UNL     1      48.716   1.164   6.433  0.00  0.00    +0.000 HD
ENDBRANCH  30  31
ENDBRANCH  27  30
ENDBRANCH  24  27
ENDBRANCH  20  21
ENDBRANCH   1  20
TORSDOF 11
ENDMDL
MODEL 5
REMARK VINA RESULT:    -7.292      2.571      3.479
REMARK INTER + INTRA:         -12.742
REMARK INTER:                 -10.944
REMARK INTRA:                  -1.798
REMARK UNBOUND:                -0.974
REMARK  Name = 
REMARK  12 active torsions:
REMARK  status: ('A' for Active; 'I' for Inactive)
REMARK    1  A    between atoms: C_1  and  O_2
REMARK    2  A    between atoms: O_2  and  C_3
REMARK    3  A    between atoms: C_3  and  C_4
REMARK    4  A    between atoms: C_3  and  C_21
REMARK    5  A    between atoms: C_4  and  N_5
REMARK    6  A    between atoms: N_5  and  C_6
REMARK    7  A    between atoms: C_6  and  C_7
REMARK    8  A    between atoms: C_10  and  C_11
REMARK    9  A    between atoms: C_11  and  O_12
REMARK   10  A    between atoms: C_11  and  C_13
REMARK   11  A    between atoms: C_13  and  C_14
REMARK   12  A    between atoms: C_21  and  C_23
REMARK                            x       y       z     vdW  Elec       q    Type
REMARK                         _______ _______ _______ _____ _____    ______ ____
ROOT
ATOM      1  N   UNL     1      47.272   8.130  14.305  0.00  0.00    +0.000 NA
ATOM      2  H   UNL     1      46.473   7.975  14.929  0.00  0.00    +0.000 HD
ENDROOT
BRANCH   1   3
ATOM      3  C   UNL     1      48.173   9.111  14.926  0.00  0.00    +0.000 C 
BRANCH   3   4
ATOM      4  C   UNL     1      49.031   8.539  16.083  0.00  0.00    +0.000 C 
BRANCH   4   6
ATOM      5  C   UNL     1      48.030   9.550  18.021  0.00  0.00    +0.000 C 
ATOM      6  O   UNL     1      48.147   8.394  17.205  0.00  0.00    +0.000 OA
ENDBRANCH   4   6
BRANCH   4   7
ATOM      7  C   UNL     1      49.657   7.199  15.635  0.00  0.00    +0.000 C 
ATOM      8  O   UNL     1      49.945   7.036  14.448  0.00  0.00    +0.000 OA
BRANCH   7   9
ATOM      9  C   UNL     1      49.785   6.085  16.598  0.00  0.00    +0.000 A 
ATOM     10  C   UNL     1      50.789   5.979  17.549  0.00  0.00    +0.000 A 
ATOM     11  S   UNL     1      50.536   4.714  18.671  0.00  0.00    +0.000 S 
ATOM     12  C   UNL     1      49.100   4.241  17.890  0.00  0.00    +0.000 A 
ATOM     13  N   UNL     1      48.326   3.239  18.398  0.00  0.00    +0.000 NA
ATOM     14  C   UNL     1      47.245   3.018  17.723  0.00  0.00    +0.000 A 
ATOM     15  N   UNL     1      46.892   3.672  16.574  0.00  0.00    +0.000 N 
ATOM     16  C   UNL     1      47.726   4.566  15.940  0.00  0.00    +0.000 A 
ATOM     17  O   UNL     1      47.534   4.871  14.769  0.00  0.00    +0.000 OA
ATOM     18  C   UNL     1      48.866   4.977  16.749  0.00  0.00    +0.000 A 
ATOM     19  H   UNL     1      46.094   3.370  16.035  0.00  0.00    +0.000 HD
ENDBRANCH   7   9
ENDBRANCH   4   7
ENDBRANCH   3   4
ENDBRANCH   1   3
BRANCH   1  20
ATOM     20  C   UNL     1      46.717   8.653  13.047  0.00  0.00    +0.000 C 
BRANCH  20  21
ATOM     21  C   UNL     1      45.993   7.553  12.303  0.00  0.00    +0.000 A 
ATOM     22  C   UNL     1      44.633   7.652  11.996  0.00  0.00    +0.000 A 
ATOM     23  C   UNL     1      43.959   6.577  11.404  0.00  0.00    +0.000 A 
ATOM     24  C   UNL     1      44.631   5.380  11.103  0.00  0.00    +0.000 A 
ATOM     25  C   UNL     1      46.005   5.310  11.365  0.00  0.00    +0.000 A 
ATOM     26  C   UNL     1      46.678   6.383  11.953  0.00  0.00    +0.000 A 
BRANCH  24  27
ATOM     27  C   UNL     1      43.831   4.176  10.631  0.00  0.00    +0.000 C 
BRANCH  27  28
ATOM     28  O   UNL     1      42.926   3.804  11.673  0.00  0.00    +0.000 OA
ATOM     29  H   UNL     1      43.262   2.979  12.066  0.00  0.00    +0.000 HD
ENDBRANCH  27  28
BRANCH  27  30
ATOM     30  C   UNL     1      44.670   2.941  10.265  0.00  0.00    +0.000 C 
BRANCH  30  31
ATOM     31  C   UNL     1      44.526   2.483   8.799  0.00  0.00    +0.000 C 
ATOM     32  C   UNL     1      45.632   1.490   8.444  0.00  0.00    +0.000 C 
ATOM     33  C   UNL     1      46.728   2.383   7.904  0.00  0.00    +0.000 C 
ATOM     34  N   UNL     1      46.004   3.366   7.095  0.00  0.00    +0.000 NA
ATOM     35  C   UNL     1      44.722   3.609   7.781  0.00  0.00    +0.000 C 
ATOM     36  H   UNL     1      45.802   2.944   6.187  0.00  0.00    +0.000 HD
ENDBRANCH  30  31
ENDBRANCH  27  30
ENDBRANCH  24  27
ENDBRANCH  20  21
ENDBRANCH   1  20
TORSDOF 11
ENDMDL
MODEL 6
REMARK VINA RESULT:    -7.199      2.005      2.914
REMARK INTER + INTRA:         -12.592
REMARK INTER:                 -11.166
REMARK INTRA:                  -1.426
REMARK UNBOUND:                -0.974
REMARK  Name = 
REMARK  12 active torsions:
REMARK  status: ('A' for Active; 'I' for Inactive)
REMARK    1  A    between atoms: C_1  and  O_2
REMARK    2  A    between atoms: O_2  and  C_3
REMARK    3  A    between atoms: C_3  and  C_4
REMARK    4  A    between atoms: C_3  and  C_21
REMARK    5  A    between atoms: C_4  and  N_5
REMARK    6  A    between atoms: N_5  and  C_6
REMARK    7  A    between atoms: C_6  and  C_7
REMARK    8  A    between atoms: C_10  and  C_11
REMARK    9  A    between atoms: C_11  and  O_12
REMARK   10  A    between atoms: C_11  and  C_13
REMARK   11  A    between atoms: C_13  and  C_14
REMARK   12  A    between atoms: C_21  and  C_23
REMARK                            x       y       z     vdW  Elec       q    Type
REMARK                         _______ _______ _______ _____ _____    ______ ____
ROOT
ATOM      1  N   UNL     1      47.060   7.825  13.766  0.00  0.00    +0.000 NA
ATOM      2  H   UNL     1      47.055   8.418  12.929  0.00  0.00    +0.000 HD
ENDROOT
BRANCH   1   3
ATOM      3  C   UNL     1      47.900   8.461  14.790  0.00  0.00    +0.000 C 
BRANCH   3   4
ATOM      4  C   UNL     1      49.098   7.595  15.253  0.00  0.00    +0.000 C 
BRANCH   4   6
ATOM      5  C   UNL     1      51.496   7.760  15.200  0.00  0.00    +0.000 C 
ATOM      6  O   UNL     1      50.253   8.446  15.203  0.00  0.00    +0.000 OA
ENDBRANCH   4   6
BRANCH   4   7
ATOM      7  C   UNL     1      48.814   7.052  16.672  0.00  0.00    +0.000 C 
ATOM      8  O   UNL     1      48.761   7.840  17.618  0.00  0.00    +0.000 OA
BRANCH   7   9
ATOM      9  C   UNL     1      48.737   5.595  16.905  0.00  0.00    +0.000 A 
ATOM     10  C   UNL     1      47.611   4.819  16.672  0.00  0.00    +0.000 A 
ATOM     11  S   UNL     1      47.900   3.139  16.802  0.00  0.00    +0.000 S 
ATOM     12  C   UNL     1      49.529   3.401  17.220  0.00  0.00    +0.000 A 
ATOM     13  N   UNL     1      50.381   2.352  17.398  0.00  0.00    +0.000 NA
ATOM     14  C   UNL     1      51.596   2.702  17.670  0.00  0.00    +0.000 A 
ATOM     15  N   UNL     1      52.022   3.994  17.821  0.00  0.00    +0.000 N 
ATOM     16  C   UNL     1      51.160   5.068  17.818  0.00  0.00    +0.000 A 
ATOM     17  O   UNL     1      51.509   6.147  18.281  0.00  0.00    +0.000 OA
ATOM     18  C   UNL     1      49.822   4.742  17.342  0.00  0.00    +0.000 A 
ATOM     19  H   UNL     1      52.957   4.193  18.148  0.00  0.00    +0.000 HD
ENDBRANCH   7   9
ENDBRANCH   4   7
ENDBRANCH   3   4
ENDBRANCH   1   3
BRANCH   1  20
ATOM     20  C   UNL     1      47.629   6.533  13.351  0.00  0.00    +0.000 C 
BRANCH  20  21
ATOM     21  C   UNL     1      46.638   5.783  12.490  0.00  0.00    +0.000 A 
ATOM     22  C   UNL     1      46.038   4.599  12.929  0.00  0.00    +0.000 A 
ATOM     23  C   UNL     1      45.207   3.865  12.073  0.00  0.00    +0.000 A 
ATOM     24  C   UNL     1      44.955   4.300  10.761  0.00  0.00    +0.000 A 
ATOM     25  C   UNL     1      45.518   5.515  10.349  0.00  0.00    +0.000 A 
ATOM     26  C   UNL     1      46.343   6.249  11.203  0.00  0.00    +0.000 A 
BRANCH  24  27
ATOM     27  C   UNL     1      44.199   3.388   9.807  0.00  0.00    +0.000 C 
BRANCH  27  28
ATOM     28  O   UNL     1      44.205   2.068  10.353  0.00  0.00    +0.000 OA
ATOM     29  H   UNL     1      43.492   2.027  11.016  0.00  0.00    +0.000 HD
ENDBRANCH  27  28
BRANCH  27  30
ATOM     30  C   UNL     1      44.774   3.318   8.384  0.00  0.00    +0.000 C 
BRANCH  30  31
ATOM     31  C   UNL     1      46.261   2.913   8.315  0.00  0.00    +0.000 C 
ATOM     32  C   UNL     1      46.961   3.661   7.181  0.00  0.00    +0.000 C 
ATOM     33  C   UNL     1      46.802   2.721   6.006  0.00  0.00    +0.000 C 
ATOM     34  N   UNL     1      47.034   1.397   6.591  0.00  0.00    +0.000 NA
ATOM     35  C   UNL     1      46.482   1.441   7.957  0.00  0.00    +0.000 C 
ATOM     36  H   UNL     1      48.043   1.254   6.662  0.00  0.00    +0.000 HD
ENDBRANCH  30  31
ENDBRANCH  27  30
ENDBRANCH  24  27
ENDBRANCH  20  21
ENDBRANCH   1  20
TORSDOF 11
ENDMDL
MODEL 7
REMARK VINA RESULT:    -7.134      2.565      3.622
REMARK INTER + INTRA:         -12.486
REMARK INTER:                 -10.748
REMARK INTRA:                  -1.739
REMARK UNBOUND:                -0.974
REMARK  Name = 
REMARK  12 active torsions:
REMARK  status: ('A' for Active; 'I' for Inactive)
REMARK    1  A    between atoms: C_1  and  O_2
REMARK    2  A    between atoms: O_2  and  C_3
REMARK    3  A    between atoms: C_3  and  C_4
REMARK    4  A    between atoms: C_3  and  C_21
REMARK    5  A    between atoms: C_4  and  N_5
REMARK    6  A    between atoms: N_5  and  C_6
REMARK    7  A    between atoms: C_6  and  C_7
REMARK    8  A    between atoms: C_10  and  C_11
REMARK    9  A    between atoms: C_11  and  O_12
REMARK   10  A    between atoms: C_11  and  C_13
REMARK   11  A    between atoms: C_13  and  C_14
REMARK   12  A    between atoms: C_21  and  C_23
REMARK                            x       y       z     vdW  Elec       q    Type
REMARK                         _______ _______ _______ _____ _____    ______ ____
ROOT
ATOM      1  N   UNL     1      49.608   6.732  14.352  0.00  0.00    +0.000 NA
ATOM      2  H   UNL     1      49.087   5.910  14.673  0.00  0.00    +0.000 HD
ENDROOT
BRANCH   1   3
ATOM      3  C   UNL     1      49.843   7.620  15.499  0.00  0.00    +0.000 C 
BRANCH   3   4
ATOM      4  C   UNL     1      50.804   7.036  16.565  0.00  0.00    +0.000 C 
BRANCH   4   6
ATOM      5  C   UNL     1      51.589   9.281  16.213  0.00  0.00    +0.000 C 
ATOM      6  O   UNL     1      51.575   8.141  17.060  0.00  0.00    +0.000 OA
ENDBRANCH   4   6
BRANCH   4   7
ATOM      7  C   UNL     1      49.974   6.342  17.669  0.00  0.00    +0.000 C 
ATOM      8  O   UNL     1      49.745   6.944  18.719  0.00  0.00    +0.000 OA
BRANCH   7   9
ATOM      9  C   UNL     1      49.574   4.927  17.514  0.00  0.00    +0.000 A 
ATOM     10  C   UNL     1      48.312   4.504  17.126  0.00  0.00    +0.000 A 
ATOM     11  S   UNL     1      48.222   2.829  16.801  0.00  0.00    +0.000 S 
ATOM     12  C   UNL     1      49.859   2.610  17.213  0.00  0.00    +0.000 A 
ATOM     13  N   UNL     1      50.456   1.392  17.078  0.00  0.00    +0.000 NA
ATOM     14  C   UNL     1      51.712   1.386  17.387  0.00  0.00    +0.000 A 
ATOM     15  N   UNL     1      52.407   2.468  17.856  0.00  0.00    +0.000 N 
ATOM     16  C   UNL     1      51.802   3.665  18.167  0.00  0.00    +0.000 A 
ATOM     17  O   UNL     1      52.368   4.480  18.884  0.00  0.00    +0.000 OA
ATOM     18  C   UNL     1      50.436   3.774  17.671  0.00  0.00    +0.000 A 
ATOM     19  H   UNL     1      53.355   2.365  18.189  0.00  0.00    +0.000 HD
ENDBRANCH   7   9
ENDBRANCH   4   7
ENDBRANCH   3   4
ENDBRANCH   1   3
BRANCH   1  20
ATOM     20  C   UNL     1      48.759   7.390  13.346  0.00  0.00    +0.000 C 
BRANCH  20  21
ATOM     21  C   UNL     1      47.404   6.722  13.295  0.00  0.00    +0.000 A 
ATOM     22  C   UNL     1      47.193   5.454  13.843  0.00  0.00    +0.000 A 
ATOM     23  C   UNL     1      45.959   4.810  13.689  0.00  0.00    +0.000 A 
ATOM     24  C   UNL     1      44.908   5.421  12.985  0.00  0.00    +0.000 A 
ATOM     25  C   UNL     1      45.111   6.714  12.485  0.00  0.00    +0.000 A 
ATOM     26  C   UNL     1      46.340   7.358  12.642  0.00  0.00    +0.000 A 
BRANCH  24  27
ATOM     27  C   UNL     1      43.650   4.621  12.682  0.00  0.00    +0.000 C 
BRANCH  27  28
ATOM     28  O   UNL     1      43.695   3.413  13.445  0.00  0.00    +0.000 OA
ATOM     29  H   UNL     1      44.103   3.629  14.303  0.00  0.00    +0.000 HD
ENDBRANCH  27  28
BRANCH  27  30
ATOM     30  C   UNL     1      43.459   4.246  11.205  0.00  0.00    +0.000 C 
BRANCH  30  31
ATOM     31  C   UNL     1      44.700   3.613  10.542  0.00  0.00    +0.000 C 
ATOM     32  C   UNL     1      45.238   4.531   9.445  0.00  0.00    +0.000 C 
ATOM     33  C   UNL     1      44.511   4.045   8.209  0.00  0.00    +0.000 C 
ATOM     34  N   UNL     1      44.523   2.587   8.354  0.00  0.00    +0.000 NA
ATOM     35  C   UNL     1      44.402   2.310   9.796  0.00  0.00    +0.000 C 
ATOM     36  H   UNL     1      45.433   2.244   8.042  0.00  0.00    +0.000 HD
ENDBRANCH  30  31
ENDBRANCH  27  30
ENDBRANCH  24  27
ENDBRANCH  20  21
ENDBRANCH   1  20
TORSDOF 11
ENDMDL
MODEL 8
REMARK VINA RESULT:    -6.744      3.223      4.338
REMARK INTER + INTRA:         -11.857
REMARK INTER:                 -10.567
REMARK INTRA:                  -1.290
REMARK UNBOUND:                -0.974
REMARK  Name = 
REMARK  12 active torsions:
REMARK  status: ('A' for Active; 'I' for Inactive)
REMARK    1  A    between atoms: C_1  and  O_2
REMARK    2  A    between atoms: O_2  and  C_3
REMARK    3  A    between atoms: C_3  and  C_4
REMARK    4  A    between atoms: C_3  and  C_21
REMARK    5  A    between atoms: C_4  and  N_5
REMARK    6  A    between atoms: N_5  and  C_6
REMARK    7  A    between atoms: C_6  and  C_7
REMARK    8  A    between atoms: C_10  and  C_11
REMARK    9  A    between atoms: C_11  and  O_12
REMARK   10  A    between atoms: C_11  and  C_13
REMARK   11  A    between atoms: C_13  and  C_14
REMARK   12  A    between atoms: C_21  and  C_23
REMARK                            x       y       z     vdW  Elec       q    Type
REMARK                         _______ _______ _______ _____ _____    ______ ____
ROOT
ATOM      1  N   UNL     1      47.099   7.494  13.781  0.00  0.00    +0.000 NA
ATOM      2  H   UNL     1      46.790   7.803  12.854  0.00  0.00    +0.000 HD
ENDROOT
BRANCH   1   3
ATOM      3  C   UNL     1      48.262   8.296  14.183  0.00  0.00    +0.000 C 
BRANCH   3   4
ATOM      4  C   UNL     1      49.554   7.471  14.407  0.00  0.00    +0.000 C 
BRANCH   4   6
ATOM      5  C   UNL     1      50.344   9.397  13.204  0.00  0.00    +0.000 C 
ATOM      6  O   UNL     1      50.545   8.029  13.531  0.00  0.00    +0.000 OA
ENDBRANCH   4   6
BRANCH   4   7
ATOM      7  C   UNL     1      49.956   7.552  15.897  0.00  0.00    +0.000 C 
ATOM      8  O   UNL     1      50.923   8.243  16.223  0.00  0.00    +0.000 OA
BRANCH   7   9
ATOM      9  C   UNL     1      49.267   6.709  16.896  0.00  0.00    +0.000 A 
ATOM     10  C   UNL     1      49.314   5.323  16.924  0.00  0.00    +0.000 A 
ATOM     11  S   UNL     1      48.623   4.643  18.331  0.00  0.00    +0.000 S 
ATOM     12  C   UNL     1      48.198   6.181  18.925  0.00  0.00    +0.000 A 
ATOM     13  N   UNL     1      47.627   6.320  20.156  0.00  0.00    +0.000 NA
ATOM     14  C   UNL     1      47.398   7.547  20.492  0.00  0.00    +0.000 A 
ATOM     15  N   UNL     1      47.647   8.635  19.699  0.00  0.00    +0.000 N 
ATOM     16  C   UNL     1      48.061   8.524  18.391  0.00  0.00    +0.000 A 
ATOM     17  O   UNL     1      47.951   9.471  17.621  0.00  0.00    +0.000 OA
ATOM     18  C   UNL     1      48.499   7.182  18.029  0.00  0.00    +0.000 A 
ATOM     19  H   UNL     1      47.336   9.555  19.976  0.00  0.00    +0.000 HD
ENDBRANCH   7   9
ENDBRANCH   4   7
ENDBRANCH   3   4
ENDBRANCH   1   3
BRANCH   1  20
ATOM     20  C   UNL     1      47.465   6.076  13.642  0.00  0.00    +0.000 C 
BRANCH  20  21
ATOM     21  C   UNL     1      46.497   5.379  12.712  0.00  0.00    +0.000 A 
ATOM     22  C   UNL     1      45.997   4.106  12.999  0.00  0.00    +0.000 A 
ATOM     23  C   UNL     1      45.187   3.436  12.073  0.00  0.00    +0.000 A 
ATOM     24  C   UNL     1      44.858   4.025  10.841  0.00  0.00    +0.000 A 
ATOM     25  C   UNL     1      45.321   5.323  10.585  0.00  0.00    +0.000 A 
ATOM     26  C   UNL     1      46.125   5.992  11.510  0.00  0.00    +0.000 A 
BRANCH  24  27
ATOM     27  C   UNL     1      44.133   3.199   9.790  0.00  0.00    +0.000 C 
BRANCH  27  28
ATOM     28  O   UNL     1      44.152   1.832  10.206  0.00  0.00    +0.000 OA
ATOM     29  H   UNL     1      43.799   1.301   9.470  0.00  0.00    +0.000 HD
ENDBRANCH  27  28
BRANCH  27  30
ATOM     30  C   UNL     1      44.730   3.276   8.377  0.00  0.00    +0.000 C 
BRANCH  30  31
ATOM     31  C   UNL     1      46.223   2.895   8.293  0.00  0.00    +0.000 C 
ATOM     32  C   UNL     1      46.899   3.657   7.155  0.00  0.00    +0.000 C 
ATOM     33  C   UNL     1      46.744   2.717   5.978  0.00  0.00    +0.000 C 
ATOM     34  N   UNL     1      47.003   1.396   6.557  0.00  0.00    +0.000 NA
ATOM     35  C   UNL     1      46.463   1.428   7.928  0.00  0.00    +0.000 C 
ATOM     36  H   UNL     1      48.014   1.268   6.618  0.00  0.00    +0.000 HD
ENDBRANCH  30  31
ENDBRANCH  27  30
ENDBRANCH  24  27
ENDBRANCH  20  21
ENDBRANCH   1  20
TORSDOF 11
ENDMDL
MODEL 9
REMARK VINA RESULT:    -6.585      3.501      5.000
REMARK INTER + INTRA:         -11.601
REMARK INTER:                  -9.873
REMARK INTRA:                  -1.728
REMARK UNBOUND:                -0.974
REMARK  Name = 
REMARK  12 active torsions:
REMARK  status: ('A' for Active; 'I' for Inactive)
REMARK    1  A    between atoms: C_1  and  O_2
REMARK    2  A    between atoms: O_2  and  C_3
REMARK    3  A    between atoms: C_3  and  C_4
REMARK    4  A    between atoms: C_3  and  C_21
REMARK    5  A    between atoms: C_4  and  N_5
REMARK    6  A    between atoms: N_5  and  C_6
REMARK    7  A    between atoms: C_6  and  C_7
REMARK    8  A    between atoms: C_10  and  C_11
REMARK    9  A    between atoms: C_11  and  O_12
REMARK   10  A    between atoms: C_11  and  C_13
REMARK   11  A    between atoms: C_13  and  C_14
REMARK   12  A    between atoms: C_21  and  C_23
REMARK                            x       y       z     vdW  Elec       q    Type
REMARK                         _______ _______ _______ _____ _____    ______ ____
ROOT
ATOM      1  N   UNL     1      50.758   7.385  14.690  0.00  0.00    +0.000 NA
ATOM      2  H   UNL     1      50.007   6.835  15.119  0.00  0.00    +0.000 HD
ENDROOT
BRANCH   1   3
ATOM      3  C   UNL     1      51.681   7.828  15.744  0.00  0.00    +0.000 C 
BRANCH   3   4
ATOM      4  C   UNL     1      52.488   6.681  16.402  0.00  0.00    +0.000 C 
BRANCH   4   6
ATOM      5  C   UNL     1      54.653   7.535  15.803  0.00  0.00    +0.000 C 
ATOM      6  O   UNL     1      53.725   7.260  16.842  0.00  0.00    +0.000 OA
ENDBRANCH   4   6
BRANCH   4   7
ATOM      7  C   UNL     1      51.661   6.081  17.562  0.00  0.00    +0.000 C 
ATOM      8  O   UNL     1      51.657   6.648  18.655  0.00  0.00    +0.000 OA
BRANCH   7   9
ATOM      9  C   UNL     1      50.991   4.774  17.394  0.00  0.00    +0.000 A 
ATOM     10  C   UNL     1      51.639   3.548  17.419  0.00  0.00    +0.000 A 
ATOM     11  S   UNL     1      50.574   2.212  17.441  0.00  0.00    +0.000 S 
ATOM     12  C   UNL     1      49.213   3.232  17.371  0.00  0.00    +0.000 A 
ATOM     13  N   UNL     1      47.952   2.718  17.435  0.00  0.00    +0.000 NA
ATOM     14  C   UNL     1      47.019   3.613  17.414  0.00  0.00    +0.000 A 
ATOM     15  N   UNL     1      47.230   4.960  17.292  0.00  0.00    +0.000 N 
ATOM     16  C   UNL     1      48.474   5.501  17.053  0.00  0.00    +0.000 A 
ATOM     17  O   UNL     1      48.583   6.641  16.620  0.00  0.00    +0.000 OA
ATOM     18  C   UNL     1      49.567   4.557  17.246  0.00  0.00    +0.000 A 
ATOM     19  H   UNL     1      46.453   5.593  17.164  0.00  0.00    +0.000 HD
ENDBRANCH   7   9
ENDBRANCH   4   7
ENDBRANCH   3   4
ENDBRANCH   1   3
BRANCH   1  20
ATOM     20  C   UNL     1      50.108   8.538  14.047  0.00  0.00    +0.000 C 
BRANCH  20  21
ATOM     21  C   UNL     1      48.790   8.116  13.437  0.00  0.00    +0.000 A 
ATOM     22  C   UNL     1      48.732   7.193  12.389  0.00  0.00    +0.000 A 
ATOM     23  C   UNL     1      47.511   6.899  11.769  0.00  0.00    +0.000 A 
ATOM     24  C   UNL     1      46.321   7.519  12.185  0.00  0.00    +0.000 A 
ATOM     25  C   UNL     1      46.381   8.403  13.271  0.00  0.00    +0.000 A 
ATOM     26  C   UNL     1      47.598   8.693  13.891  0.00  0.00    +0.000 A 
BRANCH  24  27
ATOM     27  C   UNL     1      45.051   7.314  11.373  0.00  0.00    +0.000 C 
BRANCH  27  28
ATOM     28  O   UNL     1      44.197   8.440  11.588  0.00  0.00    +0.000 OA
ATOM     29  H   UNL     1      44.363   8.760  12.493  0.00  0.00    +0.000 HD
ENDBRANCH  27  28
BRANCH  27  30
ATOM     30  C   UNL     1      44.259   6.043  11.717  0.00  0.00    +0.000 C 
BRANCH  30  31
ATOM     31  C   UNL     1      44.938   4.729  11.275  0.00  0.00    +0.000 C 
ATOM     32  C   UNL     1      43.942   3.845  10.527  0.00  0.00    +0.000 C 
ATOM     33  C   UNL     1      43.347   2.996  11.630  0.00  0.00    +0.000 C 
ATOM     34  N   UNL     1      44.501   2.669  12.473  0.00  0.00    +0.000 NA
ATOM     35  C   UNL     1      45.387   3.847  12.443  0.00  0.00    +0.000 C 
ATOM     36  H   UNL     1      44.999   1.889  12.041  0.00  0.00    +0.000 HD
ENDBRANCH  30  31
ENDBRANCH  27  30
ENDBRANCH  24  27
ENDBRANCH  20  21
ENDBRANCH   1  20
TORSDOF 11
ENDMDL
