MODEL 1
REMARK VINA RESULT:    -8.976      0.000      0.000
REMARK INTER + INTRA:         -13.063
REMARK INTER:                 -12.124
REMARK INTRA:                  -0.939
REMARK UNBOUND:                -0.939
REMARK  Name = 
REMARK  6 active torsions:
REMARK  status: ('A' for Active; 'I' for Inactive)
REMARK    1  A    between atoms: C_2  and  C_4
REMARK    2  A    between atoms: N_8  and  C_9
REMARK    3  A    between atoms: C_9  and  C_10
REMARK    4  A    between atoms: C_10  and  C_13
REMARK    5  A    between atoms: C_17  and  O_18
REMARK    6  A    between atoms: O_18  and  C_19
REMARK                            x       y       z     vdW  Elec       q    Type
REMARK                         _______ _______ _______ _____ _____    ______ ____
ROOT
ATOM      1  C   UNL     1      43.320   5.154  12.341  0.00  0.00    +0.000 C 
ATOM      2  F   UNL     1      42.657   6.347  12.215  0.00  0.00    +0.000 F 
ATOM      3  F   UNL     1      42.634   4.465  13.301  0.00  0.00    +0.000 F 
ENDROOT
BRANCH   1   4
ATOM      4  C   UNL     1      44.770   5.382  12.763  0.00  0.00    +0.000 A 
ATOM      5  C   UNL     1      45.503   4.438  13.499  0.00  0.00    +0.000 A 
ATOM      6  C   UNL     1      46.832   4.656  13.895  0.00  0.00    +0.000 A 
ATOM      7 CL   UNL     1      47.509   3.364  14.820  0.00  0.00    +0.000 Cl
ATOM      8  C   UNL     1      47.474   5.851  13.567  0.00  0.00    +0.000 A 
ATOM      9  C   UNL     1      46.745   6.803  12.820  0.00  0.00    +0.000 A 
ATOM     10 CL   UNL     1      47.459   8.313  12.357  0.00  0.00    +0.000 Cl
ATOM     11  C   UNL     1      45.418   6.573  12.420  0.00  0.00    +0.000 A 
BRANCH   8  12
ATOM     12  O   UNL     1      48.722   6.260  13.979  0.00  0.00    +0.000 OA
BRANCH  12  13
ATOM     13  C   UNL     1      48.941   6.905  15.247  0.00  0.00    +0.000 C 
ATOM     14  C   UNL     1      50.391   7.381  15.455  0.00  0.00    +0.000 C 
ATOM     15  C   UNL     1      50.332   6.848  16.894  0.00  0.00    +0.000 C 
ATOM     16  F   UNL     1      51.413   6.146  17.296  0.00  0.00    +0.000 F 
ATOM     17  F   UNL     1      50.102   7.784  17.844  0.00  0.00    +0.000 F 
ATOM     18  C   UNL     1      49.106   6.010  16.491  0.00  0.00    +0.000 C 
ENDBRANCH  12  13
ENDBRANCH   8  12
ENDBRANCH   1   4
BRANCH   1  19
ATOM     19  C   UNL     1      43.191   4.403  10.994  0.00  0.00    +0.000 C 
BRANCH  19  24
ATOM     20  C   UNL     1      46.284   2.108   7.918  0.00  0.00    +0.000 A 
ATOM     21  C   UNL     1      46.347   3.441   7.520  0.00  0.00    +0.000 A 
ATOM     22  C   UNL     1      45.564   4.388   8.182  0.00  0.00    +0.000 A 
ATOM     23  C   UNL     1      44.740   3.989   9.230  0.00  0.00    +0.000 A 
ATOM     24  N   UNL     1      43.961   4.968   9.877  0.00  0.00    +0.000 N 
ATOM     25  N   UNL     1      44.646   2.691   9.597  0.00  0.00    +0.000 NA
ATOM     26  C   UNL     1      45.406   1.779   8.938  0.00  0.00    +0.000 A 
ATOM     27  H   UNL     1      44.551   5.748  10.169  0.00  0.00    +0.000 HD
BRANCH  20  29
ATOM     28  N   UNL     1      46.818  -0.243   7.671  0.00  0.00    +0.000 N 
ATOM     29  C   UNL     1      47.095   1.042   7.297  0.00  0.00    +0.000 C 
ATOM     30  O   UNL     1      47.944   1.291   6.454  0.00  0.00    +0.000 OA
ATOM     31  H   UNL     1      47.301  -0.975   7.165  0.00  0.00    +0.000 HD
ATOM     32  H   UNL     1      45.971  -0.495   8.159  0.00  0.00    +0.000 HD
ENDBRANCH  20  29
ENDBRANCH  19  24
ENDBRANCH   1  19
TORSDOF 6
ENDMDL
MODEL 2
REMARK VINA RESULT:    -7.812      1.153      2.154
REMARK INTER + INTRA:         -11.491
REMARK INTER:                 -10.589
REMARK INTRA:                  -0.901
REMARK UNBOUND:                -0.939
REMARK  Name = 
REMARK  6 active torsions:
REMARK  status: ('A' for Active; 'I' for Inactive)
REMARK    1  A    between atoms: C_2  and  C_4
REMARK    2  A    between atoms: N_8  and  C_9
REMARK    3  A    between atoms: C_9  and  C_10
REMARK    4  A    between atoms: C_10  and  C_13
REMARK    5  A    between atoms: C_17  and  O_18
REMARK    6  A    between atoms: O_18  and  C_19
REMARK                            x       y       z     vdW  Elec       q    Type
REMARK                         _______ _______ _______ _____ _____    ______ ____
ROOT
ATOM      1  C   UNL     1      43.262   5.541  12.198  0.00  0.00    +0.000 C 
ATOM      2  F   UNL     1      42.508   6.604  11.776  0.00  0.00    +0.000 F 
ATOM      3  F   UNL     1      42.532   4.962  13.197  0.00  0.00    +0.000 F 
ENDROOT
BRANCH   1   4
ATOM      4  C   UNL     1      44.620   6.010  12.714  0.00  0.00    +0.000 A 
ATOM      5  C   UNL     1      45.140   7.283  12.432  0.00  0.00    +0.000 A 
ATOM      6  C   UNL     1      46.395   7.706  12.898  0.00  0.00    +0.000 A 
ATOM      7 CL   UNL     1      46.830   9.299  12.390  0.00  0.00    +0.000 Cl
ATOM      8  C   UNL     1      47.183   6.849  13.667  0.00  0.00    +0.000 A 
ATOM      9  C   UNL     1      46.663   5.569  13.960  0.00  0.00    +0.000 A 
ATOM     10 CL   UNL     1      47.563   4.436  14.916  0.00  0.00    +0.000 Cl
ATOM     11  C   UNL     1      45.402   5.156  13.498  0.00  0.00    +0.000 A 
BRANCH   8  12
ATOM     12  O   UNL     1      48.472   7.070  14.094  0.00  0.00    +0.000 OA
BRANCH  12  13
ATOM     13  C   UNL     1      48.773   7.596  15.400  0.00  0.00    +0.000 C 
ATOM     14  C   UNL     1      48.864   9.132  15.441  0.00  0.00    +0.000 C 
ATOM     15  C   UNL     1      50.111   9.009  16.328  0.00  0.00    +0.000 C 
ATOM     16  F   UNL     1      51.142   9.813  15.992  0.00  0.00    +0.000 F 
ATOM     17  F   UNL     1      49.895   9.187  17.651  0.00  0.00    +0.000 F 
ATOM     18  C   UNL     1      50.237   7.542  15.878  0.00  0.00    +0.000 C 
ENDBRANCH  12  13
ENDBRANCH   8  12
ENDBRANCH   1   4
BRANCH   1  19
ATOM     19  C   UNL     1      43.372   4.548  11.016  0.00  0.00    +0.000 C 
BRANCH  19  24
ATOM     20  C   UNL     1      46.210   2.022   7.875  0.00  0.00    +0.000 A 
ATOM     21  C   UNL     1      46.299   3.336   7.423  0.00  0.00    +0.000 A 
ATOM     22  C   UNL     1      45.588   4.336   8.087  0.00  0.00    +0.000 A 
ATOM     23  C   UNL     1      44.808   4.009   9.191  0.00  0.00    +0.000 A 
ATOM     24  N   UNL     1      44.100   5.040   9.839  0.00  0.00    +0.000 N 
ATOM     25  N   UNL     1      44.686   2.730   9.613  0.00  0.00    +0.000 NA
ATOM     26  C   UNL     1      45.376   1.765   8.951  0.00  0.00    +0.000 A 
ATOM     27  H   UNL     1      44.733   5.807  10.070  0.00  0.00    +0.000 HD
BRANCH  20  29
ATOM     28  N   UNL     1      47.776   1.212   6.213  0.00  0.00    +0.000 N 
ATOM     29  C   UNL     1      46.947   0.903   7.255  0.00  0.00    +0.000 C 
ATOM     30  O   UNL     1      46.856  -0.238   7.680  0.00  0.00    +0.000 OA
ATOM     31  H   UNL     1      48.359   0.462   5.862  0.00  0.00    +0.000 HD
ATOM     32  H   UNL     1      48.063   2.159   6.009  0.00  0.00    +0.000 HD
ENDBRANCH  20  29
ENDBRANCH  19  24
ENDBRANCH   1  19
TORSDOF 6
ENDMDL
MODEL 3
REMARK VINA RESULT:    -7.204      4.320      8.523
REMARK INTER + INTRA:         -10.670
REMARK INTER:                  -9.489
REMARK INTRA:                  -1.181
REMARK UNBOUND:                -0.939
REMARK  Name = 
REMARK  6 active torsions:
REMARK  status: ('A' for Active; 'I' for Inactive)
REMARK    1  A    between atoms: C_2  and  C_4
REMARK    2  A    between atoms: N_8  and  C_9
REMARK    3  A    between atoms: C_9  and  C_10
REMARK    4  A    between atoms: C_10  and  C_13
REMARK    5  A    between atoms: C_17  and  O_18
REMARK    6  A    between atoms: O_18  and  C_19
REMARK                            x       y       z     vdW  Elec       q    Type
REMARK                         _______ _______ _______ _____ _____    ______ ____
ROOT
ATOM      1  C   UNL     1      49.270   7.898  12.979  0.00  0.00    +0.000 C 
ATOM      2  F   UNL     1      49.129   9.260  13.014  0.00  0.00    +0.000 F 
ATOM      3  F   UNL     1      50.129   7.656  11.945  0.00  0.00    +0.000 F 
ENDROOT
BRANCH   1   4
ATOM      4  C   UNL     1      47.922   7.219  12.742  0.00  0.00    +0.000 A 
ATOM      5  C   UNL     1      47.682   5.876  13.069  0.00  0.00    +0.000 A 
ATOM      6  C   UNL     1      46.446   5.252  12.839  0.00  0.00    +0.000 A 
ATOM      7 CL   UNL     1      46.406   3.586  13.293  0.00  0.00    +0.000 Cl
ATOM      8  C   UNL     1      45.399   5.966  12.256  0.00  0.00    +0.000 A 
ATOM      9  C   UNL     1      45.631   7.321  11.930  0.00  0.00    +0.000 A 
ATOM     10 CL   UNL     1      44.389   8.293  11.211  0.00  0.00    +0.000 Cl
ATOM     11  C   UNL     1      46.868   7.940  12.173  0.00  0.00    +0.000 A 
BRANCH   8  12
ATOM     12  O   UNL     1      44.177   5.469  11.860  0.00  0.00    +0.000 OA
BRANCH  12  13
ATOM     13  C   UNL     1      43.987   4.808  10.596  0.00  0.00    +0.000 C 
ATOM     14  C   UNL     1      43.790   3.286  10.719  0.00  0.00    +0.000 C 
ATOM     15  C   UNL     1      44.726   3.094   9.517  0.00  0.00    +0.000 C 
ATOM     16  F   UNL     1      45.653   2.121   9.654  0.00  0.00    +0.000 F 
ATOM     17  F   UNL     1      44.106   2.875   8.335  0.00  0.00    +0.000 F 
ATOM     18  C   UNL     1      45.234   4.531   9.733  0.00  0.00    +0.000 C 
ENDBRANCH  12  13
ENDBRANCH   8  12
ENDBRANCH   1   4
BRANCH   1  19
ATOM     19  C   UNL     1      49.943   7.464  14.303  0.00  0.00    +0.000 C 
BRANCH  19  24
ATOM     20  C   UNL     1      48.878   5.327  18.616  0.00  0.00    +0.000 A 
ATOM     21  C   UNL     1      48.492   6.652  18.796  0.00  0.00    +0.000 A 
ATOM     22  C   UNL     1      48.673   7.564  17.755  0.00  0.00    +0.000 A 
ATOM     23  C   UNL     1      49.229   7.135  16.554  0.00  0.00    +0.000 A 
ATOM     24  N   UNL     1      49.401   8.079  15.522  0.00  0.00    +0.000 N 
ATOM     25  N   UNL     1      49.641   5.858  16.385  0.00  0.00    +0.000 NA
ATOM     26  C   UNL     1      49.467   4.985  17.410  0.00  0.00    +0.000 A 
ATOM     27  H   UNL     1      48.523   8.571  15.349  0.00  0.00    +0.000 HD
BRANCH  20  29
ATOM     28  N   UNL     1      48.336   3.043  19.217  0.00  0.00    +0.000 N 
ATOM     29  C   UNL     1      48.700   4.287  19.649  0.00  0.00    +0.000 C 
ATOM     30  O   UNL     1      48.911   4.515  20.830  0.00  0.00    +0.000 OA
ATOM     31  H   UNL     1      48.320   2.309  19.915  0.00  0.00    +0.000 HD
ATOM     32  H   UNL     1      48.403   2.763  18.249  0.00  0.00    +0.000 HD
ENDBRANCH  20  29
ENDBRANCH  19  24
ENDBRANCH   1  19
TORSDOF 6
ENDMDL
MODEL 4
REMARK VINA RESULT:    -6.897      4.207      8.739
REMARK INTER + INTRA:         -10.254
REMARK INTER:                  -9.081
REMARK INTRA:                  -1.174
REMARK UNBOUND:                -0.939
REMARK  Name = 
REMARK  6 active torsions:
REMARK  status: ('A' for Active; 'I' for Inactive)
REMARK    1  A    between atoms: C_2  and  C_4
REMARK    2  A    between atoms: N_8  and  C_9
REMARK    3  A    between atoms: C_9  and  C_10
REMARK    4  A    between atoms: C_10  and  C_13
REMARK    5  A    between atoms: C_17  and  O_18
REMARK    6  A    between atoms: O_18  and  C_19
REMARK                            x       y       z     vdW  Elec       q    Type
REMARK                         _______ _______ _______ _____ _____    ______ ____
ROOT
ATOM      1  C   UNL     1      48.665   8.333  13.589  0.00  0.00    +0.000 C 
ATOM      2  F   UNL     1      48.279   9.194  14.583  0.00  0.00    +0.000 F 
ATOM      3  F   UNL     1      49.207   9.130  12.620  0.00  0.00    +0.000 F 
ENDROOT
BRANCH   1   4
ATOM      4  C   UNL     1      47.467   7.555  13.050  0.00  0.00    +0.000 A 
ATOM      5  C   UNL     1      46.426   8.165  12.334  0.00  0.00    +0.000 A 
ATOM      6  C   UNL     1      45.320   7.448  11.850  0.00  0.00    +0.000 A 
ATOM      7 CL   UNL     1      44.155   8.424  11.031  0.00  0.00    +0.000 Cl
ATOM      8  C   UNL     1      45.219   6.075  12.082  0.00  0.00    +0.000 A 
ATOM      9  C   UNL     1      46.267   5.453  12.796  0.00  0.00    +0.000 A 
ATOM     10 CL   UNL     1      46.237   3.751  13.126  0.00  0.00    +0.000 Cl
ATOM     11  C   UNL     1      47.375   6.177  13.269  0.00  0.00    +0.000 A 
BRANCH   8  12
ATOM     12  O   UNL     1      44.151   5.261  11.780  0.00  0.00    +0.000 OA
BRANCH  12  13
ATOM     13  C   UNL     1      43.971   4.678  10.477  0.00  0.00    +0.000 C 
ATOM     14  C   UNL     1      43.901   3.140  10.493  0.00  0.00    +0.000 C 
ATOM     15  C   UNL     1      44.807   3.111   9.254  0.00  0.00    +0.000 C 
ATOM     16  F   UNL     1      45.812   2.209   9.294  0.00  0.00    +0.000 F 
ATOM     17  F   UNL     1      44.167   2.927   8.077  0.00  0.00    +0.000 F 
ATOM     18  C   UNL     1      45.207   4.565   9.561  0.00  0.00    +0.000 C 
ENDBRANCH  12  13
ENDBRANCH   8  12
ENDBRANCH   1   4
BRANCH   1  19
ATOM     19  C   UNL     1      49.772   7.419  14.166  0.00  0.00    +0.000 C 
BRANCH  19  24
ATOM     20  C   UNL     1      49.182   5.310  18.582  0.00  0.00    +0.000 A 
ATOM     21  C   UNL     1      49.957   6.435  18.850  0.00  0.00    +0.000 A 
ATOM     22  C   UNL     1      50.335   7.271  17.799  0.00  0.00    +0.000 A 
ATOM     23  C   UNL     1      49.928   6.972  16.502  0.00  0.00    +0.000 A 
ATOM     24  N   UNL     1      50.327   7.834  15.462  0.00  0.00    +0.000 N 
ATOM     25  N   UNL     1      49.207   5.861  16.228  0.00  0.00    +0.000 NA
ATOM     26  C   UNL     1      48.855   5.052  17.260  0.00  0.00    +0.000 A 
ATOM     27  H   UNL     1      50.085   8.798  15.694  0.00  0.00    +0.000 HD
BRANCH  20  29
ATOM     28  N   UNL     1      48.460   3.096  19.252  0.00  0.00    +0.000 N 
ATOM     29  C   UNL     1      48.712   4.385  19.631  0.00  0.00    +0.000 C 
ATOM     30  O   UNL     1      48.596   4.741  20.794  0.00  0.00    +0.000 OA
ATOM     31  H   UNL     1      48.242   2.442  19.993  0.00  0.00    +0.000 HD
ATOM     32  H   UNL     1      48.784   2.715  18.375  0.00  0.00    +0.000 HD
ENDBRANCH  20  29
ENDBRANCH  19  24
ENDBRANCH   1  19
TORSDOF 6
ENDMDL
MODEL 5
REMARK VINA RESULT:    -6.503      4.435      8.364
REMARK INTER + INTRA:          -9.723
REMARK INTER:                  -8.724
REMARK INTRA:                  -0.999
REMARK UNBOUND:                -0.939
REMARK  Name = 
REMARK  6 active torsions:
REMARK  status: ('A' for Active; 'I' for Inactive)
REMARK    1  A    between atoms: C_2  and  C_4
REMARK    2  A    between atoms: N_8  and  C_9
REMARK    3  A    between atoms: C_9  and  C_10
REMARK    4  A    between atoms: C_10  and  C_13
REMARK    5  A    between atoms: C_17  and  O_18
REMARK    6  A    between atoms: O_18  and  C_19
REMARK                            x       y       z     vdW  Elec       q    Type
REMARK                         _______ _______ _______ _____ _____    ______ ____
ROOT
ATOM      1  C   UNL     1      49.122   7.485  16.510  0.00  0.00    +0.000 C 
ATOM      2  F   UNL     1      48.370   8.342  17.269  0.00  0.00    +0.000 F 
ATOM      3  F   UNL     1      50.254   8.183  16.201  0.00  0.00    +0.000 F 
ENDROOT
BRANCH   1   4
ATOM      4  C   UNL     1      48.368   7.077  15.246  0.00  0.00    +0.000 A 
ATOM      5  C   UNL     1      47.987   5.752  14.985  0.00  0.00    +0.000 A 
ATOM      6  C   UNL     1      47.305   5.379  13.816  0.00  0.00    +0.000 A 
ATOM      7 CL   UNL     1      46.976   3.687  13.705  0.00  0.00    +0.000 Cl
ATOM      8  C   UNL     1      46.986   6.339  12.854  0.00  0.00    +0.000 A 
ATOM      9  C   UNL     1      47.361   7.676  13.114  0.00  0.00    +0.000 A 
ATOM     10 CL   UNL     1      47.001   8.940  11.984  0.00  0.00    +0.000 Cl
ATOM     11  C   UNL     1      48.035   8.042  14.290  0.00  0.00    +0.000 A 
BRANCH   8  12
ATOM     12  O   UNL     1      46.431   6.116  11.614  0.00  0.00    +0.000 OA
BRANCH  12  13
ATOM     13  C   UNL     1      45.017   5.930  11.425  0.00  0.00    +0.000 C 
ATOM     14  C   UNL     1      44.212   5.937  12.737  0.00  0.00    +0.000 C 
ATOM     15  C   UNL     1      43.401   4.741  12.216  0.00  0.00    +0.000 C 
ATOM     16  F   UNL     1      43.206   3.743  13.104  0.00  0.00    +0.000 F 
ATOM     17  F   UNL     1      42.187   5.050  11.705  0.00  0.00    +0.000 F 
ATOM     18  C   UNL     1      44.506   4.497  11.173  0.00  0.00    +0.000 C 
ENDBRANCH  12  13
ENDBRANCH   8  12
ENDBRANCH   1   4
BRANCH   1  19
ATOM     19  C   UNL     1      49.502   6.280  17.404  0.00  0.00    +0.000 C 
BRANCH  19  24
ATOM     20  C   UNL     1      52.198   2.164  17.706  0.00  0.00    +0.000 A 
ATOM     21  C   UNL     1      53.097   3.176  18.032  0.00  0.00    +0.000 A 
ATOM     22  C   UNL     1      52.663   4.503  18.028  0.00  0.00    +0.000 A 
ATOM     23  C   UNL     1      51.341   4.793  17.705  0.00  0.00    +0.000 A 
ATOM     24  N   UNL     1      50.933   6.141  17.707  0.00  0.00    +0.000 N 
ATOM     25  N   UNL     1      50.472   3.819  17.350  0.00  0.00    +0.000 NA
ATOM     26  C   UNL     1      50.911   2.534  17.350  0.00  0.00    +0.000 A 
ATOM     27  H   UNL     1      51.184   6.581  18.593  0.00  0.00    +0.000 HD
BRANCH  20  29
ATOM     28  N   UNL     1      51.692  -0.121  18.335  0.00  0.00    +0.000 N 
ATOM     29  C   UNL     1      52.558   0.733  17.711  0.00  0.00    +0.000 C 
ATOM     30  O   UNL     1      53.561   0.322  17.146  0.00  0.00    +0.000 OA
ATOM     31  H   UNL     1      51.888  -1.110  18.244  0.00  0.00    +0.000 HD
ATOM     32  H   UNL     1      50.750   0.147  18.582  0.00  0.00    +0.000 HD
ENDBRANCH  20  29
ENDBRANCH  19  24
ENDBRANCH   1  19
TORSDOF 6
ENDMDL
MODEL 6
REMARK VINA RESULT:    -6.331      4.490      8.776
REMARK INTER + INTRA:          -9.491
REMARK INTER:                  -8.348
REMARK INTRA:                  -1.143
REMARK UNBOUND:                -0.939
REMARK  Name = 
REMARK  6 active torsions:
REMARK  status: ('A' for Active; 'I' for Inactive)
REMARK    1  A    between atoms: C_2  and  C_4
REMARK    2  A    between atoms: N_8  and  C_9
REMARK    3  A    between atoms: C_9  and  C_10
REMARK    4  A    between atoms: C_10  and  C_13
REMARK    5  A    between atoms: C_17  and  O_18
REMARK    6  A    between atoms: O_18  and  C_19
REMARK                            x       y       z     vdW  Elec       q    Type
REMARK                         _______ _______ _______ _____ _____    ______ ____
ROOT
ATOM      1  C   UNL     1      49.573   8.287  12.664  0.00  0.00    +0.000 C 
ATOM      2  F   UNL     1      49.390   9.533  12.124  0.00  0.00    +0.000 F 
ATOM      3  F   UNL     1      50.487   7.678  11.851  0.00  0.00    +0.000 F 
ENDROOT
BRANCH   1   4
ATOM      4  C   UNL     1      48.260   7.509  12.690  0.00  0.00    +0.000 A 
ATOM      5  C   UNL     1      47.084   7.986  12.092  0.00  0.00    +0.000 A 
ATOM      6  C   UNL     1      45.875   7.273  12.128  0.00  0.00    +0.000 A 
ATOM      7 CL   UNL     1      44.561   8.082  11.352  0.00  0.00    +0.000 Cl
ATOM      8  C   UNL     1      45.806   6.044  12.785  0.00  0.00    +0.000 A 
ATOM      9  C   UNL     1      46.987   5.554  13.384  0.00  0.00    +0.000 A 
ATOM     10 CL   UNL     1      47.004   4.032  14.214  0.00  0.00    +0.000 Cl
ATOM     11  C   UNL     1      48.196   6.269  13.334  0.00  0.00    +0.000 A 
BRANCH   8  12
ATOM     12  O   UNL     1      44.678   5.287  13.009  0.00  0.00    +0.000 OA
BRANCH  12  13
ATOM     13  C   UNL     1      44.231   4.276  12.087  0.00  0.00    +0.000 C 
ATOM     14  C   UNL     1      45.305   3.853  11.068  0.00  0.00    +0.000 C 
ATOM     15  C   UNL     1      44.233   3.877   9.968  0.00  0.00    +0.000 C 
ATOM     16  F   UNL     1      44.600   4.476   8.815  0.00  0.00    +0.000 F 
ATOM     17  F   UNL     1      43.726   2.668   9.633  0.00  0.00    +0.000 F 
ATOM     18  C   UNL     1      43.349   4.721  10.904  0.00  0.00    +0.000 C 
ENDBRANCH  12  13
ENDBRANCH   8  12
ENDBRANCH   1   4
BRANCH   1  19
ATOM     19  C   UNL     1      50.196   8.473  14.068  0.00  0.00    +0.000 C 
BRANCH  19  24
ATOM     20  C   UNL     1      48.161   7.219  18.379  0.00  0.00    +0.000 A 
ATOM     21  C   UNL     1      47.791   8.550  18.211  0.00  0.00    +0.000 A 
ATOM     22  C   UNL     1      48.221   9.240  17.076  0.00  0.00    +0.000 A 
ATOM     23  C   UNL     1      49.007   8.588  16.131  0.00  0.00    +0.000 A 
ATOM     24  N   UNL     1      49.427   9.311  14.998  0.00  0.00    +0.000 N 
ATOM     25  N   UNL     1      49.402   7.306  16.307  0.00  0.00    +0.000 NA
ATOM     26  C   UNL     1      48.983   6.651  17.420  0.00  0.00    +0.000 A 
ATOM     27  H   UNL     1      48.624   9.751  14.546  0.00  0.00    +0.000 HD
BRANCH  20  29
ATOM     28  N   UNL     1      46.735   5.493  19.307  0.00  0.00    +0.000 N 
ATOM     29  C   UNL     1      47.731   6.401  19.531  0.00  0.00    +0.000 C 
ATOM     30  O   UNL     1      48.270   6.499  20.623  0.00  0.00    +0.000 OA
ATOM     31  H   UNL     1      46.518   4.863  20.069  0.00  0.00    +0.000 HD
ATOM     32  H   UNL     1      46.453   5.215  18.378  0.00  0.00    +0.000 HD
ENDBRANCH  20  29
ENDBRANCH  19  24
ENDBRANCH   1  19
TORSDOF 6
ENDMDL
MODEL 7
REMARK VINA RESULT:    -6.201      3.566      5.340
REMARK INTER + INTRA:          -9.314
REMARK INTER:                  -8.219
REMARK INTRA:                  -1.095
REMARK UNBOUND:                -0.939
REMARK  Name = 
REMARK  6 active torsions:
REMARK  status: ('A' for Active; 'I' for Inactive)
REMARK    1  A    between atoms: C_2  and  C_4
REMARK    2  A    between atoms: N_8  and  C_9
REMARK    3  A    between atoms: C_9  and  C_10
REMARK    4  A    between atoms: C_10  and  C_13
REMARK    5  A    between atoms: C_17  and  O_18
REMARK    6  A    between atoms: O_18  and  C_19
REMARK                            x       y       z     vdW  Elec       q    Type
REMARK                         _______ _______ _______ _____ _____    ______ ____
ROOT
ATOM      1  C   UNL     1      48.502   8.741  13.289  0.00  0.00    +0.000 C 
ATOM      2  F   UNL     1      49.250   7.969  12.439  0.00  0.00    +0.000 F 
ATOM      3  F   UNL     1      48.807  10.031  12.959  0.00  0.00    +0.000 F 
ENDROOT
BRANCH   1   4
ATOM      4  C   UNL     1      48.860   8.448  14.744  0.00  0.00    +0.000 A 
ATOM      5  C   UNL     1      48.307   9.160  15.819  0.00  0.00    +0.000 A 
ATOM      6  C   UNL     1      48.647   8.896  17.155  0.00  0.00    +0.000 A 
ATOM      7 CL   UNL     1      47.863   9.928  18.296  0.00  0.00    +0.000 Cl
ATOM      8  C   UNL     1      49.575   7.898  17.457  0.00  0.00    +0.000 A 
ATOM      9  C   UNL     1      50.130   7.172  16.380  0.00  0.00    +0.000 A 
ATOM     10 CL   UNL     1      51.283   5.907  16.656  0.00  0.00    +0.000 Cl
ATOM     11  C   UNL     1      49.777   7.437  15.047  0.00  0.00    +0.000 A 
BRANCH   8  12
ATOM     12  O   UNL     1      50.097   7.601  18.696  0.00  0.00    +0.000 OA
BRANCH  12  13
ATOM     13  C   UNL     1      49.408   6.767  19.644  0.00  0.00    +0.000 C 
ATOM     14  C   UNL     1      50.140   5.448  19.954  0.00  0.00    +0.000 C 
ATOM     15  C   UNL     1      48.795   4.712  19.875  0.00  0.00    +0.000 C 
ATOM     16  F   UNL     1      48.808   3.556  19.177  0.00  0.00    +0.000 F 
ATOM     17  F   UNL     1      48.219   4.438  21.068  0.00  0.00    +0.000 F 
ATOM     18  C   UNL     1      48.216   5.931  19.134  0.00  0.00    +0.000 C 
ENDBRANCH  12  13
ENDBRANCH   8  12
ENDBRANCH   1   4
BRANCH   1  19
ATOM     19  C   UNL     1      47.011   8.480  12.967  0.00  0.00    +0.000 C 
BRANCH  19  24
ATOM     20  C   UNL     1      44.783   4.596  10.905  0.00  0.00    +0.000 A 
ATOM     21  C   UNL     1      44.670   4.358  12.272  0.00  0.00    +0.000 A 
ATOM     22  C   UNL     1      45.220   5.272  13.172  0.00  0.00    +0.000 A 
ATOM     23  C   UNL     1      45.868   6.406  12.692  0.00  0.00    +0.000 A 
ATOM     24  N   UNL     1      46.415   7.309  13.624  0.00  0.00    +0.000 N 
ATOM     25  N   UNL     1      46.015   6.624  11.365  0.00  0.00    +0.000 NA
ATOM     26  C   UNL     1      45.482   5.722  10.502  0.00  0.00    +0.000 A 
ATOM     27  H   UNL     1      45.709   7.571  14.313  0.00  0.00    +0.000 HD
BRANCH  20  29
ATOM     28  N   UNL     1      44.186   4.167   8.596  0.00  0.00    +0.000 N 
ATOM     29  C   UNL     1      44.209   3.701   9.881  0.00  0.00    +0.000 C 
ATOM     30  O   UNL     1      43.812   2.579  10.159  0.00  0.00    +0.000 OA
ATOM     31  H   UNL     1      43.892   3.511   7.883  0.00  0.00    +0.000 HD
ATOM     32  H   UNL     1      44.727   4.966   8.299  0.00  0.00    +0.000 HD
ENDBRANCH  20  29
ENDBRANCH  19  24
ENDBRANCH   1  19
TORSDOF 6
ENDMDL
