MODEL 1
REMARK VINA RESULT:    -6.125      0.000      0.000
REMARK INTER + INTRA:          -8.330
REMARK INTER:                  -7.557
REMARK INTRA:                  -0.773
REMARK UNBOUND:                -0.773
REMARK  Name = 
REMARK  7 active torsions:
REMARK  status: ('A' for Active; 'I' for Inactive)
REMARK    1  A    between atoms: C_1  and  C_2
REMARK    2  A    between atoms: C_2  and  C_3
REMARK    3  A    between atoms: C_2  and  C_4
REMARK    4  A    between atoms: C_2  and  C_5
REMARK    5  A    between atoms: C_9  and  C_10
REMARK    6  A    between atoms: N_16  and  C_17
REMARK    7  A    between atoms: C_17  and  C_18
REMARK                            x       y       z     vdW  Elec       q    Type
REMARK                         _______ _______ _______ _____ _____    ______ ____
ROOT
ATOM      1  C   UNL     1      48.271   6.604  14.527  0.00  0.00    +0.000 A 
ATOM      2  N   UNL     1      47.620   5.458  14.656  0.00  0.00    +0.000 NA
ATOM      3  C   UNL     1      46.843   5.301  13.544  0.00  0.00    +0.000 A 
ATOM      4  C   UNL     1      45.962   4.256  13.220  0.00  0.00    +0.000 A 
ATOM      5  C   UNL     1      45.270   4.307  11.999  0.00  0.00    +0.000 A 
ATOM      6  C   UNL     1      45.489   5.381  11.124  0.00  0.00    +0.000 A 
ATOM      7  C   UNL     1      46.360   6.434  11.440  0.00  0.00    +0.000 A 
ATOM      8  C   UNL     1      47.009   6.372  12.680  0.00  0.00    +0.000 A 
ATOM      9  N   UNL     1      47.869   7.228  13.354  0.00  0.00    +0.000 N 
ENDROOT
BRANCH   5  10
ATOM     10  C   UNL     1      44.289   3.261  11.573  0.00  0.00    +0.000 C 
ATOM     11  N   UNL     1      43.755   2.431  12.521  0.00  0.00    +0.000 N 
ATOM     12  O   UNL     1      43.956   3.140  10.402  0.00  0.00    +0.000 OA
ATOM     13  H   UNL     1      43.971   2.450  13.504  0.00  0.00    +0.000 HD
ATOM     14  H   UNL     1      43.094   1.737  12.195  0.00  0.00    +0.000 HD
ENDBRANCH   5  10
BRANCH   1  16
ATOM     15  C   UNL     1      49.351   6.037  16.706  0.00  0.00    +0.000 C 
ATOM     16  C   UNL     1      49.246   7.112  15.593  0.00  0.00    +0.000 C 
ATOM     17  C   UNL     1      48.692   8.404  16.214  0.00  0.00    +0.000 C 
ATOM     18  C   UNL     1      50.684   7.356  15.116  0.00  0.00    +0.000 C 
ENDBRANCH   1  16
BRANCH   9  19
ATOM     19  C   UNL     1      48.147   8.589  12.907  0.00  0.00    +0.000 C 
BRANCH  19  20
ATOM     20  C   UNL     1      49.357   8.727  12.021  0.00  0.00    +0.000 A 
ATOM     21  C   UNL     1      50.114   7.653  11.540  0.00  0.00    +0.000 A 
ATOM     22  C   UNL     1      51.315   7.893  10.877  0.00  0.00    +0.000 A 
ATOM     23  C   UNL     1      51.701   9.204  10.670  0.00  0.00    +0.000 A 
ATOM     24  N   UNL     1      50.964  10.268  11.050  0.00  0.00    +0.000 NA
ATOM     25  C   UNL     1      49.813  10.007  11.709  0.00  0.00    +0.000 A 
ENDBRANCH  19  20
ENDBRANCH   9  19
TORSDOF 4
ENDMDL
MODEL 2
REMARK VINA RESULT:    -6.013      3.005      5.499
REMARK INTER + INTRA:          -8.192
REMARK INTER:                  -7.557
REMARK INTRA:                  -0.636
REMARK UNBOUND:                -0.773
REMARK  Name = 
REMARK  7 active torsions:
REMARK  status: ('A' for Active; 'I' for Inactive)
REMARK    1  A    between atoms: C_1  and  C_2
REMARK    2  A    between atoms: C_2  and  C_3
REMARK    3  A    between atoms: C_2  and  C_4
REMARK    4  A    between atoms: C_2  and  C_5
REMARK    5  A    between atoms: C_9  and  C_10
REMARK    6  A    between atoms: N_16  and  C_17
REMARK    7  A    between atoms: C_17  and  C_18
REMARK                            x       y       z     vdW  Elec       q    Type
REMARK                         _______ _______ _______ _____ _____    ______ ____
ROOT
ATOM      1  C   UNL     1      45.837   4.947  12.632  0.00  0.00    +0.000 A 
ATOM      2  N   UNL     1      45.869   4.135  13.678  0.00  0.00    +0.000 NA
ATOM      3  C   UNL     1      46.786   4.637  14.558  0.00  0.00    +0.000 A 
ATOM      4  C   UNL     1      47.188   4.128  15.804  0.00  0.00    +0.000 A 
ATOM      5  C   UNL     1      48.151   4.832  16.544  0.00  0.00    +0.000 A 
ATOM      6  C   UNL     1      48.671   6.032  16.038  0.00  0.00    +0.000 A 
ATOM      7  C   UNL     1      48.284   6.545  14.791  0.00  0.00    +0.000 A 
ATOM      8  C   UNL     1      47.347   5.802  14.062  0.00  0.00    +0.000 A 
ATOM      9  N   UNL     1      46.783   5.948  12.801  0.00  0.00    +0.000 N 
ENDROOT
BRANCH   5  10
ATOM     10  C   UNL     1      48.667   4.361  17.867  0.00  0.00    +0.000 C 
ATOM     11  N   UNL     1      47.937   3.444  18.572  0.00  0.00    +0.000 N 
ATOM     12  O   UNL     1      49.725   4.776  18.322  0.00  0.00    +0.000 OA
ATOM     13  H   UNL     1      47.056   3.050  18.284  0.00  0.00    +0.000 HD
ATOM     14  H   UNL     1      48.319   3.148  19.462  0.00  0.00    +0.000 HD
ENDBRANCH   5  10
BRANCH   1  16
ATOM     15  C   UNL     1      43.612   5.511  11.650  0.00  0.00    +0.000 C 
ATOM     16  C   UNL     1      44.914   4.698  11.436  0.00  0.00    +0.000 C 
ATOM     17  C   UNL     1      44.552   3.205  11.376  0.00  0.00    +0.000 C 
ATOM     18  C   UNL     1      45.460   5.141  10.071  0.00  0.00    +0.000 C 
ENDBRANCH   1  16
BRANCH   9  19
ATOM     19  C   UNL     1      47.253   6.928  11.829  0.00  0.00    +0.000 C 
BRANCH  19  20
ATOM     20  C   UNL     1      46.676   8.309  11.995  0.00  0.00    +0.000 A 
ATOM     21  C   UNL     1      45.308   8.595  12.050  0.00  0.00    +0.000 A 
ATOM     22  C   UNL     1      44.873   9.918  12.025  0.00  0.00    +0.000 A 
ATOM     23  C   UNL     1      45.824  10.922  11.996  0.00  0.00    +0.000 A 
ATOM     24  N   UNL     1      47.153  10.691  12.019  0.00  0.00    +0.000 NA
ATOM     25  C   UNL     1      47.547   9.398  12.022  0.00  0.00    +0.000 A 
ENDBRANCH  19  20
ENDBRANCH   9  19
TORSDOF 4
ENDMDL
MODEL 3
REMARK VINA RESULT:    -5.992      2.410      3.483
REMARK INTER + INTRA:          -8.166
REMARK INTER:                  -7.577
REMARK INTRA:                  -0.590
REMARK UNBOUND:                -0.773
REMARK  Name = 
REMARK  7 active torsions:
REMARK  status: ('A' for Active; 'I' for Inactive)
REMARK    1  A    between atoms: C_1  and  C_2
REMARK    2  A    between atoms: C_2  and  C_3
REMARK    3  A    between atoms: C_2  and  C_4
REMARK    4  A    between atoms: C_2  and  C_5
REMARK    5  A    between atoms: C_9  and  C_10
REMARK    6  A    between atoms: N_16  and  C_17
REMARK    7  A    between atoms: C_17  and  C_18
REMARK                            x       y       z     vdW  Elec       q    Type
REMARK                         _______ _______ _______ _____ _____    ______ ____
ROOT
ATOM      1  C   UNL     1      47.759   4.671  15.945  0.00  0.00    +0.000 A 
ATOM      2  N   UNL     1      46.933   4.062  15.108  0.00  0.00    +0.000 NA
ATOM      3  C   UNL     1      46.812   4.856  14.002  0.00  0.00    +0.000 A 
ATOM      4  C   UNL     1      46.040   4.652  12.847  0.00  0.00    +0.000 A 
ATOM      5  C   UNL     1      46.084   5.613  11.825  0.00  0.00    +0.000 A 
ATOM      6  C   UNL     1      46.910   6.739  11.968  0.00  0.00    +0.000 A 
ATOM      7  C   UNL     1      47.678   6.957  13.121  0.00  0.00    +0.000 A 
ATOM      8  C   UNL     1      47.586   5.997  14.137  0.00  0.00    +0.000 A 
ATOM      9  N   UNL     1      48.129   5.897  15.412  0.00  0.00    +0.000 N 
ENDROOT
BRANCH   5  10
ATOM     10  C   UNL     1      45.280   5.506  10.568  0.00  0.00    +0.000 C 
ATOM     11  N   UNL     1      43.923   5.665  10.637  0.00  0.00    +0.000 N 
ATOM     12  O   UNL     1      45.812   5.284   9.488  0.00  0.00    +0.000 OA
ATOM     13  H   UNL     1      43.396   5.843  11.476  0.00  0.00    +0.000 HD
ATOM     14  H   UNL     1      43.412   5.586   9.766  0.00  0.00    +0.000 HD
ENDBRANCH   5  10
BRANCH   1  16
ATOM     15  C   UNL     1      47.228   2.836  17.552  0.00  0.00    +0.000 C 
ATOM     16  C   UNL     1      48.135   4.067  17.302  0.00  0.00    +0.000 C 
ATOM     17  C   UNL     1      47.871   5.101  18.408  0.00  0.00    +0.000 C 
ATOM     18  C   UNL     1      49.576   3.553  17.423  0.00  0.00    +0.000 C 
ENDBRANCH   1  16
BRANCH   9  19
ATOM     19  C   UNL     1      48.841   6.994  16.059  0.00  0.00    +0.000 C 
BRANCH  19  20
ATOM     20  C   UNL     1      50.324   7.024  15.800  0.00  0.00    +0.000 A 
ATOM     21  C   UNL     1      51.274   6.327  16.553  0.00  0.00    +0.000 A 
ATOM     22  C   UNL     1      52.632   6.560  16.345  0.00  0.00    +0.000 A 
ATOM     23  C   UNL     1      53.001   7.451  15.355  0.00  0.00    +0.000 A 
ATOM     24  N   UNL     1      52.119   8.087  14.556  0.00  0.00    +0.000 NA
ATOM     25  C   UNL     1      50.808   7.857  14.792  0.00  0.00    +0.000 A 
ENDBRANCH  19  20
ENDBRANCH   9  19
TORSDOF 4
ENDMDL
MODEL 4
REMARK VINA RESULT:    -5.664      2.551      5.512
REMARK INTER + INTRA:          -7.762
REMARK INTER:                  -7.419
REMARK INTRA:                  -0.344
REMARK UNBOUND:                -0.773
REMARK  Name = 
REMARK  7 active torsions:
REMARK  status: ('A' for Active; 'I' for Inactive)
REMARK    1  A    between atoms: C_1  and  C_2
REMARK    2  A    between atoms: C_2  and  C_3
REMARK    3  A    between atoms: C_2  and  C_4
REMARK    4  A    between atoms: C_2  and  C_5
REMARK    5  A    between atoms: C_9  and  C_10
REMARK    6  A    between atoms: N_16  and  C_17
REMARK    7  A    between atoms: C_17  and  C_18
REMARK                            x       y       z     vdW  Elec       q    Type
REMARK                         _______ _______ _______ _____ _____    ______ ____
ROOT
ATOM      1  C   UNL     1      47.942   7.756  13.271  0.00  0.00    +0.000 A 
ATOM      2  N   UNL     1      48.220   7.487  14.538  0.00  0.00    +0.000 NA
ATOM      3  C   UNL     1      47.888   6.180  14.762  0.00  0.00    +0.000 A 
ATOM      4  C   UNL     1      47.983   5.433  15.947  0.00  0.00    +0.000 A 
ATOM      5  C   UNL     1      47.586   4.087  15.933  0.00  0.00    +0.000 A 
ATOM      6  C   UNL     1      47.128   3.513  14.737  0.00  0.00    +0.000 A 
ATOM      7  C   UNL     1      47.020   4.252  13.550  0.00  0.00    +0.000 A 
ATOM      8  C   UNL     1      47.391   5.601  13.605  0.00  0.00    +0.000 A 
ATOM      9  N   UNL     1      47.367   6.639  12.682  0.00  0.00    +0.000 N 
ENDROOT
BRANCH   5  10
ATOM     10  C   UNL     1      47.621   3.213  17.147  0.00  0.00    +0.000 C 
ATOM     11  N   UNL     1      48.809   3.040  17.802  0.00  0.00    +0.000 N 
ATOM     12  O   UNL     1      46.611   2.660  17.562  0.00  0.00    +0.000 OA
ATOM     13  H   UNL     1      49.690   3.446  17.534  0.00  0.00    +0.000 HD
ATOM     14  H   UNL     1      48.793   2.443  18.620  0.00  0.00    +0.000 HD
ENDBRANCH   5  10
BRANCH   1  16
ATOM     15  C   UNL     1      49.193   8.978  11.489  0.00  0.00    +0.000 C 
ATOM     16  C   UNL     1      48.189   9.138  12.659  0.00  0.00    +0.000 C 
ATOM     17  C   UNL     1      48.818  10.058  13.719  0.00  0.00    +0.000 C 
ATOM     18  C   UNL     1      46.957   9.828  12.058  0.00  0.00    +0.000 C 
ENDBRANCH   1  16
BRANCH   9  19
ATOM     19  C   UNL     1      46.709   6.532  11.385  0.00  0.00    +0.000 C 
BRANCH  19  20
ATOM     20  C   UNL     1      45.323   5.944  11.427  0.00  0.00    +0.000 A 
ATOM     21  C   UNL     1      44.333   6.312  12.343  0.00  0.00    +0.000 A 
ATOM     22  C   UNL     1      43.147   5.585  12.414  0.00  0.00    +0.000 A 
ATOM     23  C   UNL     1      42.965   4.537  11.531  0.00  0.00    +0.000 A 
ATOM     24  N   UNL     1      43.862   4.197  10.582  0.00  0.00    +0.000 NA
ATOM     25  C   UNL     1      45.012   4.906  10.549  0.00  0.00    +0.000 A 
ENDBRANCH  19  20
ENDBRANCH   9  19
TORSDOF 4
ENDMDL
MODEL 5
REMARK VINA RESULT:    -5.434      1.745      2.756
REMARK INTER + INTRA:          -7.479
REMARK INTER:                  -7.571
REMARK INTRA:                   0.092
REMARK UNBOUND:                -0.773
REMARK  Name = 
REMARK  7 active torsions:
REMARK  status: ('A' for Active; 'I' for Inactive)
REMARK    1  A    between atoms: C_1  and  C_2
REMARK    2  A    between atoms: C_2  and  C_3
REMARK    3  A    between atoms: C_2  and  C_4
REMARK    4  A    between atoms: C_2  and  C_5
REMARK    5  A    between atoms: C_9  and  C_10
REMARK    6  A    between atoms: N_16  and  C_17
REMARK    7  A    between atoms: C_17  and  C_18
REMARK                            x       y       z     vdW  Elec       q    Type
REMARK                         _______ _______ _______ _____ _____    ______ ____
ROOT
ATOM      1  C   UNL     1      48.269   6.601  14.330  0.00  0.00    +0.000 A 
ATOM      2  N   UNL     1      47.579   5.488  14.530  0.00  0.00    +0.000 NA
ATOM      3  C   UNL     1      46.831   5.263  13.408  0.00  0.00    +0.000 A 
ATOM      4  C   UNL     1      45.928   4.220  13.141  0.00  0.00    +0.000 A 
ATOM      5  C   UNL     1      45.276   4.192  11.898  0.00  0.00    +0.000 A 
ATOM      6  C   UNL     1      45.554   5.186  10.947  0.00  0.00    +0.000 A 
ATOM      7  C   UNL     1      46.447   6.236  11.207  0.00  0.00    +0.000 A 
ATOM      8  C   UNL     1      47.056   6.255  12.468  0.00  0.00    +0.000 A 
ATOM      9  N   UNL     1      47.922   7.139  13.099  0.00  0.00    +0.000 N 
ENDROOT
BRANCH   5  10
ATOM     10  C   UNL     1      44.277   3.143  11.525  0.00  0.00    +0.000 C 
ATOM     11  N   UNL     1      43.709   2.391  12.516  0.00  0.00    +0.000 N 
ATOM     12  O   UNL     1      43.958   2.953  10.359  0.00  0.00    +0.000 OA
ATOM     13  H   UNL     1      43.910   2.469  13.500  0.00  0.00    +0.000 HD
ATOM     14  H   UNL     1      43.035   1.692  12.226  0.00  0.00    +0.000 HD
ENDBRANCH   5  10
BRANCH   1  16
ATOM     15  C   UNL     1      48.612   8.473  15.946  0.00  0.00    +0.000 C 
ATOM     16  C   UNL     1      49.226   7.165  15.384  0.00  0.00    +0.000 C 
ATOM     17  C   UNL     1      50.570   7.504  14.719  0.00  0.00    +0.000 C 
ATOM     18  C   UNL     1      49.477   6.267  16.602  0.00  0.00    +0.000 C 
ENDBRANCH   1  16
BRANCH   9  19
ATOM     19  C   UNL     1      48.254   8.451  12.553  0.00  0.00    +0.000 C 
BRANCH  19  20
ATOM     20  C   UNL     1      47.070   9.342  12.289  0.00  0.00    +0.000 A 
ATOM     21  C   UNL     1      45.757   9.052  12.674  0.00  0.00    +0.000 A 
ATOM     22  C   UNL     1      44.709   9.853  12.227  0.00  0.00    +0.000 A 
ATOM     23  C   UNL     1      45.010  10.953  11.445  0.00  0.00    +0.000 A 
ATOM     24  N   UNL     1      46.267  11.311  11.114  0.00  0.00    +0.000 NA
ATOM     25  C   UNL     1      47.263  10.505  11.544  0.00  0.00    +0.000 A 
ENDBRANCH  19  20
ENDBRANCH   9  19
TORSDOF 4
ENDMDL
MODEL 6
REMARK VINA RESULT:    -5.351      2.777      4.433
REMARK INTER + INTRA:          -7.375
REMARK INTER:                  -6.878
REMARK INTRA:                  -0.497
REMARK UNBOUND:                -0.773
REMARK  Name = 
REMARK  7 active torsions:
REMARK  status: ('A' for Active; 'I' for Inactive)
REMARK    1  A    between atoms: C_1  and  C_2
REMARK    2  A    between atoms: C_2  and  C_3
REMARK    3  A    between atoms: C_2  and  C_4
REMARK    4  A    between atoms: C_2  and  C_5
REMARK    5  A    between atoms: C_9  and  C_10
REMARK    6  A    between atoms: N_16  and  C_17
REMARK    7  A    between atoms: C_17  and  C_18
REMARK                            x       y       z     vdW  Elec       q    Type
REMARK                         _______ _______ _______ _____ _____    ______ ____
ROOT
ATOM      1  C   UNL     1      47.870   4.730  16.110  0.00  0.00    +0.000 A 
ATOM      2  N   UNL     1      46.818   4.317  15.419  0.00  0.00    +0.000 NA
ATOM      3  C   UNL     1      46.782   5.039  14.259  0.00  0.00    +0.000 A 
ATOM      4  C   UNL     1      45.852   4.978  13.207  0.00  0.00    +0.000 A 
ATOM      5  C   UNL     1      46.029   5.820  12.098  0.00  0.00    +0.000 A 
ATOM      6  C   UNL     1      47.135   6.682  12.053  0.00  0.00    +0.000 A 
ATOM      7  C   UNL     1      48.065   6.757  13.100  0.00  0.00    +0.000 A 
ATOM      8  C   UNL     1      47.842   5.929  14.208  0.00  0.00    +0.000 A 
ATOM      9  N   UNL     1      48.486   5.770  15.428  0.00  0.00    +0.000 N 
ENDROOT
BRANCH   5  10
ATOM     10  C   UNL     1      45.082   5.854  10.941  0.00  0.00    +0.000 C 
ATOM     11  N   UNL     1      45.563   5.599   9.686  0.00  0.00    +0.000 N 
ATOM     12  O   UNL     1      43.893   6.099  11.098  0.00  0.00    +0.000 OA
ATOM     13  H   UNL     1      46.522   5.395   9.457  0.00  0.00    +0.000 HD
ATOM     14  H   UNL     1      44.892   5.630   8.928  0.00  0.00    +0.000 HD
ENDBRANCH   5  10
BRANCH   1  16
ATOM     15  C   UNL     1      47.627   5.051  18.575  0.00  0.00    +0.000 C 
ATOM     16  C   UNL     1      48.229   4.138  17.476  0.00  0.00    +0.000 C 
ATOM     17  C   UNL     1      49.758   4.125  17.637  0.00  0.00    +0.000 C 
ATOM     18  C   UNL     1      47.679   2.733  17.757  0.00  0.00    +0.000 C 
ENDBRANCH   1  16
BRANCH   9  19
ATOM     19  C   UNL     1      49.535   6.669  15.896  0.00  0.00    +0.000 C 
BRANCH  19  20
ATOM     20  C   UNL     1      49.051   7.814  16.747  0.00  0.00    +0.000 A 
ATOM     21  C   UNL     1      48.222   8.844  16.292  0.00  0.00    +0.000 A 
ATOM     22  C   UNL     1      47.978   9.949  17.105  0.00  0.00    +0.000 A 
ATOM     23  C   UNL     1      48.531   9.967  18.372  0.00  0.00    +0.000 A 
ATOM     24  N   UNL     1      49.274   8.960  18.876  0.00  0.00    +0.000 NA
ATOM     25  C   UNL     1      49.512   7.911  18.059  0.00  0.00    +0.000 A 
ENDBRANCH  19  20
ENDBRANCH   9  19
TORSDOF 4
ENDMDL
MODEL 7
REMARK VINA RESULT:    -5.291      2.683      5.024
REMARK INTER + INTRA:          -7.301
REMARK INTER:                  -6.584
REMARK INTRA:                  -0.717
REMARK UNBOUND:                -0.773
REMARK  Name = 
REMARK  7 active torsions:
REMARK  status: ('A' for Active; 'I' for Inactive)
REMARK    1  A    between atoms: C_1  and  C_2
REMARK    2  A    between atoms: C_2  and  C_3
REMARK    3  A    between atoms: C_2  and  C_4
REMARK    4  A    between atoms: C_2  and  C_5
REMARK    5  A    between atoms: C_9  and  C_10
REMARK    6  A    between atoms: N_16  and  C_17
REMARK    7  A    between atoms: C_17  and  C_18
REMARK                            x       y       z     vdW  Elec       q    Type
REMARK                         _______ _______ _______ _____ _____    ______ ____
ROOT
ATOM      1  C   UNL     1      45.882   4.827  12.867  0.00  0.00    +0.000 A 
ATOM      2  N   UNL     1      46.272   3.698  13.440  0.00  0.00    +0.000 NA
ATOM      3  C   UNL     1      47.067   4.031  14.501  0.00  0.00    +0.000 A 
ATOM      4  C   UNL     1      47.730   3.188  15.408  0.00  0.00    +0.000 A 
ATOM      5  C   UNL     1      48.491   3.766  16.436  0.00  0.00    +0.000 A 
ATOM      6  C   UNL     1      48.555   5.163  16.549  0.00  0.00    +0.000 A 
ATOM      7  C   UNL     1      47.904   6.014  15.644  0.00  0.00    +0.000 A 
ATOM      8  C   UNL     1      47.180   5.407  14.609  0.00  0.00    +0.000 A 
ATOM      9  N   UNL     1      46.476   5.899  13.518  0.00  0.00    +0.000 N 
ENDROOT
BRANCH   5  10
ATOM     10  C   UNL     1      49.258   2.958  17.436  0.00  0.00    +0.000 C 
ATOM     11  N   UNL     1      49.194   3.309  18.756  0.00  0.00    +0.000 N 
ATOM     12  O   UNL     1      49.931   1.995  17.094  0.00  0.00    +0.000 OA
ATOM     13  H   UNL     1      48.674   4.085  19.132  0.00  0.00    +0.000 HD
ATOM     14  H   UNL     1      49.725   2.738  19.403  0.00  0.00    +0.000 HD
ENDBRANCH   5  10
BRANCH   1  16
ATOM     15  C   UNL     1      44.647   3.376  11.253  0.00  0.00    +0.000 C 
ATOM     16  C   UNL     1      44.969   4.843  11.637  0.00  0.00    +0.000 C 
ATOM     17  C   UNL     1      45.711   5.502  10.463  0.00  0.00    +0.000 C 
ATOM     18  C   UNL     1      43.611   5.531  11.827  0.00  0.00    +0.000 C 
ENDBRANCH   1  16
BRANCH   9  19
ATOM     19  C   UNL     1      46.516   7.300  13.113  0.00  0.00    +0.000 C 
BRANCH  19  20
ATOM     20  C   UNL     1      47.875   7.800  12.704  0.00  0.00    +0.000 A 
ATOM     21  C   UNL     1      48.683   7.197  11.734  0.00  0.00    +0.000 A 
ATOM     22  C   UNL     1      49.995   7.630  11.555  0.00  0.00    +0.000 A 
ATOM     23  C   UNL     1      50.447   8.690  12.320  0.00  0.00    +0.000 A 
ATOM     24  N   UNL     1      49.677   9.348  13.211  0.00  0.00    +0.000 NA
ATOM     25  C   UNL     1      48.415   8.894  13.379  0.00  0.00    +0.000 A 
ENDBRANCH  19  20
ENDBRANCH   9  19
TORSDOF 4
ENDMDL
MODEL 8
REMARK VINA RESULT:    -5.248      1.459      4.311
REMARK INTER + INTRA:          -7.249
REMARK INTER:                  -6.709
REMARK INTRA:                  -0.540
REMARK UNBOUND:                -0.773
REMARK  Name = 
REMARK  7 active torsions:
REMARK  status: ('A' for Active; 'I' for Inactive)
REMARK    1  A    between atoms: C_1  and  C_2
REMARK    2  A    between atoms: C_2  and  C_3
REMARK    3  A    between atoms: C_2  and  C_4
REMARK    4  A    between atoms: C_2  and  C_5
REMARK    5  A    between atoms: C_9  and  C_10
REMARK    6  A    between atoms: N_16  and  C_17
REMARK    7  A    between atoms: C_17  and  C_18
REMARK                            x       y       z     vdW  Elec       q    Type
REMARK                         _______ _______ _______ _____ _____    ______ ____
ROOT
ATOM      1  C   UNL     1      47.944   8.190  12.591  0.00  0.00    +0.000 A 
ATOM      2  N   UNL     1      46.950   7.832  11.792  0.00  0.00    +0.000 NA
ATOM      3  C   UNL     1      46.521   6.600  12.199  0.00  0.00    +0.000 A 
ATOM      4  C   UNL     1      45.501   5.797  11.662  0.00  0.00    +0.000 A 
ATOM      5  C   UNL     1      45.230   4.557  12.263  0.00  0.00    +0.000 A 
ATOM      6  C   UNL     1      45.962   4.159  13.392  0.00  0.00    +0.000 A 
ATOM      7  C   UNL     1      46.987   4.949  13.931  0.00  0.00    +0.000 A 
ATOM      8  C   UNL     1      47.257   6.165  13.289  0.00  0.00    +0.000 A 
ATOM      9  N   UNL     1      48.208   7.159  13.482  0.00  0.00    +0.000 N 
ENDROOT
BRANCH   5  10
ATOM     10  C   UNL     1      44.186   3.615  11.752  0.00  0.00    +0.000 C 
ATOM     11  N   UNL     1      43.860   2.520  12.504  0.00  0.00    +0.000 N 
ATOM     12  O   UNL     1      43.620   3.810  10.685  0.00  0.00    +0.000 OA
ATOM     13  H   UNL     1      44.273   2.273  13.389  0.00  0.00    +0.000 HD
ATOM     14  H   UNL     1      43.148   1.906  12.127  0.00  0.00    +0.000 HD
ENDBRANCH   5  10
BRANCH   1  16
ATOM     15  C   UNL     1      48.665  10.250  13.804  0.00  0.00    +0.000 C 
ATOM     16  C   UNL     1      48.675   9.526  12.433  0.00  0.00    +0.000 C 
ATOM     17  C   UNL     1      47.924  10.399  11.415  0.00  0.00    +0.000 C 
ATOM     18  C   UNL     1      50.152   9.431  12.026  0.00  0.00    +0.000 C 
ENDBRANCH   1  16
BRANCH   9  19
ATOM     19  C   UNL     1      49.338   7.011  14.393  0.00  0.00    +0.000 C 
BRANCH  19  20
ATOM     20  C   UNL     1      48.985   7.098  15.855  0.00  0.00    +0.000 A 
ATOM     21  C   UNL     1      48.534   8.257  16.493  0.00  0.00    +0.000 A 
ATOM     22  C   UNL     1      48.406   8.282  17.880  0.00  0.00    +0.000 A 
ATOM     23  C   UNL     1      48.689   7.127  18.586  0.00  0.00    +0.000 A 
ATOM     24  N   UNL     1      49.055   5.967  18.003  0.00  0.00    +0.000 NA
ATOM     25  C   UNL     1      49.189   5.977  16.658  0.00  0.00    +0.000 A 
ENDBRANCH  19  20
ENDBRANCH   9  19
TORSDOF 4
ENDMDL
MODEL 9
REMARK VINA RESULT:    -4.578      5.629      7.647
REMARK INTER + INTRA:          -6.422
REMARK INTER:                  -5.671
REMARK INTRA:                  -0.751
REMARK UNBOUND:                -0.773
REMARK  Name = 
REMARK  7 active torsions:
REMARK  status: ('A' for Active; 'I' for Inactive)
REMARK    1  A    between atoms: C_1  and  C_2
REMARK    2  A    between atoms: C_2  and  C_3
REMARK    3  A    between atoms: C_2  and  C_4
REMARK    4  A    between atoms: C_2  and  C_5
REMARK    5  A    between atoms: C_9  and  C_10
REMARK    6  A    between atoms: N_16  and  C_17
REMARK    7  A    between atoms: C_17  and  C_18
REMARK                            x       y       z     vdW  Elec       q    Type
REMARK                         _______ _______ _______ _____ _____    ______ ____
ROOT
ATOM      1  C   UNL     1      53.205   1.880  17.841  0.00  0.00    +0.000 A 
ATOM      2  N   UNL     1      52.089   1.306  17.418  0.00  0.00    +0.000 NA
ATOM      3  C   UNL     1      51.118   2.268  17.392  0.00  0.00    +0.000 A 
ATOM      4  C   UNL     1      49.766   2.150  17.029  0.00  0.00    +0.000 A 
ATOM      5  C   UNL     1      48.953   3.294  17.071  0.00  0.00    +0.000 A 
ATOM      6  C   UNL     1      49.509   4.526  17.449  0.00  0.00    +0.000 A 
ATOM      7  C   UNL     1      50.855   4.652  17.821  0.00  0.00    +0.000 A 
ATOM      8  C   UNL     1      51.632   3.487  17.802  0.00  0.00    +0.000 A 
ATOM      9  N   UNL     1      52.947   3.208  18.152  0.00  0.00    +0.000 N 
ENDROOT
BRANCH   5  10
ATOM     10  C   UNL     1      47.496   3.271  16.733  0.00  0.00    +0.000 C 
ATOM     11  N   UNL     1      47.097   3.712  15.501  0.00  0.00    +0.000 N 
ATOM     12  O   UNL     1      46.663   2.863  17.532  0.00  0.00    +0.000 OA
ATOM     13  H   UNL     1      47.704   4.069  14.782  0.00  0.00    +0.000 HD
ATOM     14  H   UNL     1      46.103   3.680  15.308  0.00  0.00    +0.000 HD
ENDBRANCH   5  10
BRANCH   1  16
ATOM     15  C   UNL     1      54.248  -0.376  17.605  0.00  0.00    +0.000 C 
ATOM     16  C   UNL     1      54.514   1.100  17.995  0.00  0.00    +0.000 C 
ATOM     17  C   UNL     1      54.961   1.143  19.465  0.00  0.00    +0.000 C 
ATOM     18  C   UNL     1      55.672   1.563  17.101  0.00  0.00    +0.000 C 
ENDBRANCH   1  16
BRANCH   9  19
ATOM     19  C   UNL     1      53.803   4.162  18.848  0.00  0.00    +0.000 C 
BRANCH  19  20
ATOM     20  C   UNL     1      54.348   5.267  17.983  0.00  0.00    +0.000 A 
ATOM     21  C   UNL     1      54.834   5.091  16.683  0.00  0.00    +0.000 A 
ATOM     22  C   UNL     1      55.480   6.140  16.034  0.00  0.00    +0.000 A 
ATOM     23  C   UNL     1      55.580   7.355  16.688  0.00  0.00    +0.000 A 
ATOM     24  N   UNL     1      55.060   7.589  17.911  0.00  0.00    +0.000 NA
ATOM     25  C   UNL     1      54.456   6.547  18.525  0.00  0.00    +0.000 A 
ENDBRANCH  19  20
ENDBRANCH   9  19
TORSDOF 4
ENDMDL
