MODEL 1
REMARK VINA RESULT:    -7.824      0.000      0.000
REMARK INTER + INTRA:         -10.254
REMARK INTER:                  -9.882
REMARK INTRA:                  -0.372
REMARK UNBOUND:                -0.372
REMARK  Name = 
REMARK  5 active torsions:
REMARK  status: ('A' for Active; 'I' for Inactive)
REMARK    1  A    between atoms: N_1  and  C_2
REMARK    2  A    between atoms: C_2  and  C_3
REMARK    3  A    between atoms: C_3  and  C_4
REMARK    4  A    between atoms: N_10  and  C_11
REMARK    5  A    between atoms: C_11  and  C_12
REMARK                            x       y       z     vdW  Elec       q    Type
REMARK                         _______ _______ _______ _____ _____    ______ ____
ROOT
ATOM      1  C   UNL     1      46.395   5.997  12.400  0.00  0.00    +0.000 A 
ATOM      2  C   UNL     1      46.015   5.380  13.596  0.00  0.00    +0.000 A 
ATOM      3  N   UNL     1      45.161   4.338  13.721  0.00  0.00    +0.000 NA
ATOM      4  C   UNL     1      44.653   3.895  12.549  0.00  0.00    +0.000 A 
ATOM      5  N   UNL     1      43.776   2.860  12.374  0.00  0.00    +0.000 NA
ATOM      6  N   UNL     1      43.537   2.739  11.072  0.00  0.00    +0.000 NA
ATOM      7  N   UNL     1      44.241   3.702  10.443  0.00  0.00    +0.000 N 
ATOM      8  C   UNL     1      44.978   4.449  11.319  0.00  0.00    +0.000 A 
ATOM      9  C   UNL     1      45.863   5.519  11.199  0.00  0.00    +0.000 A 
ENDROOT
BRANCH   1  10
ATOM     10  C   UNL     1      47.375   7.141  12.394  0.00  0.00    +0.000 C 
BRANCH  10  11
ATOM     11  C   UNL     1      46.683   8.490  12.619  0.00  0.00    +0.000 C 
BRANCH  11  12
ATOM     12  N   UNL     1      46.751   8.883  14.024  0.00  0.00    +0.000 NA
ATOM     13  H   UNL     1      46.714   8.050  14.611  0.00  0.00    +0.000 HD
ATOM     14  H   UNL     1      45.930   9.436  14.270  0.00  0.00    +0.000 HD
ENDBRANCH  11  12
ENDBRANCH  10  11
ENDBRANCH   1  10
BRANCH   7  15
ATOM     15  C   UNL     1      44.165   3.843   8.999  0.00  0.00    +0.000 C 
BRANCH  15  16
ATOM     16  C   UNL     1      45.242   3.045   8.320  0.00  0.00    +0.000 A 
ATOM     17  C   UNL     1      46.075   3.617   7.351  0.00  0.00    +0.000 A 
ATOM     18  C   UNL     1      47.096   2.861   6.784  0.00  0.00    +0.000 A 
ATOM     19  C   UNL     1      47.247   1.550   7.195  0.00  0.00    +0.000 A 
ATOM     20  N   UNL     1      46.447   0.955   8.109  0.00  0.00    +0.000 NA
ATOM     21  C   UNL     1      45.469   1.714   8.649  0.00  0.00    +0.000 A 
ENDBRANCH  15  16
ENDBRANCH   7  15
TORSDOF 5
ENDMDL
MODEL 2
REMARK VINA RESULT:    -7.532      1.575      5.681
REMARK INTER + INTRA:          -9.885
REMARK INTER:                  -9.363
REMARK INTRA:                  -0.522
REMARK UNBOUND:                -0.372
REMARK  Name = 
REMARK  5 active torsions:
REMARK  status: ('A' for Active; 'I' for Inactive)
REMARK    1  A    between atoms: N_1  and  C_2
REMARK    2  A    between atoms: C_2  and  C_3
REMARK    3  A    between atoms: C_3  and  C_4
REMARK    4  A    between atoms: N_10  and  C_11
REMARK    5  A    between atoms: C_11  and  C_12
REMARK                            x       y       z     vdW  Elec       q    Type
REMARK                         _______ _______ _______ _____ _____    ______ ____
ROOT
ATOM      1  C   UNL     1      45.882   3.227   8.052  0.00  0.00    +0.000 A 
ATOM      2  C   UNL     1      45.211   2.024   8.291  0.00  0.00    +0.000 A 
ATOM      3  N   UNL     1      44.346   1.780   9.303  0.00  0.00    +0.000 NA
ATOM      4  C   UNL     1      44.152   2.831  10.132  0.00  0.00    +0.000 A 
ATOM      5  N   UNL     1      43.334   2.871  11.227  0.00  0.00    +0.000 NA
ATOM      6  N   UNL     1      43.418   4.086  11.758  0.00  0.00    +0.000 NA
ATOM      7  N   UNL     1      44.296   4.791  11.014  0.00  0.00    +0.000 N 
ATOM      8  C   UNL     1      44.776   4.058   9.965  0.00  0.00    +0.000 A 
ATOM      9  C   UNL     1      45.663   4.303   8.918  0.00  0.00    +0.000 A 
ENDROOT
BRANCH   1  10
ATOM     10  C   UNL     1      46.809   3.379   6.874  0.00  0.00    +0.000 C 
BRANCH  10  11
ATOM     11  C   UNL     1      47.921   2.325   6.880  0.00  0.00    +0.000 C 
BRANCH  11  12
ATOM     12  N   UNL     1      48.352   2.013   5.520  0.00  0.00    +0.000 NA
ATOM     13  H   UNL     1      47.611   2.261   4.865  0.00  0.00    +0.000 HD
ATOM     14  H   UNL     1      48.488   1.007   5.422  0.00  0.00    +0.000 HD
ENDBRANCH  11  12
ENDBRANCH  10  11
ENDBRANCH   1  10
BRANCH   7  15
ATOM     15  C   UNL     1      44.621   6.162  11.364  0.00  0.00    +0.000 C 
BRANCH  15  16
ATOM     16  C   UNL     1      46.012   6.264  11.922  0.00  0.00    +0.000 A 
ATOM     17  C   UNL     1      46.937   7.185  11.416  0.00  0.00    +0.000 A 
ATOM     18  C   UNL     1      48.198   7.287  11.995  0.00  0.00    +0.000 A 
ATOM     19  C   UNL     1      48.502   6.454  13.056  0.00  0.00    +0.000 A 
ATOM     20  N   UNL     1      47.645   5.535  13.555  0.00  0.00    +0.000 NA
ATOM     21  C   UNL     1      46.425   5.463  12.979  0.00  0.00    +0.000 A 
ENDBRANCH  15  16
ENDBRANCH   7  15
TORSDOF 5
ENDMDL
MODEL 3
REMARK VINA RESULT:    -6.854      1.425      2.060
REMARK INTER + INTRA:          -9.029
REMARK INTER:                  -8.464
REMARK INTRA:                  -0.564
REMARK UNBOUND:                -0.372
REMARK  Name = 
REMARK  5 active torsions:
REMARK  status: ('A' for Active; 'I' for Inactive)
REMARK    1  A    between atoms: N_1  and  C_2
REMARK    2  A    between atoms: C_2  and  C_3
REMARK    3  A    between atoms: C_3  and  C_4
REMARK    4  A    between atoms: N_10  and  C_11
REMARK    5  A    between atoms: C_11  and  C_12
REMARK                            x       y       z     vdW  Elec       q    Type
REMARK                         _______ _______ _______ _____ _____    ______ ____
ROOT
ATOM      1  C   UNL     1      47.836   7.278  12.342  0.00  0.00    +0.000 A 
ATOM      2  C   UNL     1      48.277   6.745  13.557  0.00  0.00    +0.000 A 
ATOM      3  N   UNL     1      47.787   5.643  14.169  0.00  0.00    +0.000 NA
ATOM      4  C   UNL     1      46.775   5.042  13.503  0.00  0.00    +0.000 A 
ATOM      5  N   UNL     1      46.099   3.915  13.882  0.00  0.00    +0.000 NA
ATOM      6  N   UNL     1      45.191   3.648  12.949  0.00  0.00    +0.000 NA
ATOM      7  N   UNL     1      45.286   4.610  12.007  0.00  0.00    +0.000 N 
ATOM      8  C   UNL     1      46.279   5.504  12.293  0.00  0.00    +0.000 A 
ATOM      9  C   UNL     1      46.792   6.638  11.666  0.00  0.00    +0.000 A 
ENDROOT
BRANCH   1  10
ATOM     10  C   UNL     1      48.480   8.507  11.753  0.00  0.00    +0.000 C 
BRANCH  10  11
ATOM     11  C   UNL     1      48.172   9.764  12.572  0.00  0.00    +0.000 C 
BRANCH  11  12
ATOM     12  N   UNL     1      46.732   9.998  12.648  0.00  0.00    +0.000 NA
ATOM     13  H   UNL     1      46.237   9.137  12.417  0.00  0.00    +0.000 HD
ATOM     14  H   UNL     1      46.454  10.680  11.944  0.00  0.00    +0.000 HD
ENDBRANCH  11  12
ENDBRANCH  10  11
ENDBRANCH   1  10
BRANCH   7  15
ATOM     15  C   UNL     1      44.397   4.604  10.859  0.00  0.00    +0.000 C 
BRANCH  15  16
ATOM     16  C   UNL     1      45.017   3.877   9.699  0.00  0.00    +0.000 A 
ATOM     17  C   UNL     1      45.666   4.566   8.667  0.00  0.00    +0.000 A 
ATOM     18  C   UNL     1      46.274   3.855   7.637  0.00  0.00    +0.000 A 
ATOM     19  C   UNL     1      46.206   2.475   7.664  0.00  0.00    +0.000 A 
ATOM     20  N   UNL     1      45.568   1.775   8.630  0.00  0.00    +0.000 NA
ATOM     21  C   UNL     1      44.992   2.490   9.621  0.00  0.00    +0.000 A 
ENDBRANCH  15  16
ENDBRANCH   7  15
TORSDOF 5
ENDMDL
MODEL 4
REMARK VINA RESULT:    -6.566      1.885      2.398
REMARK INTER + INTRA:          -8.665
REMARK INTER:                  -8.408
REMARK INTRA:                  -0.257
REMARK UNBOUND:                -0.372
REMARK  Name = 
REMARK  5 active torsions:
REMARK  status: ('A' for Active; 'I' for Inactive)
REMARK    1  A    between atoms: N_1  and  C_2
REMARK    2  A    between atoms: C_2  and  C_3
REMARK    3  A    between atoms: C_3  and  C_4
REMARK    4  A    between atoms: N_10  and  C_11
REMARK    5  A    between atoms: C_11  and  C_12
REMARK                            x       y       z     vdW  Elec       q    Type
REMARK                         _______ _______ _______ _____ _____    ______ ____
ROOT
ATOM      1  C   UNL     1      46.866   6.423  12.510  0.00  0.00    +0.000 A 
ATOM      2  C   UNL     1      46.073   7.568  12.633  0.00  0.00    +0.000 A 
ATOM      3  N   UNL     1      44.786   7.694  12.234  0.00  0.00    +0.000 NA
ATOM      4  C   UNL     1      44.269   6.579  11.668  0.00  0.00    +0.000 A 
ATOM      5  N   UNL     1      43.001   6.419  11.182  0.00  0.00    +0.000 NA
ATOM      6  N   UNL     1      42.891   5.176  10.724  0.00  0.00    +0.000 NA
ATOM      7  N   UNL     1      44.085   4.574  10.902  0.00  0.00    +0.000 N 
ATOM      8  C   UNL     1      44.987   5.402  11.510  0.00  0.00    +0.000 A 
ATOM      9  C   UNL     1      46.311   5.279  11.927  0.00  0.00    +0.000 A 
ENDROOT
BRANCH   1  10
ATOM     10  C   UNL     1      48.286   6.405  13.013  0.00  0.00    +0.000 C 
BRANCH  10  11
ATOM     11  C   UNL     1      48.367   6.696  14.515  0.00  0.00    +0.000 C 
BRANCH  11  12
ATOM     12  N   UNL     1      47.961   5.530  15.295  0.00  0.00    +0.000 NA
ATOM     13  H   UNL     1      48.271   5.642  16.259  0.00  0.00    +0.000 HD
ATOM     14  H   UNL     1      48.432   4.697  14.944  0.00  0.00    +0.000 HD
ENDBRANCH  11  12
ENDBRANCH  10  11
ENDBRANCH   1  10
BRANCH   7  15
ATOM     15  C   UNL     1      44.288   3.202  10.473  0.00  0.00    +0.000 C 
BRANCH  15  16
ATOM     16  C   UNL     1      45.152   3.141   9.245  0.00  0.00    +0.000 A 
ATOM     17  C   UNL     1      45.685   1.931   8.785  0.00  0.00    +0.000 A 
ATOM     18  C   UNL     1      46.435   1.907   7.614  0.00  0.00    +0.000 A 
ATOM     19  C   UNL     1      46.640   3.098   6.942  0.00  0.00    +0.000 A 
ATOM     20  N   UNL     1      46.163   4.289   7.368  0.00  0.00    +0.000 NA
ATOM     21  C   UNL     1      45.432   4.282   8.504  0.00  0.00    +0.000 A 
ENDBRANCH  15  16
ENDBRANCH   7  15
TORSDOF 5
ENDMDL
MODEL 5
REMARK VINA RESULT:    -6.284      3.612      7.000
REMARK INTER + INTRA:          -8.309
REMARK INTER:                  -7.981
REMARK INTRA:                  -0.328
REMARK UNBOUND:                -0.372
REMARK  Name = 
REMARK  5 active torsions:
REMARK  status: ('A' for Active; 'I' for Inactive)
REMARK    1  A    between atoms: N_1  and  C_2
REMARK    2  A    between atoms: C_2  and  C_3
REMARK    3  A    between atoms: C_3  and  C_4
REMARK    4  A    between atoms: N_10  and  C_11
REMARK    5  A    between atoms: C_11  and  C_12
REMARK                            x       y       z     vdW  Elec       q    Type
REMARK                         _______ _______ _______ _____ _____    ______ ____
ROOT
ATOM      1  C   UNL     1      44.892   5.028  12.189  0.00  0.00    +0.000 A 
ATOM      2  C   UNL     1      45.661   5.887  11.398  0.00  0.00    +0.000 A 
ATOM      3  N   UNL     1      46.860   6.419  11.731  0.00  0.00    +0.000 NA
ATOM      4  C   UNL     1      47.306   6.057  12.956  0.00  0.00    +0.000 A 
ATOM      5  N   UNL     1      48.480   6.436  13.546  0.00  0.00    +0.000 NA
ATOM      6  N   UNL     1      48.548   5.853  14.738  0.00  0.00    +0.000 NA
ATOM      7  N   UNL     1      47.417   5.134  14.899  0.00  0.00    +0.000 N 
ATOM      8  C   UNL     1      46.607   5.209  13.801  0.00  0.00    +0.000 A 
ATOM      9  C   UNL     1      45.374   4.661  13.449  0.00  0.00    +0.000 A 
ENDROOT
BRANCH   1  10
ATOM     10  C   UNL     1      43.576   4.486  11.694  0.00  0.00    +0.000 C 
BRANCH  10  11
ATOM     11  C   UNL     1      43.742   3.140  10.981  0.00  0.00    +0.000 C 
BRANCH  11  12
ATOM     12  N   UNL     1      43.035   2.081  11.697  0.00  0.00    +0.000 NA
ATOM     13  H   UNL     1      43.501   1.903  12.586  0.00  0.00    +0.000 HD
ATOM     14  H   UNL     1      43.091   1.210  11.170  0.00  0.00    +0.000 HD
ENDBRANCH  11  12
ENDBRANCH  10  11
ENDBRANCH   1  10
BRANCH   7  15
ATOM     15  C   UNL     1      47.186   4.396  16.128  0.00  0.00    +0.000 C 
BRANCH  15  16
ATOM     16  C   UNL     1      48.403   3.609  16.524  0.00  0.00    +0.000 A 
ATOM     17  C   UNL     1      49.303   4.087  17.484  0.00  0.00    +0.000 A 
ATOM     18  C   UNL     1      50.388   3.305  17.863  0.00  0.00    +0.000 A 
ATOM     19  C   UNL     1      50.550   2.071  17.263  0.00  0.00    +0.000 A 
ATOM     20  N   UNL     1      49.717   1.585  16.314  0.00  0.00    +0.000 NA
ATOM     21  C   UNL     1      48.667   2.362  15.970  0.00  0.00    +0.000 A 
ENDBRANCH  15  16
ENDBRANCH   7  15
TORSDOF 5
ENDMDL
MODEL 6
REMARK VINA RESULT:    -6.240      2.428      6.162
REMARK INTER + INTRA:          -8.254
REMARK INTER:                  -7.705
REMARK INTRA:                  -0.549
REMARK UNBOUND:                -0.372
REMARK  Name = 
REMARK  5 active torsions:
REMARK  status: ('A' for Active; 'I' for Inactive)
REMARK    1  A    between atoms: N_1  and  C_2
REMARK    2  A    between atoms: C_2  and  C_3
REMARK    3  A    between atoms: C_3  and  C_4
REMARK    4  A    between atoms: N_10  and  C_11
REMARK    5  A    between atoms: C_11  and  C_12
REMARK                            x       y       z     vdW  Elec       q    Type
REMARK                         _______ _______ _______ _____ _____    ______ ____
ROOT
ATOM      1  C   UNL     1      44.953   4.546  11.411  0.00  0.00    +0.000 A 
ATOM      2  C   UNL     1      45.162   3.311  12.031  0.00  0.00    +0.000 A 
ATOM      3  N   UNL     1      45.982   3.073  13.080  0.00  0.00    +0.000 NA
ATOM      4  C   UNL     1      46.639   4.166  13.529  0.00  0.00    +0.000 A 
ATOM      5  N   UNL     1      47.522   4.222  14.572  0.00  0.00    +0.000 NA
ATOM      6  N   UNL     1      47.933   5.479  14.696  0.00  0.00    +0.000 NA
ATOM      7  N   UNL     1      47.329   6.197  13.726  0.00  0.00    +0.000 N 
ATOM      8  C   UNL     1      46.488   5.428  12.972  0.00  0.00    +0.000 A 
ATOM      9  C   UNL     1      45.638   5.666  11.894  0.00  0.00    +0.000 A 
ENDROOT
BRANCH   1  10
ATOM     10  C   UNL     1      43.994   4.684  10.257  0.00  0.00    +0.000 C 
BRANCH  10  11
ATOM     11  C   UNL     1      44.557   4.079   8.967  0.00  0.00    +0.000 C 
BRANCH  11  12
ATOM     12  N   UNL     1      45.604   4.929   8.406  0.00  0.00    +0.000 NA
ATOM     13  H   UNL     1      45.186   5.781   8.034  0.00  0.00    +0.000 HD
ATOM     14  H   UNL     1      46.042   4.462   7.613  0.00  0.00    +0.000 HD
ENDBRANCH  11  12
ENDBRANCH  10  11
ENDBRANCH   1  10
BRANCH   7  15
ATOM     15  C   UNL     1      47.601   7.617  13.586  0.00  0.00    +0.000 C 
BRANCH  15  16
ATOM     16  C   UNL     1      48.982   7.854  13.044  0.00  0.00    +0.000 A 
ATOM     17  C   UNL     1      49.286   7.633  11.695  0.00  0.00    +0.000 A 
ATOM     18  C   UNL     1      50.562   7.915  11.220  0.00  0.00    +0.000 A 
ATOM     19  C   UNL     1      51.502   8.399  12.111  0.00  0.00    +0.000 A 
ATOM     20  N   UNL     1      51.254   8.601  13.425  0.00  0.00    +0.000 NA
ATOM     21  C   UNL     1      50.004   8.326  13.858  0.00  0.00    +0.000 A 
ENDBRANCH  15  16
ENDBRANCH   7  15
TORSDOF 5
ENDMDL
MODEL 7
REMARK VINA RESULT:    -6.113      1.738      5.687
REMARK INTER + INTRA:          -8.093
REMARK INTER:                  -7.743
REMARK INTRA:                  -0.351
REMARK UNBOUND:                -0.372
REMARK  Name = 
REMARK  5 active torsions:
REMARK  status: ('A' for Active; 'I' for Inactive)
REMARK    1  A    between atoms: N_1  and  C_2
REMARK    2  A    between atoms: C_2  and  C_3
REMARK    3  A    between atoms: C_3  and  C_4
REMARK    4  A    between atoms: N_10  and  C_11
REMARK    5  A    between atoms: C_11  and  C_12
REMARK                            x       y       z     vdW  Elec       q    Type
REMARK                         _______ _______ _______ _____ _____    ______ ____
ROOT
ATOM      1  C   UNL     1      44.990   3.075   9.571  0.00  0.00    +0.000 A 
ATOM      2  C   UNL     1      44.054   2.283  10.244  0.00  0.00    +0.000 A 
ATOM      3  N   UNL     1      43.268   2.676  11.272  0.00  0.00    +0.000 NA
ATOM      4  C   UNL     1      43.446   3.963  11.646  0.00  0.00    +0.000 A 
ATOM      5  N   UNL     1      42.788   4.626  12.645  0.00  0.00    +0.000 NA
ATOM      6  N   UNL     1      43.245   5.873  12.681  0.00  0.00    +0.000 NA
ATOM      7  N   UNL     1      44.194   5.982  11.728  0.00  0.00    +0.000 N 
ATOM      8  C   UNL     1      44.351   4.816  11.031  0.00  0.00    +0.000 A 
ATOM      9  C   UNL     1      45.155   4.405   9.970  0.00  0.00    +0.000 A 
ENDROOT
BRANCH   1  10
ATOM     10  C   UNL     1      45.794   2.521   8.424  0.00  0.00    +0.000 C 
BRANCH  10  11
ATOM     11  C   UNL     1      45.727   3.424   7.188  0.00  0.00    +0.000 C 
BRANCH  11  12
ATOM     12  N   UNL     1      47.013   4.072   6.944  0.00  0.00    +0.000 NA
ATOM     13  H   UNL     1      47.389   4.420   7.825  0.00  0.00    +0.000 HD
ATOM     14  H   UNL     1      46.882   4.891   6.352  0.00  0.00    +0.000 HD
ENDBRANCH  11  12
ENDBRANCH  10  11
ENDBRANCH   1  10
BRANCH   7  15
ATOM     15  C   UNL     1      44.905   7.234  11.538  0.00  0.00    +0.000 C 
BRANCH  15  16
ATOM     16  C   UNL     1      46.225   7.222  12.254  0.00  0.00    +0.000 A 
ATOM     17  C   UNL     1      46.611   6.143  13.059  0.00  0.00    +0.000 A 
ATOM     18  C   UNL     1      47.865   6.144  13.662  0.00  0.00    +0.000 A 
ATOM     19  C   UNL     1      48.692   7.231  13.452  0.00  0.00    +0.000 A 
ATOM     20  N   UNL     1      48.346   8.302  12.703  0.00  0.00    +0.000 NA
ATOM     21  C   UNL     1      47.126   8.272  12.123  0.00  0.00    +0.000 A 
ENDBRANCH  15  16
ENDBRANCH   7  15
TORSDOF 5
ENDMDL
MODEL 8
REMARK VINA RESULT:    -5.706      3.612      7.630
REMARK INTER + INTRA:          -7.579
REMARK INTER:                  -7.398
REMARK INTRA:                  -0.181
REMARK UNBOUND:                -0.372
REMARK  Name = 
REMARK  5 active torsions:
REMARK  status: ('A' for Active; 'I' for Inactive)
REMARK    1  A    between atoms: N_1  and  C_2
REMARK    2  A    between atoms: C_2  and  C_3
REMARK    3  A    between atoms: C_3  and  C_4
REMARK    4  A    between atoms: N_10  and  C_11
REMARK    5  A    between atoms: C_11  and  C_12
REMARK                            x       y       z     vdW  Elec       q    Type
REMARK                         _______ _______ _______ _____ _____    ______ ____
ROOT
ATOM      1  C   UNL     1      45.058   5.121  11.964  0.00  0.00    +0.000 A 
ATOM      2  C   UNL     1      45.823   6.142  11.392  0.00  0.00    +0.000 A 
ATOM      3  N   UNL     1      46.957   6.673  11.904  0.00  0.00    +0.000 NA
ATOM      4  C   UNL     1      47.340   6.131  13.083  0.00  0.00    +0.000 A 
ATOM      5  N   UNL     1      48.441   6.466  13.820  0.00  0.00    +0.000 NA
ATOM      6  N   UNL     1      48.463   5.693  14.901  0.00  0.00    +0.000 NA
ATOM      7  N   UNL     1      47.374   4.898  14.849  0.00  0.00    +0.000 N 
ATOM      8  C   UNL     1      46.639   5.115  13.717  0.00  0.00    +0.000 A 
ATOM      9  C   UNL     1      45.474   4.571  13.181  0.00  0.00    +0.000 A 
ENDROOT
BRANCH   1  10
ATOM     10  C   UNL     1      43.819   4.603  11.281  0.00  0.00    +0.000 C 
BRANCH  10  11
ATOM     11  C   UNL     1      43.961   3.132  10.876  0.00  0.00    +0.000 C 
BRANCH  11  12
ATOM     12  N   UNL     1      43.038   2.291  11.634  0.00  0.00    +0.000 NA
ATOM     13  H   UNL     1      43.134   1.323  11.331  0.00  0.00    +0.000 HD
ATOM     14  H   UNL     1      42.076   2.556  11.425  0.00  0.00    +0.000 HD
ENDBRANCH  11  12
ENDBRANCH  10  11
ENDBRANCH   1  10
BRANCH   7  15
ATOM     15  C   UNL     1      47.106   3.949  15.915  0.00  0.00    +0.000 C 
BRANCH  15  16
ATOM     16  C   UNL     1      47.800   4.352  17.185  0.00  0.00    +0.000 A 
ATOM     17  C   UNL     1      47.211   5.241  18.091  0.00  0.00    +0.000 A 
ATOM     18  C   UNL     1      47.862   5.547  19.282  0.00  0.00    +0.000 A 
ATOM     19  C   UNL     1      49.090   4.963  19.527  0.00  0.00    +0.000 A 
ATOM     20  N   UNL     1      49.703   4.120  18.665  0.00  0.00    +0.000 NA
ATOM     21  C   UNL     1      49.046   3.834  17.520  0.00  0.00    +0.000 A 
ENDBRANCH  15  16
ENDBRANCH   7  15
TORSDOF 5
ENDMDL
MODEL 9
REMARK VINA RESULT:    -5.385      3.254      5.792
REMARK INTER + INTRA:          -7.173
REMARK INTER:                  -6.818
REMARK INTRA:                  -0.355
REMARK UNBOUND:                -0.372
REMARK  Name = 
REMARK  5 active torsions:
REMARK  status: ('A' for Active; 'I' for Inactive)
REMARK    1  A    between atoms: N_1  and  C_2
REMARK    2  A    between atoms: C_2  and  C_3
REMARK    3  A    between atoms: C_3  and  C_4
REMARK    4  A    between atoms: N_10  and  C_11
REMARK    5  A    between atoms: C_11  and  C_12
REMARK                            x       y       z     vdW  Elec       q    Type
REMARK                         _______ _______ _______ _____ _____    ______ ____
ROOT
ATOM      1  C   UNL     1      44.609   5.521  12.079  0.00  0.00    +0.000 A 
ATOM      2  C   UNL     1      44.534   4.125  12.035  0.00  0.00    +0.000 A 
ATOM      3  N   UNL     1      45.334   3.261  12.701  0.00  0.00    +0.000 NA
ATOM      4  C   UNL     1      46.280   3.857  13.463  0.00  0.00    +0.000 A 
ATOM      5  N   UNL     1      47.216   3.235  14.243  0.00  0.00    +0.000 NA
ATOM      6  N   UNL     1      47.945   4.174  14.837  0.00  0.00    +0.000 NA
ATOM      7  N   UNL     1      47.482   5.369  14.416  0.00  0.00    +0.000 N 
ATOM      8  C   UNL     1      46.422   5.233  13.564  0.00  0.00    +0.000 A 
ATOM      9  C   UNL     1      45.591   6.116  12.878  0.00  0.00    +0.000 A 
ENDROOT
BRANCH   1  10
ATOM     10  C   UNL     1      43.642   6.376  11.302  0.00  0.00    +0.000 C 
BRANCH  10  11
ATOM     11  C   UNL     1      44.071   7.846  11.273  0.00  0.00    +0.000 C 
BRANCH  11  12
ATOM     12  N   UNL     1      42.989   8.696  10.783  0.00  0.00    +0.000 NA
ATOM     13  H   UNL     1      43.237   9.065   9.866  0.00  0.00    +0.000 HD
ATOM     14  H   UNL     1      42.882   9.506  11.393  0.00  0.00    +0.000 HD
ENDBRANCH  11  12
ENDBRANCH  10  11
ENDBRANCH   1  10
BRANCH   7  15
ATOM     15  C   UNL     1      48.100   6.600  14.877  0.00  0.00    +0.000 C 
BRANCH  15  16
ATOM     16  C   UNL     1      48.463   7.489  13.722  0.00  0.00    +0.000 A 
ATOM     17  C   UNL     1      49.272   7.033  12.674  0.00  0.00    +0.000 A 
ATOM     18  C   UNL     1      49.542   7.869  11.595  0.00  0.00    +0.000 A 
ATOM     19  C   UNL     1      49.004   9.142  11.601  0.00  0.00    +0.000 A 
ATOM     20  N   UNL     1      48.240   9.627  12.606  0.00  0.00    +0.000 NA
ATOM     21  C   UNL     1      47.988   8.792  13.637  0.00  0.00    +0.000 A 
ENDBRANCH  15  16
ENDBRANCH   7  15
TORSDOF 5
ENDMDL
