MODEL 1
REMARK VINA RESULT:    -8.578      0.000      0.000
REMARK INTER + INTRA:         -10.877
REMARK INTER:                 -11.086
REMARK INTRA:                   0.209
REMARK UNBOUND:                 0.209
REMARK  Name = 
REMARK  7 active torsions:
REMARK  status: ('A' for Active; 'I' for Inactive)
REMARK    1  A    between atoms: C_1  and  O_2
REMARK    2  A    between atoms: O_2  and  C_3
REMARK    3  A    between atoms: C_5  and  C_6
REMARK    4  A    between atoms: C_6  and  C_7
REMARK    5  A    between atoms: C_6  and  N_8
REMARK    6  A    between atoms: N_8  and  C_9
REMARK    7  A    between atoms: C_12  and  C_13
REMARK                            x       y       z     vdW  Elec       q    Type
REMARK                         _______ _______ _______ _____ _____    ______ ____
ROOT
ATOM      1  N   UNL     1      44.081   5.093  10.024  0.00  0.00    +0.000 N 
ATOM      2  H   UNL     1      44.536   6.006   9.991  0.00  0.00    +0.000 HD
ENDROOT
BRANCH   1   3
ATOM      3  C   UNL     1      44.852   4.216   9.225  0.00  0.00    +0.000 A 
ATOM      4  N   UNL     1      45.707   4.732   8.314  0.00  0.00    +0.000 NA
ATOM      5  C   UNL     1      46.494   3.880   7.605  0.00  0.00    +0.000 A 
ATOM      6  C   UNL     1      46.479   2.503   7.747  0.00  0.00    +0.000 A 
ATOM      7  C   UNL     1      45.602   1.971   8.695  0.00  0.00    +0.000 A 
ATOM      8  C   UNL     1      44.792   2.828   9.441  0.00  0.00    +0.000 A 
ATOM      9 CL   UNL     1      43.678   2.137  10.567  0.00  0.00    +0.000 Cl
BRANCH   6  10
ATOM     10  C   UNL     1      47.336   1.584   6.961  0.00  0.00    +0.000 C 
ATOM     11  N   UNL     1      48.420   2.083   6.294  0.00  0.00    +0.000 N 
ATOM     12  O   UNL     1      47.076   0.385   6.896  0.00  0.00    +0.000 OA
ATOM     13  H   UNL     1      48.692   3.051   6.234  0.00  0.00    +0.000 HD
ATOM     14  H   UNL     1      48.959   1.417   5.754  0.00  0.00    +0.000 HD
ENDBRANCH   6  10
ENDBRANCH   1   3
BRANCH   1  15
ATOM     15  C   UNL     1      43.902   4.657  11.421  0.00  0.00    +0.000 C 
ATOM     16  C   UNL     1      42.749   5.387  12.117  0.00  0.00    +0.000 C 
BRANCH  15  19
ATOM     17  C   UNL     1      46.921   4.191  13.646  0.00  0.00    +0.000 A 
ATOM     18  C   UNL     1      45.709   3.902  13.057  0.00  0.00    +0.000 A 
ATOM     19  C   UNL     1      45.201   4.865  12.203  0.00  0.00    +0.000 A 
ATOM     20  N   UNL     1      45.838   6.044  12.002  0.00  0.00    +0.000 NA
ATOM     21  C   UNL     1      47.005   6.217  12.638  0.00  0.00    +0.000 A 
ATOM     22  N   UNL     1      47.593   5.338  13.453  0.00  0.00    +0.000 NA
BRANCH  17  24
ATOM     23  C   UNL     1      47.503   3.631  15.843  0.00  0.00    +0.000 C 
ATOM     24  O   UNL     1      47.454   3.224  14.477  0.00  0.00    +0.000 OA
ENDBRANCH  17  24
ENDBRANCH  15  19
ENDBRANCH   1  15
TORSDOF 5
ENDMDL
MODEL 2
REMARK VINA RESULT:    -8.263      1.267      1.797
REMARK INTER + INTRA:         -10.470
REMARK INTER:                 -10.614
REMARK INTRA:                   0.144
REMARK UNBOUND:                 0.209
REMARK  Name = 
REMARK  7 active torsions:
REMARK  status: ('A' for Active; 'I' for Inactive)
REMARK    1  A    between atoms: C_1  and  O_2
REMARK    2  A    between atoms: O_2  and  C_3
REMARK    3  A    between atoms: C_5  and  C_6
REMARK    4  A    between atoms: C_6  and  C_7
REMARK    5  A    between atoms: C_6  and  N_8
REMARK    6  A    between atoms: N_8  and  C_9
REMARK    7  A    between atoms: C_12  and  C_13
REMARK                            x       y       z     vdW  Elec       q    Type
REMARK                         _______ _______ _______ _____ _____    ______ ____
ROOT
ATOM      1  N   UNL     1      44.047   4.969  10.048  0.00  0.00    +0.000 N 
ATOM      2  H   UNL     1      44.420   5.918  10.022  0.00  0.00    +0.000 HD
ENDROOT
BRANCH   1   3
ATOM      3  C   UNL     1      44.866   4.178   9.208  0.00  0.00    +0.000 A 
ATOM      4  N   UNL     1      45.700   4.787   8.334  0.00  0.00    +0.000 NA
ATOM      5  C   UNL     1      46.533   4.017   7.586  0.00  0.00    +0.000 A 
ATOM      6  C   UNL     1      46.587   2.636   7.651  0.00  0.00    +0.000 A 
ATOM      7  C   UNL     1      45.732   2.008   8.559  0.00  0.00    +0.000 A 
ATOM      8  C   UNL     1      44.876   2.779   9.345  0.00  0.00    +0.000 A 
ATOM      9 CL   UNL     1      43.791   1.970  10.419  0.00  0.00    +0.000 Cl
BRANCH   6  10
ATOM     10  C   UNL     1      47.495   1.807   6.821  0.00  0.00    +0.000 C 
ATOM     11  N   UNL     1      48.658   2.350   6.352  0.00  0.00    +0.000 N 
ATOM     12  O   UNL     1      47.207   0.645   6.546  0.00  0.00    +0.000 OA
ATOM     13  H   UNL     1      48.964   3.302   6.470  0.00  0.00    +0.000 HD
ATOM     14  H   UNL     1      49.231   1.749   5.772  0.00  0.00    +0.000 HD
ENDBRANCH   6  10
ENDBRANCH   1   3
BRANCH   1  15
ATOM     15  C   UNL     1      43.949   4.491  11.439  0.00  0.00    +0.000 C 
ATOM     16  C   UNL     1      42.788   5.140  12.198  0.00  0.00    +0.000 C 
BRANCH  15  19
ATOM     17  C   UNL     1      47.088   6.075  12.823  0.00  0.00    +0.000 A 
ATOM     18  C   UNL     1      45.952   5.948  12.054  0.00  0.00    +0.000 A 
ATOM     19  C   UNL     1      45.265   4.752  12.174  0.00  0.00    +0.000 A 
ATOM     20  N   UNL     1      45.717   3.750  12.966  0.00  0.00    +0.000 NA
ATOM     21  C   UNL     1      46.839   3.986  13.659  0.00  0.00    +0.000 A 
ATOM     22  N   UNL     1      47.554   5.113  13.636  0.00  0.00    +0.000 NA
BRANCH  17  24
ATOM     23  C   UNL     1      49.172   7.108  12.562  0.00  0.00    +0.000 C 
ATOM     24  O   UNL     1      47.767   7.276  12.735  0.00  0.00    +0.000 OA
ENDBRANCH  17  24
ENDBRANCH  15  19
ENDBRANCH   1  15
TORSDOF 5
ENDMDL
MODEL 3
REMARK VINA RESULT:    -8.080      2.254      2.961
REMARK INTER + INTRA:         -10.233
REMARK INTER:                  -9.801
REMARK INTRA:                  -0.433
REMARK UNBOUND:                 0.209
REMARK  Name = 
REMARK  7 active torsions:
REMARK  status: ('A' for Active; 'I' for Inactive)
REMARK    1  A    between atoms: C_1  and  O_2
REMARK    2  A    between atoms: O_2  and  C_3
REMARK    3  A    between atoms: C_5  and  C_6
REMARK    4  A    between atoms: C_6  and  C_7
REMARK    5  A    between atoms: C_6  and  N_8
REMARK    6  A    between atoms: N_8  and  C_9
REMARK    7  A    between atoms: C_12  and  C_13
REMARK                            x       y       z     vdW  Elec       q    Type
REMARK                         _______ _______ _______ _____ _____    ______ ____
ROOT
ATOM      1  N   UNL     1      44.021   5.095   9.994  0.00  0.00    +0.000 N 
ATOM      2  H   UNL     1      44.059   6.029   9.585  0.00  0.00    +0.000 HD
ENDROOT
BRANCH   1   3
ATOM      3  C   UNL     1      44.830   4.257   9.190  0.00  0.00    +0.000 A 
ATOM      4  N   UNL     1      45.647   4.815   8.267  0.00  0.00    +0.000 NA
ATOM      5  C   UNL     1      46.472   4.003   7.554  0.00  0.00    +0.000 A 
ATOM      6  C   UNL     1      46.533   2.628   7.702  0.00  0.00    +0.000 A 
ATOM      7  C   UNL     1      45.695   2.054   8.661  0.00  0.00    +0.000 A 
ATOM      8  C   UNL     1      44.848   2.869   9.412  0.00  0.00    +0.000 A 
ATOM      9 CL   UNL     1      43.784   2.124  10.551  0.00  0.00    +0.000 Cl
BRANCH   6  10
ATOM     10  C   UNL     1      47.430   1.753   6.910  0.00  0.00    +0.000 C 
ATOM     11  N   UNL     1      48.527   2.294   6.301  0.00  0.00    +0.000 N 
ATOM     12  O   UNL     1      47.191   0.555   6.790  0.00  0.00    +0.000 OA
ATOM     13  H   UNL     1      48.786   3.267   6.288  0.00  0.00    +0.000 HD
ATOM     14  H   UNL     1      49.095   1.658   5.754  0.00  0.00    +0.000 HD
ENDBRANCH   6  10
ENDBRANCH   1   3
BRANCH   1  15
ATOM     15  C   UNL     1      44.403   5.139  11.416  0.00  0.00    +0.000 C 
ATOM     16  C   UNL     1      43.187   5.208  12.345  0.00  0.00    +0.000 C 
BRANCH  15  19
ATOM     17  C   UNL     1      45.778   8.606  12.027  0.00  0.00    +0.000 A 
ATOM     18  C   UNL     1      44.852   7.633  11.722  0.00  0.00    +0.000 A 
ATOM     19  C   UNL     1      45.325   6.333  11.673  0.00  0.00    +0.000 A 
ATOM     20  N   UNL     1      46.635   6.046  11.866  0.00  0.00    +0.000 NA
ATOM     21  C   UNL     1      47.444   7.076  12.146  0.00  0.00    +0.000 A 
ATOM     22  N   UNL     1      47.080   8.357  12.247  0.00  0.00    +0.000 NA
BRANCH  17  24
ATOM     23  C   UNL     1      44.096  10.103  11.393  0.00  0.00    +0.000 C 
ATOM     24  O   UNL     1      45.312   9.904  12.110  0.00  0.00    +0.000 OA
ENDBRANCH  17  24
ENDBRANCH  15  19
ENDBRANCH   1  15
TORSDOF 5
ENDMDL
MODEL 4
REMARK VINA RESULT:    -7.090      3.688      7.456
REMARK INTER + INTRA:          -8.954
REMARK INTER:                  -8.379
REMARK INTRA:                  -0.575
REMARK UNBOUND:                 0.209
REMARK  Name = 
REMARK  7 active torsions:
REMARK  status: ('A' for Active; 'I' for Inactive)
REMARK    1  A    between atoms: C_1  and  O_2
REMARK    2  A    between atoms: O_2  and  C_3
REMARK    3  A    between atoms: C_5  and  C_6
REMARK    4  A    between atoms: C_6  and  C_7
REMARK    5  A    between atoms: C_6  and  N_8
REMARK    6  A    between atoms: N_8  and  C_9
REMARK    7  A    between atoms: C_12  and  C_13
REMARK                            x       y       z     vdW  Elec       q    Type
REMARK                         _______ _______ _______ _____ _____    ______ ____
ROOT
ATOM      1  N   UNL     1      46.593   4.682  15.190  0.00  0.00    +0.000 N 
ATOM      2  H   UNL     1      45.741   4.161  15.399  0.00  0.00    +0.000 HD
ENDROOT
BRANCH   1   3
ATOM      3  C   UNL     1      47.654   4.022  15.854  0.00  0.00    +0.000 A 
ATOM      4  N   UNL     1      47.838   2.698  15.654  0.00  0.00    +0.000 NA
ATOM      5  C   UNL     1      48.905   2.093  16.240  0.00  0.00    +0.000 A 
ATOM      6  C   UNL     1      49.827   2.743  17.042  0.00  0.00    +0.000 A 
ATOM      7  C   UNL     1      49.641   4.113  17.242  0.00  0.00    +0.000 A 
ATOM      8  C   UNL     1      48.559   4.756  16.641  0.00  0.00    +0.000 A 
ATOM      9 CL   UNL     1      48.325   6.440  16.951  0.00  0.00    +0.000 Cl
BRANCH   6  10
ATOM     10  C   UNL     1      50.981   2.070  17.684  0.00  0.00    +0.000 C 
ATOM     11  N   UNL     1      51.805   2.788  18.505  0.00  0.00    +0.000 N 
ATOM     12  O   UNL     1      51.206   0.880  17.479  0.00  0.00    +0.000 OA
ATOM     13  H   UNL     1      51.746   3.775  18.698  0.00  0.00    +0.000 HD
ATOM     14  H   UNL     1      52.591   2.286  18.900  0.00  0.00    +0.000 HD
ENDBRANCH   6  10
ENDBRANCH   1   3
BRANCH   1  15
ATOM     15  C   UNL     1      46.768   4.819  13.733  0.00  0.00    +0.000 C 
ATOM     16  C   UNL     1      47.398   6.160  13.345  0.00  0.00    +0.000 C 
BRANCH  15  19
ATOM     17  C   UNL     1      43.910   3.548  11.613  0.00  0.00    +0.000 A 
ATOM     18  C   UNL     1      45.186   3.624  12.126  0.00  0.00    +0.000 A 
ATOM     19  C   UNL     1      45.422   4.649  13.026  0.00  0.00    +0.000 A 
ATOM     20  N   UNL     1      44.462   5.551  13.343  0.00  0.00    +0.000 NA
ATOM     21  C   UNL     1      43.261   5.382  12.773  0.00  0.00    +0.000 A 
ATOM     22  N   UNL     1      42.926   4.410  11.921  0.00  0.00    +0.000 NA
BRANCH  17  24
ATOM     23  C   UNL     1      44.463   2.562   9.564  0.00  0.00    +0.000 C 
ATOM     24  O   UNL     1      43.653   2.511  10.737  0.00  0.00    +0.000 OA
ENDBRANCH  17  24
ENDBRANCH  15  19
ENDBRANCH   1  15
TORSDOF 5
ENDMDL
MODEL 5
REMARK VINA RESULT:    -7.022      2.711      6.200
REMARK INTER + INTRA:          -8.866
REMARK INTER:                  -8.192
REMARK INTRA:                  -0.675
REMARK UNBOUND:                 0.209
REMARK  Name = 
REMARK  7 active torsions:
REMARK  status: ('A' for Active; 'I' for Inactive)
REMARK    1  A    between atoms: C_1  and  O_2
REMARK    2  A    between atoms: O_2  and  C_3
REMARK    3  A    between atoms: C_5  and  C_6
REMARK    4  A    between atoms: C_6  and  C_7
REMARK    5  A    between atoms: C_6  and  N_8
REMARK    6  A    between atoms: N_8  and  C_9
REMARK    7  A    between atoms: C_12  and  C_13
REMARK                            x       y       z     vdW  Elec       q    Type
REMARK                         _______ _______ _______ _____ _____    ______ ____
ROOT
ATOM      1  N   UNL     1      44.527   5.513  12.807  0.00  0.00    +0.000 N 
ATOM      2  H   UNL     1      44.729   4.527  12.972  0.00  0.00    +0.000 HD
ENDROOT
BRANCH   1   3
ATOM      3  C   UNL     1      45.764   6.201  12.844  0.00  0.00    +0.000 A 
ATOM      4  N   UNL     1      45.794   7.522  12.556  0.00  0.00    +0.000 NA
ATOM      5  C   UNL     1      46.975   8.185  12.667  0.00  0.00    +0.000 A 
ATOM      6  C   UNL     1      48.167   7.597  13.054  0.00  0.00    +0.000 A 
ATOM      7  C   UNL     1      48.133   6.234  13.360  0.00  0.00    +0.000 A 
ATOM      8  C   UNL     1      46.929   5.536  13.263  0.00  0.00    +0.000 A 
ATOM      9 CL   UNL     1      46.931   3.840  13.595  0.00  0.00    +0.000 Cl
BRANCH   6  10
ATOM     10  C   UNL     1      49.451   8.330  13.161  0.00  0.00    +0.000 C 
ATOM     11  N   UNL     1      50.604   7.632  13.385  0.00  0.00    +0.000 N 
ATOM     12  O   UNL     1      49.485   9.553  13.059  0.00  0.00    +0.000 OA
ATOM     13  H   UNL     1      50.684   6.640  13.539  0.00  0.00    +0.000 HD
ATOM     14  H   UNL     1      51.451   8.182  13.472  0.00  0.00    +0.000 HD
ENDBRANCH   6  10
ENDBRANCH   1   3
BRANCH   1  15
ATOM     15  C   UNL     1      43.766   5.681  11.557  0.00  0.00    +0.000 C 
ATOM     16  C   UNL     1      42.258   5.513  11.765  0.00  0.00    +0.000 C 
BRANCH  15  19
ATOM     17  C   UNL     1      45.507   4.064   8.618  0.00  0.00    +0.000 A 
ATOM     18  C   UNL     1      45.078   5.072   9.455  0.00  0.00    +0.000 A 
ATOM     19  C   UNL     1      44.263   4.687  10.505  0.00  0.00    +0.000 A 
ATOM     20  N   UNL     1      43.873   3.400  10.668  0.00  0.00    +0.000 NA
ATOM     21  C   UNL     1      44.346   2.509   9.786  0.00  0.00    +0.000 A 
ATOM     22  N   UNL     1      45.160   2.774   8.761  0.00  0.00    +0.000 NA
BRANCH  17  24
ATOM     23  C   UNL     1      46.746   3.325   6.776  0.00  0.00    +0.000 C 
ATOM     24  O   UNL     1      46.346   4.430   7.584  0.00  0.00    +0.000 OA
ENDBRANCH  17  24
ENDBRANCH  15  19
ENDBRANCH   1  15
TORSDOF 5
ENDMDL
MODEL 6
REMARK VINA RESULT:    -6.707      4.731      7.714
REMARK INTER + INTRA:          -8.459
REMARK INTER:                  -7.888
REMARK INTRA:                  -0.571
REMARK UNBOUND:                 0.209
REMARK  Name = 
REMARK  7 active torsions:
REMARK  status: ('A' for Active; 'I' for Inactive)
REMARK    1  A    between atoms: C_1  and  O_2
REMARK    2  A    between atoms: O_2  and  C_3
REMARK    3  A    between atoms: C_5  and  C_6
REMARK    4  A    between atoms: C_6  and  C_7
REMARK    5  A    between atoms: C_6  and  N_8
REMARK    6  A    between atoms: N_8  and  C_9
REMARK    7  A    between atoms: C_12  and  C_13
REMARK                            x       y       z     vdW  Elec       q    Type
REMARK                         _______ _______ _______ _____ _____    ______ ____
ROOT
ATOM      1  N   UNL     1      46.782   4.415  15.463  0.00  0.00    +0.000 N 
ATOM      2  H   UNL     1      45.983   3.791  15.575  0.00  0.00    +0.000 HD
ENDROOT
BRANCH   1   3
ATOM      3  C   UNL     1      47.888   3.790  16.087  0.00  0.00    +0.000 A 
ATOM      4  N   UNL     1      48.201   2.517  15.756  0.00  0.00    +0.000 NA
ATOM      5  C   UNL     1      49.308   1.955  16.309  0.00  0.00    +0.000 A 
ATOM      6  C   UNL     1      50.147   2.599  17.201  0.00  0.00    +0.000 A 
ATOM      7  C   UNL     1      49.828   3.917  17.536  0.00  0.00    +0.000 A 
ATOM      8  C   UNL     1      48.702   4.517  16.973  0.00  0.00    +0.000 A 
ATOM      9 CL   UNL     1      48.303   6.130  17.448  0.00  0.00    +0.000 Cl
BRANCH   6  10
ATOM     10  C   UNL     1      51.347   1.971  17.805  0.00  0.00    +0.000 C 
ATOM     11  N   UNL     1      51.392   0.613  17.949  0.00  0.00    +0.000 N 
ATOM     12  O   UNL     1      52.292   2.659  18.182  0.00  0.00    +0.000 OA
ATOM     13  H   UNL     1      50.656  -0.038  17.727  0.00  0.00    +0.000 HD
ATOM     14  H   UNL     1      52.224   0.236  18.387  0.00  0.00    +0.000 HD
ENDBRANCH   6  10
ENDBRANCH   1   3
BRANCH   1  15
ATOM     15  C   UNL     1      46.982   4.744  14.040  0.00  0.00    +0.000 C 
ATOM     16  C   UNL     1      47.757   6.051  13.847  0.00  0.00    +0.000 C 
BRANCH  15  19
ATOM     17  C   UNL     1      43.987   5.902  12.048  0.00  0.00    +0.000 A 
ATOM     18  C   UNL     1      45.193   5.985  12.710  0.00  0.00    +0.000 A 
ATOM     19  C   UNL     1      45.631   4.826  13.328  0.00  0.00    +0.000 A 
ATOM     20  N   UNL     1      44.888   3.693  13.321  0.00  0.00    +0.000 NA
ATOM     21  C   UNL     1      43.727   3.735  12.653  0.00  0.00    +0.000 A 
ATOM     22  N   UNL     1      43.234   4.790  12.000  0.00  0.00    +0.000 NA
BRANCH  17  24
ATOM     23  C   UNL     1      44.537   8.075  11.378  0.00  0.00    +0.000 C 
ATOM     24  O   UNL     1      43.553   7.043  11.401  0.00  0.00    +0.000 OA
ENDBRANCH  17  24
ENDBRANCH  15  19
ENDBRANCH   1  15
TORSDOF 5
ENDMDL
MODEL 7
REMARK VINA RESULT:    -6.688      2.623      6.455
REMARK INTER + INTRA:          -8.435
REMARK INTER:                  -8.809
REMARK INTRA:                   0.375
REMARK UNBOUND:                 0.209
REMARK  Name = 
REMARK  7 active torsions:
REMARK  status: ('A' for Active; 'I' for Inactive)
REMARK    1  A    between atoms: C_1  and  O_2
REMARK    2  A    between atoms: O_2  and  C_3
REMARK    3  A    between atoms: C_5  and  C_6
REMARK    4  A    between atoms: C_6  and  C_7
REMARK    5  A    between atoms: C_6  and  N_8
REMARK    6  A    between atoms: N_8  and  C_9
REMARK    7  A    between atoms: C_12  and  C_13
REMARK                            x       y       z     vdW  Elec       q    Type
REMARK                         _______ _______ _______ _____ _____    ______ ____
ROOT
ATOM      1  N   UNL     1      44.336   6.479  10.817  0.00  0.00    +0.000 N 
ATOM      2  H   UNL     1      43.716   7.277  10.957  0.00  0.00    +0.000 HD
ENDROOT
BRANCH   1   3
ATOM      3  C   UNL     1      45.344   6.561  11.807  0.00  0.00    +0.000 A 
ATOM      4  N   UNL     1      46.046   5.451  12.129  0.00  0.00    +0.000 NA
ATOM      5  C   UNL     1      47.060   5.560  13.027  0.00  0.00    +0.000 A 
ATOM      6  C   UNL     1      47.428   6.741  13.649  0.00  0.00    +0.000 A 
ATOM      7  C   UNL     1      46.709   7.889  13.309  0.00  0.00    +0.000 A 
ATOM      8  C   UNL     1      45.671   7.802  12.382  0.00  0.00    +0.000 A 
ATOM      9 CL   UNL     1      44.764   9.229  12.024  0.00  0.00    +0.000 Cl
BRANCH   6  10
ATOM     10  C   UNL     1      48.531   6.844  14.635  0.00  0.00    +0.000 C 
ATOM     11  N   UNL     1      48.233   6.939  15.965  0.00  0.00    +0.000 N 
ATOM     12  O   UNL     1      49.702   6.853  14.267  0.00  0.00    +0.000 OA
ATOM     13  H   UNL     1      47.313   6.996  16.371  0.00  0.00    +0.000 HD
ATOM     14  H   UNL     1      49.022   7.029  16.595  0.00  0.00    +0.000 HD
ENDBRANCH   6  10
ENDBRANCH   1   3
BRANCH   1  15
ATOM     15  C   UNL     1      43.567   5.222  10.823  0.00  0.00    +0.000 C 
ATOM     16  C   UNL     1      43.449   4.617  12.225  0.00  0.00    +0.000 C 
BRANCH  15  19
ATOM     17  C   UNL     1      45.560   3.593   8.056  0.00  0.00    +0.000 A 
ATOM     18  C   UNL     1      44.985   4.606   8.793  0.00  0.00    +0.000 A 
ATOM     19  C   UNL     1      44.211   4.212   9.871  0.00  0.00    +0.000 A 
ATOM     20  N   UNL     1      43.993   2.904  10.149  0.00  0.00    +0.000 NA
ATOM     21  C   UNL     1      44.597   2.009   9.356  0.00  0.00    +0.000 A 
ATOM     22  N   UNL     1      45.386   2.287   8.315  0.00  0.00    +0.000 NA
BRANCH  17  24
ATOM     23  C   UNL     1      46.760   2.874   6.180  0.00  0.00    +0.000 C 
ATOM     24  O   UNL     1      46.360   3.974   6.996  0.00  0.00    +0.000 OA
ENDBRANCH  17  24
ENDBRANCH  15  19
ENDBRANCH   1  15
TORSDOF 5
ENDMDL
MODEL 8
REMARK VINA RESULT:    -6.653      3.457      5.854
REMARK INTER + INTRA:          -8.389
REMARK INTER:                  -7.866
REMARK INTRA:                  -0.522
REMARK UNBOUND:                 0.209
REMARK  Name = 
REMARK  7 active torsions:
REMARK  status: ('A' for Active; 'I' for Inactive)
REMARK    1  A    between atoms: C_1  and  O_2
REMARK    2  A    between atoms: O_2  and  C_3
REMARK    3  A    between atoms: C_5  and  C_6
REMARK    4  A    between atoms: C_6  and  C_7
REMARK    5  A    between atoms: C_6  and  N_8
REMARK    6  A    between atoms: N_8  and  C_9
REMARK    7  A    between atoms: C_12  and  C_13
REMARK                            x       y       z     vdW  Elec       q    Type
REMARK                         _______ _______ _______ _____ _____    ______ ____
ROOT
ATOM      1  N   UNL     1      47.675   5.211  15.273  0.00  0.00    +0.000 N 
ATOM      2  H   UNL     1      48.644   5.327  14.976  0.00  0.00    +0.000 HD
ENDROOT
BRANCH   1   3
ATOM      3  C   UNL     1      46.919   4.916  14.114  0.00  0.00    +0.000 A 
ATOM      4  N   UNL     1      46.525   3.642  13.889  0.00  0.00    +0.000 NA
ATOM      5  C   UNL     1      45.737   3.386  12.811  0.00  0.00    +0.000 A 
ATOM      6  C   UNL     1      45.307   4.347  11.913  0.00  0.00    +0.000 A 
ATOM      7  C   UNL     1      45.707   5.664  12.150  0.00  0.00    +0.000 A 
ATOM      8  C   UNL     1      46.507   5.951  13.256  0.00  0.00    +0.000 A 
ATOM      9 CL   UNL     1      47.031   7.581  13.493  0.00  0.00    +0.000 Cl
BRANCH   6  10
ATOM     10  C   UNL     1      44.456   4.052  10.735  0.00  0.00    +0.000 C 
ATOM     11  N   UNL     1      44.085   5.071   9.904  0.00  0.00    +0.000 N 
ATOM     12  O   UNL     1      44.078   2.906  10.506  0.00  0.00    +0.000 OA
ATOM     13  H   UNL     1      44.291   6.049  10.027  0.00  0.00    +0.000 HD
ATOM     14  H   UNL     1      43.485   4.819   9.127  0.00  0.00    +0.000 HD
ENDBRANCH   6  10
ENDBRANCH   1   3
BRANCH   1  15
ATOM     15  C   UNL     1      47.582   4.203  16.344  0.00  0.00    +0.000 C 
ATOM     16  C   UNL     1      46.763   4.697  17.540  0.00  0.00    +0.000 C 
BRANCH  15  19
ATOM     17  C   UNL     1      50.678   2.245  17.270  0.00  0.00    +0.000 A 
ATOM     18  C   UNL     1      49.367   2.470  16.911  0.00  0.00    +0.000 A 
ATOM     19  C   UNL     1      48.983   3.796  16.801  0.00  0.00    +0.000 A 
ATOM     20  N   UNL     1      49.839   4.808  17.080  0.00  0.00    +0.000 NA
ATOM     21  C   UNL     1      51.087   4.466  17.429  0.00  0.00    +0.000 A 
ATOM     22  N   UNL     1      51.562   3.222  17.532  0.00  0.00    +0.000 NA
BRANCH  17  24
ATOM     23  C   UNL     1      52.455   0.788  17.712  0.00  0.00    +0.000 C 
ATOM     24  O   UNL     1      51.082   0.926  17.353  0.00  0.00    +0.000 OA
ENDBRANCH  17  24
ENDBRANCH  15  19
ENDBRANCH   1  15
TORSDOF 5
ENDMDL
MODEL 9
REMARK VINA RESULT:    -6.596      3.069      6.812
REMARK INTER + INTRA:          -8.316
REMARK INTER:                  -7.912
REMARK INTRA:                  -0.404
REMARK UNBOUND:                 0.209
REMARK  Name = 
REMARK  7 active torsions:
REMARK  status: ('A' for Active; 'I' for Inactive)
REMARK    1  A    between atoms: C_1  and  O_2
REMARK    2  A    between atoms: O_2  and  C_3
REMARK    3  A    between atoms: C_5  and  C_6
REMARK    4  A    between atoms: C_6  and  C_7
REMARK    5  A    between atoms: C_6  and  N_8
REMARK    6  A    between atoms: N_8  and  C_9
REMARK    7  A    between atoms: C_12  and  C_13
REMARK                            x       y       z     vdW  Elec       q    Type
REMARK                         _______ _______ _______ _____ _____    ______ ____
ROOT
ATOM      1  N   UNL     1      47.584   6.647  12.153  0.00  0.00    +0.000 N 
ATOM      2  H   UNL     1      48.363   7.304  12.201  0.00  0.00    +0.000 HD
ENDROOT
BRANCH   1   3
ATOM      3  C   UNL     1      47.500   6.011  13.415  0.00  0.00    +0.000 A 
ATOM      4  N   UNL     1      46.774   4.877  13.536  0.00  0.00    +0.000 NA
ATOM      5  C   UNL     1      46.763   4.238  14.736  0.00  0.00    +0.000 A 
ATOM      6  C   UNL     1      47.446   4.673  15.858  0.00  0.00    +0.000 A 
ATOM      7  C   UNL     1      48.203   5.839  15.730  0.00  0.00    +0.000 A 
ATOM      8  C   UNL     1      48.238   6.506  14.505  0.00  0.00    +0.000 A 
ATOM      9 CL   UNL     1      49.139   7.976  14.392  0.00  0.00    +0.000 Cl
BRANCH   6  10
ATOM     10  C   UNL     1      47.417   3.971  17.164  0.00  0.00    +0.000 C 
ATOM     11  N   UNL     1      48.226   4.404  18.176  0.00  0.00    +0.000 N 
ATOM     12  O   UNL     1      46.681   3.004  17.339  0.00  0.00    +0.000 OA
ATOM     13  H   UNL     1      48.904   5.147  18.125  0.00  0.00    +0.000 HD
ATOM     14  H   UNL     1      48.184   3.876  19.040  0.00  0.00    +0.000 HD
ENDBRANCH   6  10
ENDBRANCH   1   3
BRANCH   1  15
ATOM     15  C   UNL     1      46.353   7.337  11.728  0.00  0.00    +0.000 C 
ATOM     16  C   UNL     1      45.678   8.087  12.879  0.00  0.00    +0.000 C 
BRANCH  15  19
ATOM     17  C   UNL     1      44.793   4.564   9.689  0.00  0.00    +0.000 A 
ATOM     18  C   UNL     1      45.751   5.463  10.104  0.00  0.00    +0.000 A 
ATOM     19  C   UNL     1      45.377   6.331  11.114  0.00  0.00    +0.000 A 
ATOM     20  N   UNL     1      44.123   6.326  11.627  0.00  0.00    +0.000 NA
ATOM     21  C   UNL     1      43.273   5.413  11.138  0.00  0.00    +0.000 A 
ATOM     22  N   UNL     1      43.547   4.514  10.190  0.00  0.00    +0.000 NA
BRANCH  17  24
ATOM     23  C   UNL     1      45.121   2.313   9.139  0.00  0.00    +0.000 C 
ATOM     24  O   UNL     1      45.164   3.670   8.703  0.00  0.00    +0.000 OA
ENDBRANCH  17  24
ENDBRANCH  15  19
ENDBRANCH   1  15
TORSDOF 5
ENDMDL
