MODEL 1
REMARK VINA RESULT:    -7.015      0.000      0.000
REMARK INTER + INTRA:          -9.713
REMARK INTER:                  -9.271
REMARK INTRA:                  -0.443
REMARK UNBOUND:                -0.443
REMARK  Name = 
REMARK  9 active torsions:
REMARK  status: ('A' for Active; 'I' for Inactive)
REMARK    1  A    between atoms: C_1  and  C_2
REMARK    2  A    between atoms: C_2  and  C_3
REMARK    3  A    between atoms: C_2  and  C_4
REMARK    4  A    between atoms: C_2  and  C_5
REMARK    5  A    between atoms: C_9  and  C_10
REMARK    6  A    between atoms: N_16  and  C_17
REMARK    7  A    between atoms: C_17  and  C_18
REMARK    8  A    between atoms: C_21  and  C_22
REMARK    9  A    between atoms: C_22  and  N_23
REMARK                            x       y       z     vdW  Elec       q    Type
REMARK                         _______ _______ _______ _____ _____    ______ ____
ROOT
ATOM      1  C   UNL     1      44.924   5.048  12.322  0.00  0.00    +0.000 A 
ATOM      2  N   UNL     1      45.690   5.154  13.400  0.00  0.00    +0.000 NA
ATOM      3  C   UNL     1      46.790   5.875  13.049  0.00  0.00    +0.000 A 
ATOM      4  C   UNL     1      47.886   6.252  13.839  0.00  0.00    +0.000 A 
ATOM      5  C   UNL     1      48.902   7.029  13.265  0.00  0.00    +0.000 A 
ATOM      6  C   UNL     1      48.798   7.424  11.921  0.00  0.00    +0.000 A 
ATOM      7  C   UNL     1      47.714   7.039  11.116  0.00  0.00    +0.000 A 
ATOM      8  C   UNL     1      46.727   6.246  11.714  0.00  0.00    +0.000 A 
ATOM      9  N   UNL     1      45.574   5.634  11.242  0.00  0.00    +0.000 N 
ENDROOT
BRANCH   5  10
ATOM     10  C   UNL     1      50.113   7.461  14.017  0.00  0.00    +0.000 C 
ATOM     11  N   UNL     1      51.140   8.052  13.330  0.00  0.00    +0.000 N 
ATOM     12  O   UNL     1      50.210   7.302  15.232  0.00  0.00    +0.000 OA
ATOM     13  H   UNL     1      51.156   8.227  12.338  0.00  0.00    +0.000 HD
ATOM     14  H   UNL     1      51.944   8.341  13.872  0.00  0.00    +0.000 HD
ENDBRANCH   5  10
BRANCH   1  16
ATOM     15  C   UNL     1      42.977   4.466  13.777  0.00  0.00    +0.000 C 
ATOM     16  C   UNL     1      43.564   4.355  12.345  0.00  0.00    +0.000 C 
ATOM     17  C   UNL     1      43.686   2.861  12.019  0.00  0.00    +0.000 C 
ATOM     18  C   UNL     1      42.544   5.032  11.411  0.00  0.00    +0.000 C 
ENDBRANCH   1  16
BRANCH   9  19
ATOM     19  C   UNL     1      45.156   5.684   9.848  0.00  0.00    +0.000 C 
BRANCH  19  20
ATOM     20  C   UNL     1      45.551   4.495   9.011  0.00  0.00    +0.000 A 
ATOM     21  C   UNL     1      45.133   3.184   9.248  0.00  0.00    +0.000 A 
ATOM     22  C   UNL     1      45.713   2.131   8.543  0.00  0.00    +0.000 A 
ATOM     23  C   UNL     1      46.711   2.408   7.612  0.00  0.00    +0.000 A 
ATOM     24  N   UNL     1      47.091   3.674   7.314  0.00  0.00    +0.000 NA
ATOM     25  C   UNL     1      46.504   4.673   8.010  0.00  0.00    +0.000 A 
BRANCH  23  26
ATOM     26  C   UNL     1      47.499   1.278   6.985  0.00  0.00    +0.000 C 
BRANCH  26  27
ATOM     27  N   UNL     1      48.353   1.756   5.890  0.00  0.00    +0.000 NA
ATOM     28  H   UNL     1      48.891   0.961   5.544  0.00  0.00    +0.000 HD
ATOM     29  H   UNL     1      49.032   2.411   6.271  0.00  0.00    +0.000 HD
ENDBRANCH  26  27
ENDBRANCH  23  26
ENDBRANCH  19  20
ENDBRANCH   9  19
TORSDOF 6
ENDMDL
MODEL 2
REMARK VINA RESULT:    -6.220      4.149      7.612
REMARK INTER + INTRA:          -8.663
REMARK INTER:                  -7.982
REMARK INTRA:                  -0.682
REMARK UNBOUND:                -0.443
REMARK  Name = 
REMARK  9 active torsions:
REMARK  status: ('A' for Active; 'I' for Inactive)
REMARK    1  A    between atoms: C_1  and  C_2
REMARK    2  A    between atoms: C_2  and  C_3
REMARK    3  A    between atoms: C_2  and  C_4
REMARK    4  A    between atoms: C_2  and  C_5
REMARK    5  A    between atoms: C_9  and  C_10
REMARK    6  A    between atoms: N_16  and  C_17
REMARK    7  A    between atoms: C_17  and  C_18
REMARK    8  A    between atoms: C_21  and  C_22
REMARK    9  A    between atoms: C_22  and  N_23
REMARK                            x       y       z     vdW  Elec       q    Type
REMARK                         _______ _______ _______ _____ _____    ______ ____
ROOT
ATOM      1  C   UNL     1      48.310   6.558  14.935  0.00  0.00    +0.000 A 
ATOM      2  N   UNL     1      48.198   6.806  13.637  0.00  0.00    +0.000 NA
ATOM      3  C   UNL     1      47.210   6.004  13.152  0.00  0.00    +0.000 A 
ATOM      4  C   UNL     1      46.723   5.901  11.841  0.00  0.00    +0.000 A 
ATOM      5  C   UNL     1      45.668   5.017  11.576  0.00  0.00    +0.000 A 
ATOM      6  C   UNL     1      45.113   4.266  12.625  0.00  0.00    +0.000 A 
ATOM      7  C   UNL     1      45.603   4.349  13.938  0.00  0.00    +0.000 A 
ATOM      8  C   UNL     1      46.671   5.225  14.164  0.00  0.00    +0.000 A 
ATOM      9  N   UNL     1      47.444   5.525  15.278  0.00  0.00    +0.000 N 
ENDROOT
BRANCH   5  10
ATOM     10  C   UNL     1      45.096   4.824  10.214  0.00  0.00    +0.000 C 
ATOM     11  N   UNL     1      45.704   5.438   9.151  0.00  0.00    +0.000 N 
ATOM     12  O   UNL     1      44.100   4.130  10.024  0.00  0.00    +0.000 OA
ATOM     13  H   UNL     1      46.522   6.024   9.202  0.00  0.00    +0.000 HD
ATOM     14  H   UNL     1      45.294   5.279   8.238  0.00  0.00    +0.000 HD
ENDBRANCH   5  10
BRANCH   1  16
ATOM     15  C   UNL     1      49.523   8.723  15.228  0.00  0.00    +0.000 C 
ATOM     16  C   UNL     1      49.278   7.318  15.838  0.00  0.00    +0.000 C 
ATOM     17  C   UNL     1      50.640   6.616  15.921  0.00  0.00    +0.000 C 
ATOM     18  C   UNL     1      48.705   7.556  17.246  0.00  0.00    +0.000 C 
ENDBRANCH   1  16
BRANCH   9  19
ATOM     19  C   UNL     1      47.283   4.863  16.565  0.00  0.00    +0.000 C 
BRANCH  19  20
ATOM     20  C   UNL     1      48.359   3.869  16.921  0.00  0.00    +0.000 A 
ATOM     21  C   UNL     1      49.370   4.098  17.856  0.00  0.00    +0.000 A 
ATOM     22  C   UNL     1      50.430   3.199  17.966  0.00  0.00    +0.000 A 
ATOM     23  C   UNL     1      50.465   2.087  17.129  0.00  0.00    +0.000 A 
ATOM     24  N   UNL     1      49.466   1.806  16.258  0.00  0.00    +0.000 NA
ATOM     25  C   UNL     1      48.448   2.692  16.181  0.00  0.00    +0.000 A 
BRANCH  23  26
ATOM     26  C   UNL     1      51.698   1.211  17.081  0.00  0.00    +0.000 C 
BRANCH  26  27
ATOM     27  N   UNL     1      51.675   0.186  18.133  0.00  0.00    +0.000 NA
ATOM     28  H   UNL     1      51.028  -0.546  17.840  0.00  0.00    +0.000 HD
ATOM     29  H   UNL     1      51.274   0.595  18.975  0.00  0.00    +0.000 HD
ENDBRANCH  26  27
ENDBRANCH  23  26
ENDBRANCH  19  20
ENDBRANCH   9  19
TORSDOF 6
ENDMDL
MODEL 3
REMARK VINA RESULT:    -6.026      3.632      6.786
REMARK INTER + INTRA:          -8.407
REMARK INTER:                  -7.625
REMARK INTRA:                  -0.782
REMARK UNBOUND:                -0.443
REMARK  Name = 
REMARK  9 active torsions:
REMARK  status: ('A' for Active; 'I' for Inactive)
REMARK    1  A    between atoms: C_1  and  C_2
REMARK    2  A    between atoms: C_2  and  C_3
REMARK    3  A    between atoms: C_2  and  C_4
REMARK    4  A    between atoms: C_2  and  C_5
REMARK    5  A    between atoms: C_9  and  C_10
REMARK    6  A    between atoms: N_16  and  C_17
REMARK    7  A    between atoms: C_17  and  C_18
REMARK    8  A    between atoms: C_21  and  C_22
REMARK    9  A    between atoms: C_22  and  N_23
REMARK                            x       y       z     vdW  Elec       q    Type
REMARK                         _______ _______ _______ _____ _____    ______ ____
ROOT
ATOM      1  C   UNL     1      48.265   6.666  14.590  0.00  0.00    +0.000 A 
ATOM      2  N   UNL     1      47.659   5.490  14.692  0.00  0.00    +0.000 NA
ATOM      3  C   UNL     1      46.894   5.327  13.578  0.00  0.00    +0.000 A 
ATOM      4  C   UNL     1      46.069   4.250  13.224  0.00  0.00    +0.000 A 
ATOM      5  C   UNL     1      45.390   4.288  11.998  0.00  0.00    +0.000 A 
ATOM      6  C   UNL     1      45.558   5.392  11.146  0.00  0.00    +0.000 A 
ATOM      7  C   UNL     1      46.369   6.484  11.496  0.00  0.00    +0.000 A 
ATOM      8  C   UNL     1      47.016   6.423  12.737  0.00  0.00    +0.000 A 
ATOM      9  N   UNL     1      47.823   7.308  13.439  0.00  0.00    +0.000 N 
ENDROOT
BRANCH   5  10
ATOM     10  C   UNL     1      44.477   3.201  11.545  0.00  0.00    +0.000 C 
ATOM     11  N   UNL     1      43.816   2.459  12.487  0.00  0.00    +0.000 N 
ATOM     12  O   UNL     1      44.304   2.959  10.352  0.00  0.00    +0.000 OA
ATOM     13  H   UNL     1      43.890   2.579  13.484  0.00  0.00    +0.000 HD
ATOM     14  H   UNL     1      43.198   1.735  12.144  0.00  0.00    +0.000 HD
ENDBRANCH   5  10
BRANCH   1  16
ATOM     15  C   UNL     1      49.402   6.096  16.742  0.00  0.00    +0.000 C 
ATOM     16  C   UNL     1      49.262   7.170  15.631  0.00  0.00    +0.000 C 
ATOM     17  C   UNL     1      48.772   8.458  16.303  0.00  0.00    +0.000 C 
ATOM     18  C   UNL     1      50.672   7.367  15.046  0.00  0.00    +0.000 C 
ENDBRANCH   1  16
BRANCH   9  19
ATOM     19  C   UNL     1      48.148   8.644  12.962  0.00  0.00    +0.000 C 
BRANCH  19  20
ATOM     20  C   UNL     1      49.329   8.729  12.028  0.00  0.00    +0.000 A 
ATOM     21  C   UNL     1      50.036   7.627  11.543  0.00  0.00    +0.000 A 
ATOM     22  C   UNL     1      51.231   7.819  10.852  0.00  0.00    +0.000 A 
ATOM     23  C   UNL     1      51.704   9.114  10.663  0.00  0.00    +0.000 A 
ATOM     24  N   UNL     1      51.008  10.204  11.066  0.00  0.00    +0.000 NA
ATOM     25  C   UNL     1      49.849   9.986  11.726  0.00  0.00    +0.000 A 
BRANCH  23  26
ATOM     26  C   UNL     1      53.092   9.341  10.102  0.00  0.00    +0.000 C 
BRANCH  26  27
ATOM     27  N   UNL     1      53.808   8.074   9.901  0.00  0.00    +0.000 NA
ATOM     28  H   UNL     1      54.254   7.825  10.784  0.00  0.00    +0.000 HD
ATOM     29  H   UNL     1      54.564   8.232   9.239  0.00  0.00    +0.000 HD
ENDBRANCH  26  27
ENDBRANCH  23  26
ENDBRANCH  19  20
ENDBRANCH   9  19
TORSDOF 6
ENDMDL
MODEL 4
REMARK VINA RESULT:    -5.845      3.194      5.734
REMARK INTER + INTRA:          -8.167
REMARK INTER:                  -7.384
REMARK INTRA:                  -0.784
REMARK UNBOUND:                -0.443
REMARK  Name = 
REMARK  9 active torsions:
REMARK  status: ('A' for Active; 'I' for Inactive)
REMARK    1  A    between atoms: C_1  and  C_2
REMARK    2  A    between atoms: C_2  and  C_3
REMARK    3  A    between atoms: C_2  and  C_4
REMARK    4  A    between atoms: C_2  and  C_5
REMARK    5  A    between atoms: C_9  and  C_10
REMARK    6  A    between atoms: N_16  and  C_17
REMARK    7  A    between atoms: C_17  and  C_18
REMARK    8  A    between atoms: C_21  and  C_22
REMARK    9  A    between atoms: C_22  and  N_23
REMARK                            x       y       z     vdW  Elec       q    Type
REMARK                         _______ _______ _______ _____ _____    ______ ____
ROOT
ATOM      1  C   UNL     1      46.028   4.876  13.024  0.00  0.00    +0.000 A 
ATOM      2  N   UNL     1      46.342   3.754  13.658  0.00  0.00    +0.000 NA
ATOM      3  C   UNL     1      47.152   4.087  14.701  0.00  0.00    +0.000 A 
ATOM      4  C   UNL     1      47.743   3.252  15.660  0.00  0.00    +0.000 A 
ATOM      5  C   UNL     1      48.525   3.826  16.671  0.00  0.00    +0.000 A 
ATOM      6  C   UNL     1      48.691   5.221  16.712  0.00  0.00    +0.000 A 
ATOM      7  C   UNL     1      48.117   6.065  15.749  0.00  0.00    +0.000 A 
ATOM      8  C   UNL     1      47.360   5.457  14.740  0.00  0.00    +0.000 A 
ATOM      9  N   UNL     1      46.709   5.936  13.611  0.00  0.00    +0.000 N 
ENDROOT
BRANCH   5  10
ATOM     10  C   UNL     1      49.209   3.021  17.722  0.00  0.00    +0.000 C 
ATOM     11  N   UNL     1      48.834   3.187  19.029  0.00  0.00    +0.000 N 
ATOM     12  O   UNL     1      50.095   2.215  17.444  0.00  0.00    +0.000 OA
ATOM     13  H   UNL     1      48.121   3.819  19.357  0.00  0.00    +0.000 HD
ATOM     14  H   UNL     1      49.313   2.619  19.716  0.00  0.00    +0.000 HD
ENDBRANCH   5  10
BRANCH   1  16
ATOM     15  C   UNL     1      44.751   3.447  11.420  0.00  0.00    +0.000 C 
ATOM     16  C   UNL     1      45.077   4.908  11.831  0.00  0.00    +0.000 C 
ATOM     17  C   UNL     1      45.719   5.589  10.616  0.00  0.00    +0.000 C 
ATOM     18  C   UNL     1      43.729   5.568  12.172  0.00  0.00    +0.000 C 
ENDBRANCH   1  16
BRANCH   9  19
ATOM     19  C   UNL     1      46.739   7.334  13.204  0.00  0.00    +0.000 C 
BRANCH  19  20
ATOM     20  C   UNL     1      48.084   7.849  12.756  0.00  0.00    +0.000 A 
ATOM     21  C   UNL     1      48.813   7.332  11.683  0.00  0.00    +0.000 A 
ATOM     22  C   UNL     1      50.130   7.742  11.478  0.00  0.00    +0.000 A 
ATOM     23  C   UNL     1      50.699   8.659  12.357  0.00  0.00    +0.000 A 
ATOM     24  N   UNL     1      49.995   9.225  13.367  0.00  0.00    +0.000 NA
ATOM     25  C   UNL     1      48.719   8.814  13.535  0.00  0.00    +0.000 A 
BRANCH  23  26
ATOM     26  C   UNL     1      52.180   8.964  12.282  0.00  0.00    +0.000 C 
BRANCH  26  27
ATOM     27  N   UNL     1      52.973   7.744  12.076  0.00  0.00    +0.000 NA
ATOM     28  H   UNL     1      53.275   7.731  11.102  0.00  0.00    +0.000 HD
ATOM     29  H   UNL     1      52.363   6.938  12.193  0.00  0.00    +0.000 HD
ENDBRANCH  26  27
ENDBRANCH  23  26
ENDBRANCH  19  20
ENDBRANCH   9  19
TORSDOF 6
ENDMDL
MODEL 5
REMARK VINA RESULT:    -5.804      4.267      8.271
REMARK INTER + INTRA:          -8.113
REMARK INTER:                  -7.443
REMARK INTRA:                  -0.670
REMARK UNBOUND:                -0.443
REMARK  Name = 
REMARK  9 active torsions:
REMARK  status: ('A' for Active; 'I' for Inactive)
REMARK    1  A    between atoms: C_1  and  C_2
REMARK    2  A    between atoms: C_2  and  C_3
REMARK    3  A    between atoms: C_2  and  C_4
REMARK    4  A    between atoms: C_2  and  C_5
REMARK    5  A    between atoms: C_9  and  C_10
REMARK    6  A    between atoms: N_16  and  C_17
REMARK    7  A    between atoms: C_17  and  C_18
REMARK    8  A    between atoms: C_21  and  C_22
REMARK    9  A    between atoms: C_22  and  N_23
REMARK                            x       y       z     vdW  Elec       q    Type
REMARK                         _______ _______ _______ _____ _____    ______ ____
ROOT
ATOM      1  C   UNL     1      47.953   8.481  13.519  0.00  0.00    +0.000 A 
ATOM      2  N   UNL     1      46.911   8.663  12.720  0.00  0.00    +0.000 NA
ATOM      3  C   UNL     1      46.224   7.489  12.671  0.00  0.00    +0.000 A 
ATOM      4  C   UNL     1      45.053   7.180  11.963  0.00  0.00    +0.000 A 
ATOM      5  C   UNL     1      44.501   5.898  12.087  0.00  0.00    +0.000 A 
ATOM      6  C   UNL     1      45.121   4.955  12.924  0.00  0.00    +0.000 A 
ATOM      7  C   UNL     1      46.302   5.246  13.625  0.00  0.00    +0.000 A 
ATOM      8  C   UNL     1      46.838   6.530  13.462  0.00  0.00    +0.000 A 
ATOM      9  N   UNL     1      47.990   7.152  13.924  0.00  0.00    +0.000 N 
ENDROOT
BRANCH   5  10
ATOM     10  C   UNL     1      43.273   5.471  11.361  0.00  0.00    +0.000 C 
ATOM     11  N   UNL     1      42.069   6.014  11.725  0.00  0.00    +0.000 N 
ATOM     12  O   UNL     1      43.315   4.649  10.448  0.00  0.00    +0.000 OA
ATOM     13  H   UNL     1      41.931   6.693  12.456  0.00  0.00    +0.000 HD
ATOM     14  H   UNL     1      41.256   5.708  11.205  0.00  0.00    +0.000 HD
ENDBRANCH   5  10
BRANCH   1  16
ATOM     15  C   UNL     1      48.580  10.846  13.007  0.00  0.00    +0.000 C 
ATOM     16  C   UNL     1      48.927   9.604  13.869  0.00  0.00    +0.000 C 
ATOM     17  C   UNL     1      50.375   9.216  13.545  0.00  0.00    +0.000 C 
ATOM     18  C   UNL     1      48.802  10.053  15.336  0.00  0.00    +0.000 C 
ENDBRANCH   1  16
BRANCH   9  19
ATOM     19  C   UNL     1      48.993   6.476  14.734  0.00  0.00    +0.000 C 
BRANCH  19  20
ATOM     20  C   UNL     1      48.627   6.274  16.183  0.00  0.00    +0.000 A 
ATOM     21  C   UNL     1      48.745   7.250  17.174  0.00  0.00    +0.000 A 
ATOM     22  C   UNL     1      48.573   6.904  18.513  0.00  0.00    +0.000 A 
ATOM     23  C   UNL     1      48.293   5.580  18.840  0.00  0.00    +0.000 A 
ATOM     24  N   UNL     1      48.108   4.625  17.897  0.00  0.00    +0.000 NA
ATOM     25  C   UNL     1      48.274   4.994  16.606  0.00  0.00    +0.000 A 
BRANCH  23  26
ATOM     26  C   UNL     1      48.306   5.136  20.287  0.00  0.00    +0.000 C 
BRANCH  26  27
ATOM     27  N   UNL     1      48.408   3.675  20.404  0.00  0.00    +0.000 NA
ATOM     28  H   UNL     1      47.575   3.343  20.891  0.00  0.00    +0.000 HD
ATOM     29  H   UNL     1      49.195   3.453  21.010  0.00  0.00    +0.000 HD
ENDBRANCH  26  27
ENDBRANCH  23  26
ENDBRANCH  19  20
ENDBRANCH   9  19
TORSDOF 6
ENDMDL
MODEL 6
REMARK VINA RESULT:    -5.774      3.892      6.389
REMARK INTER + INTRA:          -8.074
REMARK INTER:                  -7.524
REMARK INTRA:                  -0.550
REMARK UNBOUND:                -0.443
REMARK  Name = 
REMARK  9 active torsions:
REMARK  status: ('A' for Active; 'I' for Inactive)
REMARK    1  A    between atoms: C_1  and  C_2
REMARK    2  A    between atoms: C_2  and  C_3
REMARK    3  A    between atoms: C_2  and  C_4
REMARK    4  A    between atoms: C_2  and  C_5
REMARK    5  A    between atoms: C_9  and  C_10
REMARK    6  A    between atoms: N_16  and  C_17
REMARK    7  A    between atoms: C_17  and  C_18
REMARK    8  A    between atoms: C_21  and  C_22
REMARK    9  A    between atoms: C_22  and  N_23
REMARK                            x       y       z     vdW  Elec       q    Type
REMARK                         _______ _______ _______ _____ _____    ______ ____
ROOT
ATOM      1  C   UNL     1      49.084   7.870  14.677  0.00  0.00    +0.000 A 
ATOM      2  N   UNL     1      49.209   8.123  15.973  0.00  0.00    +0.000 NA
ATOM      3  C   UNL     1      48.793   7.016  16.647  0.00  0.00    +0.000 A 
ATOM      4  C   UNL     1      48.735   6.796  18.031  0.00  0.00    +0.000 A 
ATOM      5  C   UNL     1      48.294   5.552  18.503  0.00  0.00    +0.000 A 
ATOM      6  C   UNL     1      47.931   4.551  17.586  0.00  0.00    +0.000 A 
ATOM      7  C   UNL     1      47.968   4.765  16.200  0.00  0.00    +0.000 A 
ATOM      8  C   UNL     1      48.394   6.025  15.762  0.00  0.00    +0.000 A 
ATOM      9  N   UNL     1      48.501   6.619  14.511  0.00  0.00    +0.000 N 
ENDROOT
BRANCH   5  10
ATOM     10  C   UNL     1      48.180   5.230  19.954  0.00  0.00    +0.000 C 
ATOM     11  N   UNL     1      48.557   3.986  20.384  0.00  0.00    +0.000 N 
ATOM     12  O   UNL     1      47.761   6.052  20.767  0.00  0.00    +0.000 OA
ATOM     13  H   UNL     1      48.912   3.247  19.800  0.00  0.00    +0.000 HD
ATOM     14  H   UNL     1      48.474   3.804  21.377  0.00  0.00    +0.000 HD
ENDBRANCH   5  10
BRANCH   1  16
ATOM     15  C   UNL     1      48.246   9.480  12.960  0.00  0.00    +0.000 C 
ATOM     16  C   UNL     1      49.516   8.862  13.600  0.00  0.00    +0.000 C 
ATOM     17  C   UNL     1      50.300   8.169  12.477  0.00  0.00    +0.000 C 
ATOM     18  C   UNL     1      50.323  10.040  14.175  0.00  0.00    +0.000 C 
ENDBRANCH   1  16
BRANCH   9  19
ATOM     19  C   UNL     1      48.099   5.960  13.277  0.00  0.00    +0.000 C 
BRANCH  19  20
ATOM     20  C   UNL     1      46.617   5.733  13.118  0.00  0.00    +0.000 A 
ATOM     21  C   UNL     1      45.980   4.503  13.296  0.00  0.00    +0.000 A 
ATOM     22  C   UNL     1      44.644   4.353  12.929  0.00  0.00    +0.000 A 
ATOM     23  C   UNL     1      43.966   5.439  12.382  0.00  0.00    +0.000 A 
ATOM     24  N   UNL     1      44.538   6.661  12.258  0.00  0.00    +0.000 NA
ATOM     25  C   UNL     1      45.833   6.776  12.630  0.00  0.00    +0.000 A 
BRANCH  23  26
ATOM     26  C   UNL     1      42.587   5.252  11.787  0.00  0.00    +0.000 C 
BRANCH  26  27
ATOM     27  N   UNL     1      41.843   6.518  11.736  0.00  0.00    +0.000 NA
ATOM     28  H   UNL     1      41.980   6.922  10.810  0.00  0.00    +0.000 HD
ATOM     29  H   UNL     1      42.267   7.169  12.393  0.00  0.00    +0.000 HD
ENDBRANCH  26  27
ENDBRANCH  23  26
ENDBRANCH  19  20
ENDBRANCH   9  19
TORSDOF 6
ENDMDL
MODEL 7
REMARK VINA RESULT:    -5.219      1.976      2.620
REMARK INTER + INTRA:          -7.340
REMARK INTER:                  -6.555
REMARK INTRA:                  -0.785
REMARK UNBOUND:                -0.443
REMARK  Name = 
REMARK  9 active torsions:
REMARK  status: ('A' for Active; 'I' for Inactive)
REMARK    1  A    between atoms: C_1  and  C_2
REMARK    2  A    between atoms: C_2  and  C_3
REMARK    3  A    between atoms: C_2  and  C_4
REMARK    4  A    between atoms: C_2  and  C_5
REMARK    5  A    between atoms: C_9  and  C_10
REMARK    6  A    between atoms: N_16  and  C_17
REMARK    7  A    between atoms: C_17  and  C_18
REMARK    8  A    between atoms: C_21  and  C_22
REMARK    9  A    between atoms: C_22  and  N_23
REMARK                            x       y       z     vdW  Elec       q    Type
REMARK                         _______ _______ _______ _____ _____    ______ ____
ROOT
ATOM      1  C   UNL     1      47.080   5.655  13.235  0.00  0.00    +0.000 A 
ATOM      2  N   UNL     1      48.324   5.929  13.605  0.00  0.00    +0.000 NA
ATOM      3  C   UNL     1      48.670   7.112  13.026  0.00  0.00    +0.000 A 
ATOM      4  C   UNL     1      49.879   7.817  13.116  0.00  0.00    +0.000 A 
ATOM      5  C   UNL     1      50.001   9.045  12.451  0.00  0.00    +0.000 A 
ATOM      6  C   UNL     1      48.911   9.549  11.721  0.00  0.00    +0.000 A 
ATOM      7  C   UNL     1      47.701   8.845  11.610  0.00  0.00    +0.000 A 
ATOM      8  C   UNL     1      47.621   7.612  12.270  0.00  0.00    +0.000 A 
ATOM      9  N   UNL     1      46.646   6.626  12.340  0.00  0.00    +0.000 N 
ENDROOT
BRANCH   5  10
ATOM     10  C   UNL     1      51.250   9.857  12.470  0.00  0.00    +0.000 C 
ATOM     11  N   UNL     1      52.188   9.600  13.435  0.00  0.00    +0.000 N 
ATOM     12  O   UNL     1      51.456  10.744  11.646  0.00  0.00    +0.000 OA
ATOM     13  H   UNL     1      52.112   8.896  14.152  0.00  0.00    +0.000 HD
ATOM     14  H   UNL     1      53.028  10.164  13.415  0.00  0.00    +0.000 HD
ENDBRANCH   5  10
BRANCH   1  16
ATOM     15  C   UNL     1      46.839   4.083  15.163  0.00  0.00    +0.000 C 
ATOM     16  C   UNL     1      46.323   4.430  13.742  0.00  0.00    +0.000 C 
ATOM     17  C   UNL     1      46.577   3.204  12.855  0.00  0.00    +0.000 C 
ATOM     18  C   UNL     1      44.813   4.690  13.886  0.00  0.00    +0.000 C 
ENDBRANCH   1  16
BRANCH   9  19
ATOM     19  C   UNL     1      45.387   6.693  11.613  0.00  0.00    +0.000 C 
BRANCH  19  20
ATOM     20  C   UNL     1      45.290   5.798  10.403  0.00  0.00    +0.000 A 
ATOM     21  C   UNL     1      44.399   4.731  10.277  0.00  0.00    +0.000 A 
ATOM     22  C   UNL     1      44.525   3.843   9.210  0.00  0.00    +0.000 A 
ATOM     23  C   UNL     1      45.550   4.035   8.288  0.00  0.00    +0.000 A 
ATOM     24  N   UNL     1      46.388   5.097   8.348  0.00  0.00    +0.000 NA
ATOM     25  C   UNL     1      46.235   5.945   9.390  0.00  0.00    +0.000 A 
BRANCH  23  26
ATOM     26  C   UNL     1      45.839   2.978   7.243  0.00  0.00    +0.000 C 
BRANCH  26  27
ATOM     27  N   UNL     1      46.779   3.465   6.225  0.00  0.00    +0.000 NA
ATOM     28  H   UNL     1      47.468   2.732   6.061  0.00  0.00    +0.000 HD
ATOM     29  H   UNL     1      47.294   4.253   6.611  0.00  0.00    +0.000 HD
ENDBRANCH  26  27
ENDBRANCH  23  26
ENDBRANCH  19  20
ENDBRANCH   9  19
TORSDOF 6
ENDMDL
MODEL 8
REMARK VINA RESULT:    -5.120      3.389      7.831
REMARK INTER + INTRA:          -7.209
REMARK INTER:                  -6.647
REMARK INTRA:                  -0.562
REMARK UNBOUND:                -0.443
REMARK  Name = 
REMARK  9 active torsions:
REMARK  status: ('A' for Active; 'I' for Inactive)
REMARK    1  A    between atoms: C_1  and  C_2
REMARK    2  A    between atoms: C_2  and  C_3
REMARK    3  A    between atoms: C_2  and  C_4
REMARK    4  A    between atoms: C_2  and  C_5
REMARK    5  A    between atoms: C_9  and  C_10
REMARK    6  A    between atoms: N_16  and  C_17
REMARK    7  A    between atoms: C_17  and  C_18
REMARK    8  A    between atoms: C_21  and  C_22
REMARK    9  A    between atoms: C_22  and  N_23
REMARK                            x       y       z     vdW  Elec       q    Type
REMARK                         _______ _______ _______ _____ _____    ______ ____
ROOT
ATOM      1  C   UNL     1      48.551   8.137  12.585  0.00  0.00    +0.000 A 
ATOM      2  N   UNL     1      48.114   7.653  11.429  0.00  0.00    +0.000 NA
ATOM      3  C   UNL     1      47.102   6.786  11.705  0.00  0.00    +0.000 A 
ATOM      4  C   UNL     1      46.325   6.026  10.819  0.00  0.00    +0.000 A 
ATOM      5  C   UNL     1      45.306   5.213  11.333  0.00  0.00    +0.000 A 
ATOM      6  C   UNL     1      45.075   5.185  12.719  0.00  0.00    +0.000 A 
ATOM      7  C   UNL     1      45.856   5.929  13.618  0.00  0.00    +0.000 A 
ATOM      8  C   UNL     1      46.879   6.714  13.072  0.00  0.00    +0.000 A 
ATOM      9  N   UNL     1      47.871   7.512  13.625  0.00  0.00    +0.000 N 
ENDROOT
BRANCH   5  10
ATOM     10  C   UNL     1      44.442   4.356  10.474  0.00  0.00    +0.000 C 
ATOM     11  N   UNL     1      44.407   4.597   9.126  0.00  0.00    +0.000 N 
ATOM     12  O   UNL     1      43.766   3.443  10.945  0.00  0.00    +0.000 OA
ATOM     13  H   UNL     1      44.922   5.317   8.647  0.00  0.00    +0.000 HD
ATOM     14  H   UNL     1      43.816   3.990   8.571  0.00  0.00    +0.000 HD
ENDBRANCH   5  10
BRANCH   1  16
ATOM     15  C   UNL     1      51.002   8.483  12.926  0.00  0.00    +0.000 C 
ATOM     16  C   UNL     1      49.647   9.195  12.672  0.00  0.00    +0.000 C 
ATOM     17  C   UNL     1      49.411  10.155  13.846  0.00  0.00    +0.000 C 
ATOM     18  C   UNL     1      49.814   9.978  11.358  0.00  0.00    +0.000 C 
ENDBRANCH   1  16
BRANCH   9  19
ATOM     19  C   UNL     1      48.071   7.661  15.059  0.00  0.00    +0.000 C 
BRANCH  19  20
ATOM     20  C   UNL     1      48.812   6.533  15.730  0.00  0.00    +0.000 A 
ATOM     21  C   UNL     1      48.203   5.411  16.296  0.00  0.00    +0.000 A 
ATOM     22  C   UNL     1      48.956   4.527  17.068  0.00  0.00    +0.000 A 
ATOM     23  C   UNL     1      50.310   4.786  17.267  0.00  0.00    +0.000 A 
ATOM     24  N   UNL     1      50.941   5.830  16.677  0.00  0.00    +0.000 NA
ATOM     25  C   UNL     1      50.185   6.664  15.929  0.00  0.00    +0.000 A 
BRANCH  23  26
ATOM     26  C   UNL     1      51.101   3.965  18.262  0.00  0.00    +0.000 C 
BRANCH  26  27
ATOM     27  N   UNL     1      50.733   4.291  19.646  0.00  0.00    +0.000 NA
ATOM     28  H   UNL     1      51.314   5.074  19.947  0.00  0.00    +0.000 HD
ATOM     29  H   UNL     1      50.989   3.507  20.242  0.00  0.00    +0.000 HD
ENDBRANCH  26  27
ENDBRANCH  23  26
ENDBRANCH  19  20
ENDBRANCH   9  19
TORSDOF 6
ENDMDL
MODEL 9
REMARK VINA RESULT:    -5.080     10.531     12.973
REMARK INTER + INTRA:          -7.156
REMARK INTER:                  -6.359
REMARK INTRA:                  -0.797
REMARK UNBOUND:                -0.443
REMARK  Name = 
REMARK  9 active torsions:
REMARK  status: ('A' for Active; 'I' for Inactive)
REMARK    1  A    between atoms: C_1  and  C_2
REMARK    2  A    between atoms: C_2  and  C_3
REMARK    3  A    between atoms: C_2  and  C_4
REMARK    4  A    between atoms: C_2  and  C_5
REMARK    5  A    between atoms: C_9  and  C_10
REMARK    6  A    between atoms: N_16  and  C_17
REMARK    7  A    between atoms: C_17  and  C_18
REMARK    8  A    between atoms: C_21  and  C_22
REMARK    9  A    between atoms: C_22  and  N_23
REMARK                            x       y       z     vdW  Elec       q    Type
REMARK                         _______ _______ _______ _____ _____    ______ ____
ROOT
ATOM      1  C   UNL     1      41.112  -3.717  18.488  0.00  0.00    +0.000 A 
ATOM      2  N   UNL     1      40.773  -2.782  17.610  0.00  0.00    +0.000 NA
ATOM      3  C   UNL     1      41.037  -3.273  16.368  0.00  0.00    +0.000 A 
ATOM      4  C   UNL     1      40.850  -2.662  15.120  0.00  0.00    +0.000 A 
ATOM      5  C   UNL     1      41.169  -3.378  13.958  0.00  0.00    +0.000 A 
ATOM      6  C   UNL     1      41.657  -4.691  14.065  0.00  0.00    +0.000 A 
ATOM      7  C   UNL     1      41.864  -5.308  15.309  0.00  0.00    +0.000 A 
ATOM      8  C   UNL     1      41.554  -4.557  16.450  0.00  0.00    +0.000 A 
ATOM      9  N   UNL     1      41.680  -4.791  17.813  0.00  0.00    +0.000 N 
ENDROOT
BRANCH   5  10
ATOM     10  C   UNL     1      41.023  -2.807  12.589  0.00  0.00    +0.000 C 
ATOM     11  N   UNL     1      39.966  -3.209  11.817  0.00  0.00    +0.000 N 
ATOM     12  O   UNL     1      41.824  -1.989  12.142  0.00  0.00    +0.000 OA
ATOM     13  H   UNL     1      39.259  -3.871  12.092  0.00  0.00    +0.000 HD
ATOM     14  H   UNL     1      39.892  -2.796  10.896  0.00  0.00    +0.000 HD
ENDBRANCH   5  10
BRANCH   1  16
ATOM     15  C   UNL     1      40.323  -2.134  20.254  0.00  0.00    +0.000 C 
ATOM     16  C   UNL     1      40.899  -3.550  19.990  0.00  0.00    +0.000 C 
ATOM     17  C   UNL     1      42.220  -3.654  20.763  0.00  0.00    +0.000 C 
ATOM     18  C   UNL     1      39.865  -4.543  20.550  0.00  0.00    +0.000 C 
ENDBRANCH   1  16
BRANCH   9  19
ATOM     19  C   UNL     1      42.270  -6.002  18.365  0.00  0.00    +0.000 C 
BRANCH  19  20
ATOM     20  C   UNL     1      43.763  -6.130  18.196  0.00  0.00    +0.000 A 
ATOM     21  C   UNL     1      44.701  -5.265  18.761  0.00  0.00    +0.000 A 
ATOM     22  C   UNL     1      46.040  -5.348  18.380  0.00  0.00    +0.000 A 
ATOM     23  C   UNL     1      46.417  -6.294  17.432  0.00  0.00    +0.000 A 
ATOM     24  N   UNL     1      45.541  -7.189  16.915  0.00  0.00    +0.000 NA
ATOM     25  C   UNL     1      44.252  -7.088  17.310  0.00  0.00    +0.000 A 
BRANCH  23  26
ATOM     26  C   UNL     1      47.814  -6.271  16.850  0.00  0.00    +0.000 C 
BRANCH  26  27
ATOM     27  N   UNL     1      47.880  -6.991  15.571  0.00  0.00    +0.000 NA
ATOM     28  H   UNL     1      46.978  -6.883  15.107  0.00  0.00    +0.000 HD
ATOM     29  H   UNL     1      47.979  -7.985  15.764  0.00  0.00    +0.000 HD
ENDBRANCH  26  27
ENDBRANCH  23  26
ENDBRANCH  19  20
ENDBRANCH   9  19
TORSDOF 6
ENDMDL
