MODEL 1
REMARK VINA RESULT:    -8.173      0.000      0.000
REMARK INTER + INTRA:         -10.722
REMARK INTER:                 -10.084
REMARK INTRA:                  -0.638
REMARK UNBOUND:                -0.638
REMARK  Name = 
REMARK  4 active torsions:
REMARK  status: ('A' for Active; 'I' for Inactive)
REMARK    1  A    between atoms: C_2  and  C_4
REMARK    2  A    between atoms: C_7  and  N_8
REMARK    3  A    between atoms: N_8  and  C_9
REMARK    4  A    between atoms: C_9  and  C_10
REMARK                            x       y       z     vdW  Elec       q    Type
REMARK                         _______ _______ _______ _____ _____    ______ ____
ROOT
ATOM      1  C   UNL     1      46.480   2.696   7.517  0.00  0.00    +0.000 A 
ATOM      2  C   UNL     1      46.023   4.006   7.684  0.00  0.00    +0.000 A 
ATOM      3  C   UNL     1      45.090   4.301   8.687  0.00  0.00    +0.000 A 
ATOM      4  C   UNL     1      44.609   3.302   9.538  0.00  0.00    +0.000 A 
ATOM      5  C   UNL     1      45.085   1.997   9.367  0.00  0.00    +0.000 A 
ATOM      6  C   UNL     1      45.997   1.687   8.355  0.00  0.00    +0.000 A 
ENDROOT
BRANCH   1   8
ATOM      7  N   UNL     1      47.474   3.095   5.329  0.00  0.00    +0.000 N 
ATOM      8  C   UNL     1      47.460   2.330   6.462  0.00  0.00    +0.000 C 
ATOM      9  O   UNL     1      48.255   1.411   6.610  0.00  0.00    +0.000 OA
ATOM     10  H   UNL     1      48.222   2.905   4.673  0.00  0.00    +0.000 HD
ATOM     11  H   UNL     1      47.028   3.999   5.283  0.00  0.00    +0.000 HD
ENDBRANCH   1   8
BRANCH   4  12
ATOM     12  N   UNL     1      43.756   3.544  10.640  0.00  0.00    +0.000 N 
ATOM     13  H   UNL     1      43.732   2.694  11.205  0.00  0.00    +0.000 HD
BRANCH  12  14
ATOM     14  C   UNL     1      43.856   4.775  11.476  0.00  0.00    +0.000 C 
ATOM     15  C   UNL     1      42.572   5.126  12.224  0.00  0.00    +0.000 C 
ATOM     16  C   UNL     1      43.056   6.016  11.127  0.00  0.00    +0.000 C 
BRANCH  14  17
ATOM     17  C   UNL     1      45.199   4.968  12.200  0.00  0.00    +0.000 A 
ATOM     18  C   UNL     1      46.038   6.043  11.891  0.00  0.00    +0.000 A 
ATOM     19  C   UNL     1      47.212   6.242  12.617  0.00  0.00    +0.000 A 
ATOM     20  C   UNL     1      47.530   5.369  13.647  0.00  0.00    +0.000 A 
ATOM     21  C   UNL     1      46.671   4.319  13.890  0.00  0.00    +0.000 A 
ATOM     22  N   UNL     1      45.538   4.098  13.191  0.00  0.00    +0.000 NA
ENDBRANCH  14  17
ENDBRANCH  12  14
ENDBRANCH   4  12
TORSDOF 4
ENDMDL
MODEL 2
REMARK VINA RESULT:    -5.733      2.845      6.257
REMARK INTER + INTRA:          -7.712
REMARK INTER:                  -7.499
REMARK INTRA:                  -0.213
REMARK UNBOUND:                -0.638
REMARK  Name = 
REMARK  4 active torsions:
REMARK  status: ('A' for Active; 'I' for Inactive)
REMARK    1  A    between atoms: C_2  and  C_4
REMARK    2  A    between atoms: C_7  and  N_8
REMARK    3  A    between atoms: N_8  and  C_9
REMARK    4  A    between atoms: C_9  and  C_10
REMARK                            x       y       z     vdW  Elec       q    Type
REMARK                         _______ _______ _______ _____ _____    ______ ____
ROOT
ATOM      1  C   UNL     1      47.533   4.741  15.172  0.00  0.00    +0.000 A 
ATOM      2  C   UNL     1      47.675   6.049  14.702  0.00  0.00    +0.000 A 
ATOM      3  C   UNL     1      47.046   6.439  13.512  0.00  0.00    +0.000 A 
ATOM      4  C   UNL     1      46.266   5.538  12.783  0.00  0.00    +0.000 A 
ATOM      5  C   UNL     1      46.123   4.235  13.272  0.00  0.00    +0.000 A 
ATOM      6  C   UNL     1      46.764   3.829  14.445  0.00  0.00    +0.000 A 
ENDROOT
BRANCH   1   8
ATOM      7  N   UNL     1      47.957   5.002  17.558  0.00  0.00    +0.000 N 
ATOM      8  C   UNL     1      48.189   4.276  16.422  0.00  0.00    +0.000 C 
ATOM      9  O   UNL     1      48.873   3.262  16.453  0.00  0.00    +0.000 OA
ATOM     10  H   UNL     1      48.316   4.607  18.418  0.00  0.00    +0.000 HD
ATOM     11  H   UNL     1      47.206   5.672  17.625  0.00  0.00    +0.000 HD
ENDBRANCH   1   8
BRANCH   4  12
ATOM     12  N   UNL     1      45.513   5.888  11.638  0.00  0.00    +0.000 N 
ATOM     13  H   UNL     1      46.168   6.188  10.916  0.00  0.00    +0.000 HD
BRANCH  12  14
ATOM     14  C   UNL     1      44.432   5.017  11.092  0.00  0.00    +0.000 C 
ATOM     15  C   UNL     1      43.062   5.688  11.028  0.00  0.00    +0.000 C 
ATOM     16  C   UNL     1      43.287   4.556  11.975  0.00  0.00    +0.000 C 
BRANCH  14  17
ATOM     17  C   UNL     1      44.853   4.102   9.929  0.00  0.00    +0.000 A 
ATOM     18  C   UNL     1      45.533   4.610   8.820  0.00  0.00    +0.000 A 
ATOM     19  C   UNL     1      45.975   3.747   7.817  0.00  0.00    +0.000 A 
ATOM     20  C   UNL     1      45.740   2.385   7.940  0.00  0.00    +0.000 A 
ATOM     21  C   UNL     1      45.048   1.949   9.050  0.00  0.00    +0.000 A 
ATOM     22  N   UNL     1      44.597   2.767  10.024  0.00  0.00    +0.000 NA
ENDBRANCH  14  17
ENDBRANCH  12  14
ENDBRANCH   4  12
TORSDOF 4
ENDMDL
MODEL 3
REMARK VINA RESULT:    -5.643      3.276      5.254
REMARK INTER + INTRA:          -7.600
REMARK INTER:                  -7.036
REMARK INTRA:                  -0.564
REMARK UNBOUND:                -0.638
REMARK  Name = 
REMARK  4 active torsions:
REMARK  status: ('A' for Active; 'I' for Inactive)
REMARK    1  A    between atoms: C_2  and  C_4
REMARK    2  A    between atoms: C_7  and  N_8
REMARK    3  A    between atoms: N_8  and  C_9
REMARK    4  A    between atoms: C_9  and  C_10
REMARK                            x       y       z     vdW  Elec       q    Type
REMARK                         _______ _______ _______ _____ _____    ______ ____
ROOT
ATOM      1  C   UNL     1      44.710   4.075  11.461  0.00  0.00    +0.000 A 
ATOM      2  C   UNL     1      45.179   4.204  12.771  0.00  0.00    +0.000 A 
ATOM      3  C   UNL     1      45.851   5.369  13.163  0.00  0.00    +0.000 A 
ATOM      4  C   UNL     1      46.057   6.418  12.263  0.00  0.00    +0.000 A 
ATOM      5  C   UNL     1      45.570   6.280  10.958  0.00  0.00    +0.000 A 
ATOM      6  C   UNL     1      44.919   5.113  10.550  0.00  0.00    +0.000 A 
ENDROOT
BRANCH   1   8
ATOM      7  N   UNL     1      44.545   2.182   9.936  0.00  0.00    +0.000 N 
ATOM      8  C   UNL     1      44.001   2.856  10.994  0.00  0.00    +0.000 C 
ATOM      9  O   UNL     1      42.995   2.439  11.555  0.00  0.00    +0.000 OA
ATOM     10  H   UNL     1      44.115   1.294   9.706  0.00  0.00    +0.000 HD
ATOM     11  H   UNL     1      45.491   2.341   9.625  0.00  0.00    +0.000 HD
ENDBRANCH   1   8
BRANCH   4  12
ATOM     12  N   UNL     1      46.625   7.665  12.616  0.00  0.00    +0.000 N 
ATOM     13  H   UNL     1      46.074   8.050  13.383  0.00  0.00    +0.000 HD
BRANCH  12  14
ATOM     14  C   UNL     1      48.091   7.847  12.826  0.00  0.00    +0.000 C 
ATOM     15  C   UNL     1      48.735   8.859  11.881  0.00  0.00    +0.000 C 
ATOM     16  C   UNL     1      49.086   7.412  11.765  0.00  0.00    +0.000 C 
BRANCH  14  17
ATOM     17  C   UNL     1      48.550   7.821  14.293  0.00  0.00    +0.000 A 
ATOM     18  C   UNL     1      48.180   8.832  15.185  0.00  0.00    +0.000 A 
ATOM     19  C   UNL     1      48.542   8.744  16.528  0.00  0.00    +0.000 A 
ATOM     20  C   UNL     1      49.262   7.643  16.967  0.00  0.00    +0.000 A 
ATOM     21  C   UNL     1      49.613   6.689  16.036  0.00  0.00    +0.000 A 
ATOM     22  N   UNL     1      49.287   6.761  14.728  0.00  0.00    +0.000 NA
ENDBRANCH  14  17
ENDBRANCH  12  14
ENDBRANCH   4  12
TORSDOF 4
ENDMDL
MODEL 4
REMARK VINA RESULT:    -5.612      3.252      6.013
REMARK INTER + INTRA:          -7.562
REMARK INTER:                  -7.672
REMARK INTRA:                   0.109
REMARK UNBOUND:                -0.638
REMARK  Name = 
REMARK  4 active torsions:
REMARK  status: ('A' for Active; 'I' for Inactive)
REMARK    1  A    between atoms: C_2  and  C_4
REMARK    2  A    between atoms: C_7  and  N_8
REMARK    3  A    between atoms: N_8  and  C_9
REMARK    4  A    between atoms: C_9  and  C_10
REMARK                            x       y       z     vdW  Elec       q    Type
REMARK                         _______ _______ _______ _____ _____    ______ ____
ROOT
ATOM      1  C   UNL     1      46.614   8.653  12.120  0.00  0.00    +0.000 A 
ATOM      2  C   UNL     1      47.567   7.643  11.970  0.00  0.00    +0.000 A 
ATOM      3  C   UNL     1      47.189   6.299  12.096  0.00  0.00    +0.000 A 
ATOM      4  C   UNL     1      45.864   5.947  12.364  0.00  0.00    +0.000 A 
ATOM      5  C   UNL     1      44.918   6.969  12.500  0.00  0.00    +0.000 A 
ATOM      6  C   UNL     1      45.288   8.314  12.399  0.00  0.00    +0.000 A 
ENDROOT
BRANCH   1   8
ATOM      7  N   UNL     1      45.984  11.002  12.286  0.00  0.00    +0.000 N 
ATOM      8  C   UNL     1      46.966  10.093  12.007  0.00  0.00    +0.000 C 
ATOM      9  O   UNL     1      48.099  10.459  11.719  0.00  0.00    +0.000 OA
ATOM     10  H   UNL     1      46.272  11.972  12.316  0.00  0.00    +0.000 HD
ATOM     11  H   UNL     1      45.137  10.748  12.771  0.00  0.00    +0.000 HD
ENDBRANCH   1   8
BRANCH   4  12
ATOM     12  N   UNL     1      45.388   4.614  12.394  0.00  0.00    +0.000 N 
ATOM     13  H   UNL     1      45.105   4.408  13.352  0.00  0.00    +0.000 HD
BRANCH  12  14
ATOM     14  C   UNL     1      44.416   4.088  11.392  0.00  0.00    +0.000 C 
ATOM     15  C   UNL     1      43.042   4.753  11.448  0.00  0.00    +0.000 C 
ATOM     16  C   UNL     1      43.186   3.318  11.836  0.00  0.00    +0.000 C 
BRANCH  14  17
ATOM     17  C   UNL     1      45.011   3.755  10.014  0.00  0.00    +0.000 A 
ATOM     18  C   UNL     1      45.491   4.761   9.171  0.00  0.00    +0.000 A 
ATOM     19  C   UNL     1      46.100   4.427   7.962  0.00  0.00    +0.000 A 
ATOM     20  C   UNL     1      46.229   3.090   7.613  0.00  0.00    +0.000 A 
ATOM     21  C   UNL     1      45.719   2.146   8.478  0.00  0.00    +0.000 A 
ATOM     22  N   UNL     1      45.112   2.447   9.646  0.00  0.00    +0.000 NA
ENDBRANCH  14  17
ENDBRANCH  12  14
ENDBRANCH   4  12
TORSDOF 4
ENDMDL
MODEL 5
REMARK VINA RESULT:    -5.597      3.406      6.963
REMARK INTER + INTRA:          -7.543
REMARK INTER:                  -7.094
REMARK INTRA:                  -0.449
REMARK UNBOUND:                -0.638
REMARK  Name = 
REMARK  4 active torsions:
REMARK  status: ('A' for Active; 'I' for Inactive)
REMARK    1  A    between atoms: C_2  and  C_4
REMARK    2  A    between atoms: C_7  and  N_8
REMARK    3  A    between atoms: N_8  and  C_9
REMARK    4  A    between atoms: C_9  and  C_10
REMARK                            x       y       z     vdW  Elec       q    Type
REMARK                         _______ _______ _______ _____ _____    ______ ____
ROOT
ATOM      1  C   UNL     1      47.950   4.849  16.070  0.00  0.00    +0.000 A 
ATOM      2  C   UNL     1      47.156   3.970  15.328  0.00  0.00    +0.000 A 
ATOM      3  C   UNL     1      46.721   4.331  14.046  0.00  0.00    +0.000 A 
ATOM      4  C   UNL     1      47.075   5.561  13.487  0.00  0.00    +0.000 A 
ATOM      5  C   UNL     1      47.881   6.426  14.236  0.00  0.00    +0.000 A 
ATOM      6  C   UNL     1      48.301   6.086  15.525  0.00  0.00    +0.000 A 
ENDROOT
BRANCH   1   8
ATOM      7  N   UNL     1      47.551   4.708  18.470  0.00  0.00    +0.000 N 
ATOM      8  C   UNL     1      48.427   4.516  17.438  0.00  0.00    +0.000 C 
ATOM      9  O   UNL     1      49.541   4.048  17.636  0.00  0.00    +0.000 OA
ATOM     10  H   UNL     1      47.852   4.369  19.376  0.00  0.00    +0.000 HD
ATOM     11  H   UNL     1      46.562   4.837  18.321  0.00  0.00    +0.000 HD
ENDBRANCH   1   8
BRANCH   4  12
ATOM     12  N   UNL     1      46.768   5.947  12.160  0.00  0.00    +0.000 N 
ATOM     13  H   UNL     1      47.485   5.553  11.550  0.00  0.00    +0.000 HD
BRANCH  12  14
ATOM     14  C   UNL     1      45.399   5.812  11.583  0.00  0.00    +0.000 C 
ATOM     15  C   UNL     1      44.673   7.140  11.384  0.00  0.00    +0.000 C 
ATOM     16  C   UNL     1      44.174   6.169  12.403  0.00  0.00    +0.000 C 
BRANCH  14  17
ATOM     17  C   UNL     1      45.248   4.727  10.502  0.00  0.00    +0.000 A 
ATOM     18  C   UNL     1      44.671   3.489  10.797  0.00  0.00    +0.000 A 
ATOM     19  C   UNL     1      44.471   2.553   9.783  0.00  0.00    +0.000 A 
ATOM     20  C   UNL     1      44.842   2.870   8.485  0.00  0.00    +0.000 A 
ATOM     21  C   UNL     1      45.423   4.100   8.261  0.00  0.00    +0.000 A 
ATOM     22  N   UNL     1      45.640   5.015   9.230  0.00  0.00    +0.000 NA
ENDBRANCH  14  17
ENDBRANCH  12  14
ENDBRANCH   4  12
TORSDOF 4
ENDMDL
MODEL 6
REMARK VINA RESULT:    -5.456      4.869      8.002
REMARK INTER + INTRA:          -7.369
REMARK INTER:                  -6.714
REMARK INTRA:                  -0.655
REMARK UNBOUND:                -0.638
REMARK  Name = 
REMARK  4 active torsions:
REMARK  status: ('A' for Active; 'I' for Inactive)
REMARK    1  A    between atoms: C_2  and  C_4
REMARK    2  A    between atoms: C_7  and  N_8
REMARK    3  A    between atoms: N_8  and  C_9
REMARK    4  A    between atoms: C_9  and  C_10
REMARK                            x       y       z     vdW  Elec       q    Type
REMARK                         _______ _______ _______ _____ _____    ______ ____
ROOT
ATOM      1  C   UNL     1      48.208   4.978  17.863  0.00  0.00    +0.000 A 
ATOM      2  C   UNL     1      47.429   4.118  17.085  0.00  0.00    +0.000 A 
ATOM      3  C   UNL     1      47.250   4.377  15.719  0.00  0.00    +0.000 A 
ATOM      4  C   UNL     1      47.847   5.485  15.113  0.00  0.00    +0.000 A 
ATOM      5  C   UNL     1      48.635   6.330  15.902  0.00  0.00    +0.000 A 
ATOM      6  C   UNL     1      48.802   6.095  17.270  0.00  0.00    +0.000 A 
ENDROOT
BRANCH   1   8
ATOM      7  N   UNL     1      48.369   3.461  19.763  0.00  0.00    +0.000 N 
ATOM      8  C   UNL     1      48.420   4.752  19.317  0.00  0.00    +0.000 C 
ATOM      9  O   UNL     1      48.673   5.674  20.082  0.00  0.00    +0.000 OA
ATOM     10  H   UNL     1      48.629   3.316  20.731  0.00  0.00    +0.000 HD
ATOM     11  H   UNL     1      48.426   2.672  19.138  0.00  0.00    +0.000 HD
ENDBRANCH   1   8
BRANCH   4  12
ATOM     12  N   UNL     1      47.804   5.748  13.723  0.00  0.00    +0.000 N 
ATOM     13  H   UNL     1      48.110   4.904  13.239  0.00  0.00    +0.000 HD
BRANCH  12  14
ATOM     14  C   UNL     1      46.625   6.381  13.064  0.00  0.00    +0.000 C 
ATOM     15  C   UNL     1      46.986   7.396  11.982  0.00  0.00    +0.000 C 
ATOM     16  C   UNL     1      46.337   7.860  13.245  0.00  0.00    +0.000 C 
BRANCH  14  17
ATOM     17  C   UNL     1      45.431   5.443  12.817  0.00  0.00    +0.000 A 
ATOM     18  C   UNL     1      45.619   4.143  12.343  0.00  0.00    +0.000 A 
ATOM     19  C   UNL     1      44.528   3.286  12.204  0.00  0.00    +0.000 A 
ATOM     20  C   UNL     1      43.262   3.736  12.550  0.00  0.00    +0.000 A 
ATOM     21  C   UNL     1      43.140   5.035  12.995  0.00  0.00    +0.000 A 
ATOM     22  N   UNL     1      44.179   5.887  13.122  0.00  0.00    +0.000 NA
ENDBRANCH  14  17
ENDBRANCH  12  14
ENDBRANCH   4  12
TORSDOF 4
ENDMDL
MODEL 7
REMARK VINA RESULT:    -5.217      4.012      6.210
REMARK INTER + INTRA:          -7.075
REMARK INTER:                  -6.434
REMARK INTRA:                  -0.640
REMARK UNBOUND:                -0.638
REMARK  Name = 
REMARK  4 active torsions:
REMARK  status: ('A' for Active; 'I' for Inactive)
REMARK    1  A    between atoms: C_2  and  C_4
REMARK    2  A    between atoms: C_7  and  N_8
REMARK    3  A    between atoms: N_8  and  C_9
REMARK    4  A    between atoms: C_9  and  C_10
REMARK                            x       y       z     vdW  Elec       q    Type
REMARK                         _______ _______ _______ _____ _____    ______ ____
ROOT
ATOM      1  C   UNL     1      44.534   5.415  11.917  0.00  0.00    +0.000 A 
ATOM      2  C   UNL     1      45.330   6.201  11.080  0.00  0.00    +0.000 A 
ATOM      3  C   UNL     1      46.632   6.545  11.471  0.00  0.00    +0.000 A 
ATOM      4  C   UNL     1      47.156   6.106  12.689  0.00  0.00    +0.000 A 
ATOM      5  C   UNL     1      46.351   5.309  13.511  0.00  0.00    +0.000 A 
ATOM      6  C   UNL     1      45.044   4.980  13.143  0.00  0.00    +0.000 A 
ENDROOT
BRANCH   1   8
ATOM      7  N   UNL     1      42.176   5.988  11.694  0.00  0.00    +0.000 N 
ATOM      8  C   UNL     1      43.144   5.033  11.553  0.00  0.00    +0.000 C 
ATOM      9  O   UNL     1      42.877   3.927  11.102  0.00  0.00    +0.000 OA
ATOM     10  H   UNL     1      41.260   5.748  11.334  0.00  0.00    +0.000 HD
ATOM     11  H   UNL     1      42.395   6.966  11.808  0.00  0.00    +0.000 HD
ENDBRANCH   1   8
BRANCH   4  12
ATOM     12  N   UNL     1      48.494   6.317  13.099  0.00  0.00    +0.000 N 
ATOM     13  H   UNL     1      49.096   6.121  12.300  0.00  0.00    +0.000 HD
BRANCH  12  14
ATOM     14  C   UNL     1      48.920   7.539  13.842  0.00  0.00    +0.000 C 
ATOM     15  C   UNL     1      50.045   7.296  14.846  0.00  0.00    +0.000 C 
ATOM     16  C   UNL     1      48.682   7.660  15.336  0.00  0.00    +0.000 C 
BRANCH  14  17
ATOM     17  C   UNL     1      48.947   8.834  13.013  0.00  0.00    +0.000 A 
ATOM     18  C   UNL     1      49.744   8.945  11.871  0.00  0.00    +0.000 A 
ATOM     19  C   UNL     1      49.689  10.100  11.091  0.00  0.00    +0.000 A 
ATOM     20  C   UNL     1      48.832  11.127  11.458  0.00  0.00    +0.000 A 
ATOM     21  C   UNL     1      48.085  10.964  12.606  0.00  0.00    +0.000 A 
ATOM     22  N   UNL     1      48.134   9.862  13.384  0.00  0.00    +0.000 NA
ENDBRANCH  14  17
ENDBRANCH  12  14
ENDBRANCH   4  12
TORSDOF 4
ENDMDL
