MODEL 1
REMARK VINA RESULT:    -7.977      0.000      0.000
REMARK INTER + INTRA:         -11.321
REMARK INTER:                 -10.774
REMARK INTRA:                  -0.547
REMARK UNBOUND:                -0.547
REMARK  Name = 
REMARK  6 active torsions:
REMARK  status: ('A' for Active; 'I' for Inactive)
REMARK    1  A    between atoms: C_2  and  C_25
REMARK    2  A    between atoms: N_3  and  C_4
REMARK    3  A    between atoms: C_4  and  C_5
REMARK    4  A    between atoms: C_8  and  C_9
REMARK    5  A    between atoms: C_9  and  N_10
REMARK    6  A    between atoms: C_11  and  C_13
REMARK                            x       y       z     vdW  Elec       q    Type
REMARK                         _______ _______ _______ _____ _____    ______ ____
ROOT
ATOM      1  C   UNL     1      44.454   5.946  11.529  0.00  0.00    +0.000 A 
ATOM      2  C   UNL     1      44.452   7.337  11.415  0.00  0.00    +0.000 A 
ATOM      3  C   UNL     1      45.403   8.090  12.100  0.00  0.00    +0.000 A 
ATOM      4  C   UNL     1      46.320   7.435  12.918  0.00  0.00    +0.000 A 
ATOM      5  N   UNL     1      46.330   6.085  13.057  0.00  0.00    +0.000 NA
ATOM      6  C   UNL     1      45.410   5.378  12.362  0.00  0.00    +0.000 A 
ENDROOT
BRANCH   1   7
ATOM      7  C   UNL     1      43.457   5.093  10.805  0.00  0.00    +0.000 C 
BRANCH   7  10
ATOM      8  O   UNL     1      45.364   5.474   8.800  0.00  0.00    +0.000 OA
ATOM      9  C   UNL     1      45.033   4.333   9.091  0.00  0.00    +0.000 C 
ATOM     10  N   UNL     1      44.102   4.034  10.062  0.00  0.00    +0.000 N 
ATOM     11  H   UNL     1      44.034   3.091  10.423  0.00  0.00    +0.000 HD
BRANCH   9  12
ATOM     12  C   UNL     1      45.660   3.179   8.410  0.00  0.00    +0.000 A 
ATOM     13  C   UNL     1      45.500   1.907   8.948  0.00  0.00    +0.000 A 
ATOM     14  N   UNL     1      46.027   0.783   8.398  0.00  0.00    +0.000 NA
ATOM     15  C   UNL     1      46.761   0.946   7.271  0.00  0.00    +0.000 A 
ATOM     16  C   UNL     1      46.992   2.178   6.678  0.00  0.00    +0.000 A 
ATOM     17 BR   UNL     1      48.044   2.319   5.119  0.00  0.00    +0.000 Br
ATOM     18  C   UNL     1      46.436   3.317   7.256  0.00  0.00    +0.000 A 
ENDBRANCH   9  12
ENDBRANCH   7  10
ENDBRANCH   1   7
BRANCH   4  19
ATOM     19  C   UNL     1      47.366   8.218  13.672  0.00  0.00    +0.000 C 
BRANCH  19  20
ATOM     20  N   UNL     1      47.823   7.531  14.860  0.00  0.00    +0.000 N 
ATOM     21  C   UNL     1      49.090   7.028  14.981  0.00  0.00    +0.000 C 
ATOM     22  O   UNL     1      49.910   7.110  14.070  0.00  0.00    +0.000 OA
ATOM     23  H   UNL     1      47.102   7.262  15.523  0.00  0.00    +0.000 HD
BRANCH  21  24
ATOM     24  C   UNL     1      49.449   6.448  16.283  0.00  0.00    +0.000 A 
ATOM     25  C   UNL     1      50.457   7.034  17.038  0.00  0.00    +0.000 A 
ATOM     26  S   UNL     1      50.724   6.270  18.539  0.00  0.00    +0.000 S 
ATOM     27  C   UNL     1      49.532   5.101  18.217  0.00  0.00    +0.000 A 
ATOM     28  N   UNL     1      49.269   4.108  19.108  0.00  0.00    +0.000 NA
ATOM     29  C   UNL     1      48.366   3.269  18.723  0.00  0.00    +0.000 A 
ATOM     30  N   UNL     1      47.695   3.340  17.530  0.00  0.00    +0.000 N 
ATOM     31  C   UNL     1      47.887   4.356  16.624  0.00  0.00    +0.000 A 
ATOM     32  O   UNL     1      47.207   4.440  15.608  0.00  0.00    +0.000 OA
ATOM     33  C   UNL     1      48.920   5.306  16.992  0.00  0.00    +0.000 A 
ATOM     34  H   UNL     1      46.983   2.664  17.294  0.00  0.00    +0.000 HD
ENDBRANCH  21  24
ENDBRANCH  19  20
ENDBRANCH   4  19
TORSDOF 6
ENDMDL
MODEL 2
REMARK VINA RESULT:    -7.808      5.683      9.802
REMARK INTER + INTRA:         -11.094
REMARK INTER:                 -10.275
REMARK INTRA:                  -0.818
REMARK UNBOUND:                -0.547
REMARK  Name = 
REMARK  6 active torsions:
REMARK  status: ('A' for Active; 'I' for Inactive)
REMARK    1  A    between atoms: C_2  and  C_25
REMARK    2  A    between atoms: N_3  and  C_4
REMARK    3  A    between atoms: C_4  and  C_5
REMARK    4  A    between atoms: C_8  and  C_9
REMARK    5  A    between atoms: C_9  and  N_10
REMARK    6  A    between atoms: C_11  and  C_13
REMARK                            x       y       z     vdW  Elec       q    Type
REMARK                         _______ _______ _______ _____ _____    ______ ____
ROOT
ATOM      1  C   UNL     1      51.377   3.133  17.676  0.00  0.00    +0.000 A 
ATOM      2  C   UNL     1      50.707   4.308  18.020  0.00  0.00    +0.000 A 
ATOM      3  C   UNL     1      49.339   4.422  17.781  0.00  0.00    +0.000 A 
ATOM      4  C   UNL     1      48.673   3.365  17.167  0.00  0.00    +0.000 A 
ATOM      5  N   UNL     1      49.306   2.219  16.809  0.00  0.00    +0.000 NA
ATOM      6  C   UNL     1      50.629   2.128  17.074  0.00  0.00    +0.000 A 
ENDROOT
BRANCH   1   7
ATOM      7  C   UNL     1      52.845   2.960  17.921  0.00  0.00    +0.000 C 
BRANCH   7  10
ATOM      8  O   UNL     1      54.272   1.150  19.498  0.00  0.00    +0.000 OA
ATOM      9  C   UNL     1      54.006   0.846  18.344  0.00  0.00    +0.000 C 
ATOM     10  N   UNL     1      53.309   1.664  17.481  0.00  0.00    +0.000 N 
ATOM     11  H   UNL     1      52.918   1.284  16.629  0.00  0.00    +0.000 HD
BRANCH   9  12
ATOM     12  C   UNL     1      54.411  -0.473  17.809  0.00  0.00    +0.000 A 
ATOM     13  C   UNL     1      54.724  -0.588  16.459  0.00  0.00    +0.000 A 
ATOM     14  N   UNL     1      55.112  -1.750  15.872  0.00  0.00    +0.000 NA
ATOM     15  C   UNL     1      55.170  -2.843  16.668  0.00  0.00    +0.000 A 
ATOM     16  C   UNL     1      54.854  -2.826  18.019  0.00  0.00    +0.000 A 
ATOM     17 BR   UNL     1      54.941  -4.401  19.052  0.00  0.00    +0.000 Br
ATOM     18  C   UNL     1      54.465  -1.623  18.602  0.00  0.00    +0.000 A 
ENDBRANCH   9  12
ENDBRANCH   7  10
ENDBRANCH   1   7
BRANCH   4  19
ATOM     19  C   UNL     1      47.190   3.452  16.897  0.00  0.00    +0.000 C 
BRANCH  19  20
ATOM     20  N   UNL     1      46.867   4.451  15.902  0.00  0.00    +0.000 N 
ATOM     21  C   UNL     1      46.910   4.196  14.558  0.00  0.00    +0.000 C 
ATOM     22  O   UNL     1      47.253   3.102  14.116  0.00  0.00    +0.000 OA
ATOM     23  H   UNL     1      46.799   5.407  16.238  0.00  0.00    +0.000 HD
BRANCH  21  24
ATOM     24  C   UNL     1      46.453   5.272  13.666  0.00  0.00    +0.000 A 
ATOM     25  C   UNL     1      47.285   6.358  13.425  0.00  0.00    +0.000 A 
ATOM     26  S   UNL     1      46.630   7.497  12.338  0.00  0.00    +0.000 S 
ATOM     27  C   UNL     1      45.191   6.602  12.184  0.00  0.00    +0.000 A 
ATOM     28  N   UNL     1      44.173   7.047  11.400  0.00  0.00    +0.000 NA
ATOM     29  C   UNL     1      43.128   6.290  11.401  0.00  0.00    +0.000 A 
ATOM     30  N   UNL     1      43.013   5.121  12.108  0.00  0.00    +0.000 N 
ATOM     31  C   UNL     1      44.035   4.604  12.868  0.00  0.00    +0.000 A 
ATOM     32  O   UNL     1      43.933   3.512  13.415  0.00  0.00    +0.000 OA
ATOM     33  C   UNL     1      45.222   5.437  12.931  0.00  0.00    +0.000 A 
ATOM     34  H   UNL     1      42.175   4.561  12.051  0.00  0.00    +0.000 HD
ENDBRANCH  21  24
ENDBRANCH  19  20
ENDBRANCH   4  19
TORSDOF 6
ENDMDL
MODEL 3
REMARK VINA RESULT:    -7.567      1.550      1.880
REMARK INTER + INTRA:         -10.768
REMARK INTER:                  -9.699
REMARK INTRA:                  -1.069
REMARK UNBOUND:                -0.547
REMARK  Name = 
REMARK  6 active torsions:
REMARK  status: ('A' for Active; 'I' for Inactive)
REMARK    1  A    between atoms: C_2  and  C_25
REMARK    2  A    between atoms: N_3  and  C_4
REMARK    3  A    between atoms: C_4  and  C_5
REMARK    4  A    between atoms: C_8  and  C_9
REMARK    5  A    between atoms: C_9  and  N_10
REMARK    6  A    between atoms: C_11  and  C_13
REMARK                            x       y       z     vdW  Elec       q    Type
REMARK                         _______ _______ _______ _____ _____    ______ ____
ROOT
ATOM      1  C   UNL     1      45.967   7.217  11.808  0.00  0.00    +0.000 A 
ATOM      2  C   UNL     1      47.234   6.646  11.938  0.00  0.00    +0.000 A 
ATOM      3  C   UNL     1      48.166   7.214  12.805  0.00  0.00    +0.000 A 
ATOM      4  C   UNL     1      47.820   8.368  13.502  0.00  0.00    +0.000 A 
ATOM      5  N   UNL     1      46.600   8.951  13.379  0.00  0.00    +0.000 NA
ATOM      6  C   UNL     1      45.708   8.365  12.548  0.00  0.00    +0.000 A 
ENDROOT
BRANCH   1   7
ATOM      7  C   UNL     1      44.930   6.638  10.895  0.00  0.00    +0.000 C 
BRANCH   7  10
ATOM      8  O   UNL     1      43.397   4.553   9.845  0.00  0.00    +0.000 OA
ATOM      9  C   UNL     1      44.605   4.549   9.658  0.00  0.00    +0.000 C 
ATOM     10  N   UNL     1      45.453   5.527  10.132  0.00  0.00    +0.000 N 
ATOM     11  H   UNL     1      46.392   5.604   9.763  0.00  0.00    +0.000 HD
BRANCH   9  12
ATOM     12  C   UNL     1      45.233   3.471   8.862  0.00  0.00    +0.000 A 
ATOM     13  C   UNL     1      45.160   2.161   9.322  0.00  0.00    +0.000 A 
ATOM     14  N   UNL     1      45.695   1.100   8.664  0.00  0.00    +0.000 NA
ATOM     15  C   UNL     1      46.347   1.369   7.507  0.00  0.00    +0.000 A 
ATOM     16  C   UNL     1      46.489   2.646   6.986  0.00  0.00    +0.000 A 
ATOM     17 BR   UNL     1      47.430   2.935   5.378  0.00  0.00    +0.000 Br
ATOM     18  C   UNL     1      45.925   3.718   7.673  0.00  0.00    +0.000 A 
ENDBRANCH   9  12
ENDBRANCH   7  10
ENDBRANCH   1   7
BRANCH   4  19
ATOM     19  C   UNL     1      48.802   9.009  14.453  0.00  0.00    +0.000 C 
BRANCH  19  20
ATOM     20  N   UNL     1      49.114   8.159  15.581  0.00  0.00    +0.000 N 
ATOM     21  C   UNL     1      48.585   8.362  16.827  0.00  0.00    +0.000 C 
ATOM     22  O   UNL     1      47.828   9.300  17.065  0.00  0.00    +0.000 OA
ATOM     23  H   UNL     1      49.897   7.525  15.456  0.00  0.00    +0.000 HD
BRANCH  21  24
ATOM     24  C   UNL     1      48.907   7.359  17.852  0.00  0.00    +0.000 A 
ATOM     25  C   UNL     1      49.352   7.776  19.100  0.00  0.00    +0.000 A 
ATOM     26  S   UNL     1      49.640   6.497  20.190  0.00  0.00    +0.000 S 
ATOM     27  C   UNL     1      49.223   5.335  19.019  0.00  0.00    +0.000 A 
ATOM     28  N   UNL     1      49.283   4.006  19.303  0.00  0.00    +0.000 NA
ATOM     29  C   UNL     1      48.973   3.235  18.314  0.00  0.00    +0.000 A 
ATOM     30  N   UNL     1      48.598   3.674  17.071  0.00  0.00    +0.000 N 
ATOM     31  C   UNL     1      48.469   5.006  16.756  0.00  0.00    +0.000 A 
ATOM     32  O   UNL     1      48.046   5.364  15.664  0.00  0.00    +0.000 OA
ATOM     33  C   UNL     1      48.843   5.917  17.822  0.00  0.00    +0.000 A 
ATOM     34  H   UNL     1      48.347   3.020  16.344  0.00  0.00    +0.000 HD
ENDBRANCH  21  24
ENDBRANCH  19  20
ENDBRANCH   4  19
TORSDOF 6
ENDMDL
MODEL 4
REMARK VINA RESULT:    -7.460      4.607      8.924
REMARK INTER + INTRA:         -10.623
REMARK INTER:                  -9.505
REMARK INTRA:                  -1.118
REMARK UNBOUND:                -0.547
REMARK  Name = 
REMARK  6 active torsions:
REMARK  status: ('A' for Active; 'I' for Inactive)
REMARK    1  A    between atoms: C_2  and  C_25
REMARK    2  A    between atoms: N_3  and  C_4
REMARK    3  A    between atoms: C_4  and  C_5
REMARK    4  A    between atoms: C_8  and  C_9
REMARK    5  A    between atoms: C_9  and  N_10
REMARK    6  A    between atoms: C_11  and  C_13
REMARK                            x       y       z     vdW  Elec       q    Type
REMARK                         _______ _______ _______ _____ _____    ______ ____
ROOT
ATOM      1  C   UNL     1      49.634   4.640  17.539  0.00  0.00    +0.000 A 
ATOM      2  C   UNL     1      50.374   5.790  17.257  0.00  0.00    +0.000 A 
ATOM      3  C   UNL     1      49.954   6.654  16.248  0.00  0.00    +0.000 A 
ATOM      4  C   UNL     1      48.816   6.331  15.514  0.00  0.00    +0.000 A 
ATOM      5  N   UNL     1      48.090   5.210  15.759  0.00  0.00    +0.000 NA
ATOM      6  C   UNL     1      48.508   4.402  16.759  0.00  0.00    +0.000 A 
ENDROOT
BRANCH   1   7
ATOM      7  C   UNL     1      50.040   3.685  18.619  0.00  0.00    +0.000 C 
BRANCH   7  10
ATOM      8  O   UNL     1      50.764   1.380  17.218  0.00  0.00    +0.000 OA
ATOM      9  C   UNL     1      51.643   2.064  17.723  0.00  0.00    +0.000 C 
ATOM     10  N   UNL     1      51.396   3.218  18.435  0.00  0.00    +0.000 N 
ATOM     11  H   UNL     1      52.151   3.863  18.631  0.00  0.00    +0.000 HD
BRANCH   9  12
ATOM     12  C   UNL     1      53.065   1.687  17.564  0.00  0.00    +0.000 A 
ATOM     13  C   UNL     1      54.045   2.661  17.724  0.00  0.00    +0.000 A 
ATOM     14  N   UNL     1      55.376   2.418  17.606  0.00  0.00    +0.000 NA
ATOM     15  C   UNL     1      55.736   1.149  17.296  0.00  0.00    +0.000 A 
ATOM     16  C   UNL     1      54.827   0.121  17.096  0.00  0.00    +0.000 A 
ATOM     17 BR   UNL     1      55.413  -1.614  16.646  0.00  0.00    +0.000 Br
ATOM     18  C   UNL     1      53.468   0.391  17.229  0.00  0.00    +0.000 A 
ENDBRANCH   9  12
ENDBRANCH   7  10
ENDBRANCH   1   7
BRANCH   4  19
ATOM     19  C   UNL     1      48.330   7.246  14.417  0.00  0.00    +0.000 C 
BRANCH  19  20
ATOM     20  N   UNL     1      47.064   6.821  13.862  0.00  0.00    +0.000 N 
ATOM     21  C   UNL     1      46.796   6.860  12.520  0.00  0.00    +0.000 C 
ATOM     22  O   UNL     1      47.612   7.287  11.707  0.00  0.00    +0.000 OA
ATOM     23  H   UNL     1      46.312   6.679  14.529  0.00  0.00    +0.000 HD
BRANCH  21  24
ATOM     24  C   UNL     1      45.508   6.298  12.088  0.00  0.00    +0.000 A 
ATOM     25  C   UNL     1      44.548   7.136  11.535  0.00  0.00    +0.000 A 
ATOM     26  S   UNL     1      43.129   6.326  11.045  0.00  0.00    +0.000 S 
ATOM     27  C   UNL     1      43.728   4.832  11.595  0.00  0.00    +0.000 A 
ATOM     28  N   UNL     1      42.979   3.701  11.497  0.00  0.00    +0.000 NA
ATOM     29  C   UNL     1      43.541   2.645  11.984  0.00  0.00    +0.000 A 
ATOM     30  N   UNL     1      44.788   2.616  12.550  0.00  0.00    +0.000 N 
ATOM     31  C   UNL     1      45.603   3.721  12.620  0.00  0.00    +0.000 A 
ATOM     32  O   UNL     1      46.747   3.643  13.051  0.00  0.00    +0.000 OA
ATOM     33  C   UNL     1      45.004   4.945  12.120  0.00  0.00    +0.000 A 
ATOM     34  H   UNL     1      45.182   1.753  12.895  0.00  0.00    +0.000 HD
ENDBRANCH  21  24
ENDBRANCH  19  20
ENDBRANCH   4  19
TORSDOF 6
ENDMDL
MODEL 5
REMARK VINA RESULT:    -7.444      1.689      1.999
REMARK INTER + INTRA:         -10.602
REMARK INTER:                  -9.690
REMARK INTRA:                  -0.912
REMARK UNBOUND:                -0.547
REMARK  Name = 
REMARK  6 active torsions:
REMARK  status: ('A' for Active; 'I' for Inactive)
REMARK    1  A    between atoms: C_2  and  C_25
REMARK    2  A    between atoms: N_3  and  C_4
REMARK    3  A    between atoms: C_4  and  C_5
REMARK    4  A    between atoms: C_8  and  C_9
REMARK    5  A    between atoms: C_9  and  N_10
REMARK    6  A    between atoms: C_11  and  C_13
REMARK                            x       y       z     vdW  Elec       q    Type
REMARK                         _______ _______ _______ _____ _____    ______ ____
ROOT
ATOM      1  C   UNL     1      45.876   6.838  12.018  0.00  0.00    +0.000 A 
ATOM      2  C   UNL     1      46.715   5.967  12.717  0.00  0.00    +0.000 A 
ATOM      3  C   UNL     1      47.577   6.467  13.691  0.00  0.00    +0.000 A 
ATOM      4  C   UNL     1      47.607   7.839  13.924  0.00  0.00    +0.000 A 
ATOM      5  N   UNL     1      46.812   8.707  13.246  0.00  0.00    +0.000 NA
ATOM      6  C   UNL     1      45.970   8.191  12.322  0.00  0.00    +0.000 A 
ENDROOT
BRANCH   1   7
ATOM      7  C   UNL     1      44.928   6.347  10.968  0.00  0.00    +0.000 C 
BRANCH   7  10
ATOM      8  O   UNL     1      43.459   4.436   9.557  0.00  0.00    +0.000 OA
ATOM      9  C   UNL     1      44.681   4.376   9.536  0.00  0.00    +0.000 C 
ATOM     10  N   UNL     1      45.499   5.266  10.197  0.00  0.00    +0.000 N 
ATOM     11  H   UNL     1      46.483   5.316   9.966  0.00  0.00    +0.000 HD
BRANCH   9  12
ATOM     12  C   UNL     1      45.362   3.324   8.749  0.00  0.00    +0.000 A 
ATOM     13  C   UNL     1      45.315   2.008   9.197  0.00  0.00    +0.000 A 
ATOM     14  N   UNL     1      45.900   0.969   8.546  0.00  0.00    +0.000 NA
ATOM     15  C   UNL     1      46.575   1.267   7.410  0.00  0.00    +0.000 A 
ATOM     16  C   UNL     1      46.693   2.552   6.903  0.00  0.00    +0.000 A 
ATOM     17 BR   UNL     1      47.670   2.883   5.324  0.00  0.00    +0.000 Br
ATOM     18  C   UNL     1      46.079   3.602   7.583  0.00  0.00    +0.000 A 
ENDBRANCH   9  12
ENDBRANCH   7  10
ENDBRANCH   1   7
BRANCH   4  19
ATOM     19  C   UNL     1      48.524   8.415  14.975  0.00  0.00    +0.000 C 
BRANCH  19  20
ATOM     20  N   UNL     1      49.482   7.448  15.463  0.00  0.00    +0.000 N 
ATOM     21  C   UNL     1      49.494   7.011  16.761  0.00  0.00    +0.000 C 
ATOM     22  O   UNL     1      48.702   7.439  17.596  0.00  0.00    +0.000 OA
ATOM     23  H   UNL     1      50.271   7.256  14.853  0.00  0.00    +0.000 HD
BRANCH  21  24
ATOM     24  C   UNL     1      50.455   5.949  17.091  0.00  0.00    +0.000 A 
ATOM     25  C   UNL     1      51.767   6.286  17.397  0.00  0.00    +0.000 A 
ATOM     26  S   UNL     1      52.744   4.947  17.799  0.00  0.00    +0.000 S 
ATOM     27  C   UNL     1      51.460   3.863  17.536  0.00  0.00    +0.000 A 
ATOM     28  N   UNL     1      51.636   2.523  17.684  0.00  0.00    +0.000 NA
ATOM     29  C   UNL     1      50.590   1.814  17.420  0.00  0.00    +0.000 A 
ATOM     30  N   UNL     1      49.379   2.326  17.031  0.00  0.00    +0.000 N 
ATOM     31  C   UNL     1      49.139   3.675  16.922  0.00  0.00    +0.000 A 
ATOM     32  O   UNL     1      48.021   4.104  16.660  0.00  0.00    +0.000 OA
ATOM     33  C   UNL     1      50.295   4.516  17.173  0.00  0.00    +0.000 A 
ATOM     34  H   UNL     1      48.591   1.719  16.858  0.00  0.00    +0.000 HD
ENDBRANCH  21  24
ENDBRANCH  19  20
ENDBRANCH   4  19
TORSDOF 6
ENDMDL
MODEL 6
REMARK VINA RESULT:    -7.107      4.073      4.998
REMARK INTER + INTRA:         -10.146
REMARK INTER:                  -9.077
REMARK INTRA:                  -1.069
REMARK UNBOUND:                -0.547
REMARK  Name = 
REMARK  6 active torsions:
REMARK  status: ('A' for Active; 'I' for Inactive)
REMARK    1  A    between atoms: C_2  and  C_25
REMARK    2  A    between atoms: N_3  and  C_4
REMARK    3  A    between atoms: C_4  and  C_5
REMARK    4  A    between atoms: C_8  and  C_9
REMARK    5  A    between atoms: C_9  and  N_10
REMARK    6  A    between atoms: C_11  and  C_13
REMARK                            x       y       z     vdW  Elec       q    Type
REMARK                         _______ _______ _______ _____ _____    ______ ____
ROOT
ATOM      1  C   UNL     1      44.456   5.322  11.798  0.00  0.00    +0.000 A 
ATOM      2  C   UNL     1      45.715   5.397  12.397  0.00  0.00    +0.000 A 
ATOM      3  C   UNL     1      46.286   6.640  12.658  0.00  0.00    +0.000 A 
ATOM      4  C   UNL     1      45.598   7.790  12.281  0.00  0.00    +0.000 A 
ATOM      5  N   UNL     1      44.380   7.743  11.683  0.00  0.00    +0.000 NA
ATOM      6  C   UNL     1      43.840   6.523  11.462  0.00  0.00    +0.000 A 
ENDROOT
BRANCH   1   7
ATOM      7  C   UNL     1      43.798   4.009  11.505  0.00  0.00    +0.000 C 
BRANCH   7  10
ATOM      8  O   UNL     1      43.992   4.397   8.746  0.00  0.00    +0.000 OA
ATOM      9  C   UNL     1      44.620   3.481   9.259  0.00  0.00    +0.000 C 
ATOM     10  N   UNL     1      44.595   3.202  10.608  0.00  0.00    +0.000 N 
ATOM     11  H   UNL     1      45.297   2.596  11.012  0.00  0.00    +0.000 HD
BRANCH   9  12
ATOM     12  C   UNL     1      45.490   2.618   8.430  0.00  0.00    +0.000 A 
ATOM     13  C   UNL     1      45.645   1.281   8.778  0.00  0.00    +0.000 A 
ATOM     14  N   UNL     1      46.413   0.404   8.081  0.00  0.00    +0.000 NA
ATOM     15  C   UNL     1      47.067   0.895   7.002  0.00  0.00    +0.000 A 
ATOM     16  C   UNL     1      46.990   2.219   6.595  0.00  0.00    +0.000 A 
ATOM     17 BR   UNL     1      47.951   2.826   5.090  0.00  0.00    +0.000 Br
ATOM     18  C   UNL     1      46.190   3.099   7.320  0.00  0.00    +0.000 A 
ENDBRANCH   9  12
ENDBRANCH   7  10
ENDBRANCH   1   7
BRANCH   4  19
ATOM     19  C   UNL     1      46.184   9.154  12.552  0.00  0.00    +0.000 C 
BRANCH  19  20
ATOM     20  N   UNL     1      47.427   9.373  11.847  0.00  0.00    +0.000 N 
ATOM     21  C   UNL     1      48.454  10.110  12.372  0.00  0.00    +0.000 C 
ATOM     22  O   UNL     1      48.367  10.655  13.469  0.00  0.00    +0.000 OA
ATOM     23  H   UNL     1      47.430   9.122  10.863  0.00  0.00    +0.000 HD
BRANCH  21  24
ATOM     24  C   UNL     1      49.698  10.160  11.590  0.00  0.00    +0.000 A 
ATOM     25  C   UNL     1      50.153  11.380  11.106  0.00  0.00    +0.000 A 
ATOM     26  S   UNL     1      51.629  11.276  10.258  0.00  0.00    +0.000 S 
ATOM     27  C   UNL     1      51.692   9.589  10.467  0.00  0.00    +0.000 A 
ATOM     28  N   UNL     1      52.713   8.859   9.946  0.00  0.00    +0.000 NA
ATOM     29  C   UNL     1      52.619   7.588  10.149  0.00  0.00    +0.000 A 
ATOM     30  N   UNL     1      51.601   6.982  10.837  0.00  0.00    +0.000 N 
ATOM     31  C   UNL     1      50.577   7.684  11.429  0.00  0.00    +0.000 A 
ATOM     32  O   UNL     1      49.731   7.121  12.113  0.00  0.00    +0.000 OA
ATOM     33  C   UNL     1      50.616   9.116  11.198  0.00  0.00    +0.000 A 
ATOM     34  H   UNL     1      51.594   5.982  10.980  0.00  0.00    +0.000 HD
ENDBRANCH  21  24
ENDBRANCH  19  20
ENDBRANCH   4  19
TORSDOF 6
ENDMDL
MODEL 7
REMARK VINA RESULT:    -7.078      5.819      9.927
REMARK INTER + INTRA:         -10.108
REMARK INTER:                  -9.080
REMARK INTRA:                  -1.027
REMARK UNBOUND:                -0.547
REMARK  Name = 
REMARK  6 active torsions:
REMARK  status: ('A' for Active; 'I' for Inactive)
REMARK    1  A    between atoms: C_2  and  C_25
REMARK    2  A    between atoms: N_3  and  C_4
REMARK    3  A    between atoms: C_4  and  C_5
REMARK    4  A    between atoms: C_8  and  C_9
REMARK    5  A    between atoms: C_9  and  N_10
REMARK    6  A    between atoms: C_11  and  C_13
REMARK                            x       y       z     vdW  Elec       q    Type
REMARK                         _______ _______ _______ _____ _____    ______ ____
ROOT
ATOM      1  C   UNL     1      51.383   2.765  17.779  0.00  0.00    +0.000 A 
ATOM      2  C   UNL     1      50.822   3.966  18.216  0.00  0.00    +0.000 A 
ATOM      3  C   UNL     1      49.492   4.259  17.920  0.00  0.00    +0.000 A 
ATOM      4  C   UNL     1      48.756   3.354  17.161  0.00  0.00    +0.000 A 
ATOM      5  N   UNL     1      49.284   2.186  16.712  0.00  0.00    +0.000 NA
ATOM      6  C   UNL     1      50.570   1.919  17.033  0.00  0.00    +0.000 A 
ENDROOT
BRANCH   1   7
ATOM      7  C   UNL     1      52.805   2.402  18.079  0.00  0.00    +0.000 C 
BRANCH   7  10
ATOM      8  O   UNL     1      55.291   1.134  18.172  0.00  0.00    +0.000 OA
ATOM      9  C   UNL     1      54.281   0.448  18.101  0.00  0.00    +0.000 C 
ATOM     10  N   UNL     1      53.007   0.971  18.049  0.00  0.00    +0.000 N 
ATOM     11  H   UNL     1      52.208   0.375  18.223  0.00  0.00    +0.000 HD
BRANCH   9  12
ATOM     12  C   UNL     1      54.382  -1.028  18.096  0.00  0.00    +0.000 A 
ATOM     13  C   UNL     1      55.033  -1.658  17.041  0.00  0.00    +0.000 A 
ATOM     14  N   UNL     1      55.186  -3.003  16.945  0.00  0.00    +0.000 NA
ATOM     15  C   UNL     1      54.646  -3.748  17.939  0.00  0.00    +0.000 A 
ATOM     16  C   UNL     1      53.960  -3.207  19.017  0.00  0.00    +0.000 A 
ATOM     17 BR   UNL     1      53.220  -4.319  20.349  0.00  0.00    +0.000 Br
ATOM     18  C   UNL     1      53.821  -1.824  19.099  0.00  0.00    +0.000 A 
ENDBRANCH   9  12
ENDBRANCH   7  10
ENDBRANCH   1   7
BRANCH   4  19
ATOM     19  C   UNL     1      47.312   3.635  16.825  0.00  0.00    +0.000 C 
BRANCH  19  20
ATOM     20  N   UNL     1      47.168   4.658  15.812  0.00  0.00    +0.000 N 
ATOM     21  C   UNL     1      47.111   4.370  14.475  0.00  0.00    +0.000 C 
ATOM     22  O   UNL     1      47.205   3.220  14.055  0.00  0.00    +0.000 OA
ATOM     23  H   UNL     1      47.311   5.614  16.123  0.00  0.00    +0.000 HD
BRANCH  21  24
ATOM     24  C   UNL     1      46.857   5.498  13.567  0.00  0.00    +0.000 A 
ATOM     25  C   UNL     1      45.734   5.477  12.750  0.00  0.00    +0.000 A 
ATOM     26  S   UNL     1      45.558   6.875  11.789  0.00  0.00    +0.000 S 
ATOM     27  C   UNL     1      47.001   7.540  12.397  0.00  0.00    +0.000 A 
ATOM     28  N   UNL     1      47.455   8.743  11.956  0.00  0.00    +0.000 NA
ATOM     29  C   UNL     1      48.579   9.112  12.475  0.00  0.00    +0.000 A 
ATOM     30  N   UNL     1      49.283   8.391  13.403  0.00  0.00    +0.000 N 
ATOM     31  C   UNL     1      48.836   7.198  13.919  0.00  0.00    +0.000 A 
ATOM     32  O   UNL     1      49.445   6.622  14.813  0.00  0.00    +0.000 OA
ATOM     33  C   UNL     1      47.594   6.718  13.341  0.00  0.00    +0.000 A 
ATOM     34  H   UNL     1      50.148   8.744  13.787  0.00  0.00    +0.000 HD
ENDBRANCH  21  24
ENDBRANCH  19  20
ENDBRANCH   4  19
TORSDOF 6
ENDMDL
MODEL 8
REMARK VINA RESULT:    -6.975      2.300      3.087
REMARK INTER + INTRA:          -9.968
REMARK INTER:                  -9.073
REMARK INTRA:                  -0.895
REMARK UNBOUND:                -0.547
REMARK  Name = 
REMARK  6 active torsions:
REMARK  status: ('A' for Active; 'I' for Inactive)
REMARK    1  A    between atoms: C_2  and  C_25
REMARK    2  A    between atoms: N_3  and  C_4
REMARK    3  A    between atoms: C_4  and  C_5
REMARK    4  A    between atoms: C_8  and  C_9
REMARK    5  A    between atoms: C_9  and  N_10
REMARK    6  A    between atoms: C_11  and  C_13
REMARK                            x       y       z     vdW  Elec       q    Type
REMARK                         _______ _______ _______ _____ _____    ______ ____
ROOT
ATOM      1  C   UNL     1      45.965   7.773  12.351  0.00  0.00    +0.000 A 
ATOM      2  C   UNL     1      46.219   9.033  12.897  0.00  0.00    +0.000 A 
ATOM      3  C   UNL     1      47.309   9.214  13.745  0.00  0.00    +0.000 A 
ATOM      4  C   UNL     1      48.109   8.117  14.058  0.00  0.00    +0.000 A 
ATOM      5  N   UNL     1      47.872   6.880  13.551  0.00  0.00    +0.000 NA
ATOM      6  C   UNL     1      46.820   6.739  12.713  0.00  0.00    +0.000 A 
ENDROOT
BRANCH   1   7
ATOM      7  C   UNL     1      44.810   7.532  11.428  0.00  0.00    +0.000 C 
BRANCH   7  10
ATOM      8  O   UNL     1      43.735   5.001  11.919  0.00  0.00    +0.000 OA
ATOM      9  C   UNL     1      44.443   5.161  10.935  0.00  0.00    +0.000 C 
ATOM     10  N   UNL     1      45.024   6.365  10.601  0.00  0.00    +0.000 N 
ATOM     11  H   UNL     1      45.402   6.504   9.673  0.00  0.00    +0.000 HD
BRANCH   9  12
ATOM     12  C   UNL     1      44.697   4.035  10.009  0.00  0.00    +0.000 A 
ATOM     13  C   UNL     1      44.134   2.793  10.284  0.00  0.00    +0.000 A 
ATOM     14  N   UNL     1      44.299   1.700   9.497  0.00  0.00    +0.000 NA
ATOM     15  C   UNL     1      45.076   1.854   8.398  0.00  0.00    +0.000 A 
ATOM     16  C   UNL     1      45.696   3.048   8.059  0.00  0.00    +0.000 A 
ATOM     17 BR   UNL     1      46.780   3.171   6.521  0.00  0.00    +0.000 Br
ATOM     18  C   UNL     1      45.507   4.159   8.877  0.00  0.00    +0.000 A 
ENDBRANCH   9  12
ENDBRANCH   7  10
ENDBRANCH   1   7
BRANCH   4  19
ATOM     19  C   UNL     1      49.301   8.277  14.969  0.00  0.00    +0.000 C 
BRANCH  19  20
ATOM     20  N   UNL     1      49.764   7.014  15.501  0.00  0.00    +0.000 N 
ATOM     21  C   UNL     1      49.370   6.537  16.722  0.00  0.00    +0.000 C 
ATOM     22  O   UNL     1      48.614   7.172  17.453  0.00  0.00    +0.000 OA
ATOM     23  H   UNL     1      50.549   6.590  15.016  0.00  0.00    +0.000 HD
BRANCH  21  24
ATOM     24  C   UNL     1      49.836   5.192  17.087  0.00  0.00    +0.000 A 
ATOM     25  C   UNL     1      48.913   4.163  17.225  0.00  0.00    +0.000 A 
ATOM     26  S   UNL     1      49.616   2.657  17.609  0.00  0.00    +0.000 S 
ATOM     27  C   UNL     1      51.176   3.335  17.650  0.00  0.00    +0.000 A 
ATOM     28  N   UNL     1      52.260   2.573  17.954  0.00  0.00    +0.000 NA
ATOM     29  C   UNL     1      53.376   3.220  17.984  0.00  0.00    +0.000 A 
ATOM     30  N   UNL     1      53.508   4.560  17.725  0.00  0.00    +0.000 N 
ATOM     31  C   UNL     1      52.450   5.357  17.360  0.00  0.00    +0.000 A 
ATOM     32  O   UNL     1      52.615   6.531  17.048  0.00  0.00    +0.000 OA
ATOM     33  C   UNL     1      51.163   4.686  17.348  0.00  0.00    +0.000 A 
ATOM     34  H   UNL     1      54.413   5.005  17.745  0.00  0.00    +0.000 HD
ENDBRANCH  21  24
ENDBRANCH  19  20
ENDBRANCH   4  19
TORSDOF 6
ENDMDL
MODEL 9
REMARK VINA RESULT:    -6.781      3.040      4.528
REMARK INTER + INTRA:          -9.706
REMARK INTER:                  -8.762
REMARK INTRA:                  -0.945
REMARK UNBOUND:                -0.547
REMARK  Name = 
REMARK  6 active torsions:
REMARK  status: ('A' for Active; 'I' for Inactive)
REMARK    1  A    between atoms: C_2  and  C_25
REMARK    2  A    between atoms: N_3  and  C_4
REMARK    3  A    between atoms: C_4  and  C_5
REMARK    4  A    between atoms: C_8  and  C_9
REMARK    5  A    between atoms: C_9  and  N_10
REMARK    6  A    between atoms: C_11  and  C_13
REMARK                            x       y       z     vdW  Elec       q    Type
REMARK                         _______ _______ _______ _____ _____    ______ ____
ROOT
ATOM      1  C   UNL     1      48.659   7.935  13.473  0.00  0.00    +0.000 A 
ATOM      2  C   UNL     1      49.452   9.043  13.778  0.00  0.00    +0.000 A 
ATOM      3  C   UNL     1      50.056   9.141  15.030  0.00  0.00    +0.000 A 
ATOM      4  C   UNL     1      49.826   8.139  15.968  0.00  0.00    +0.000 A 
ATOM      5  N   UNL     1      49.046   7.060  15.700  0.00  0.00    +0.000 NA
ATOM      6  C   UNL     1      48.492   6.980  14.470  0.00  0.00    +0.000 A 
ENDROOT
BRANCH   1   7
ATOM      7  C   UNL     1      47.997   7.782  12.138  0.00  0.00    +0.000 C 
BRANCH   7  10
ATOM      8  O   UNL     1      45.223   7.698  11.823  0.00  0.00    +0.000 OA
ATOM      9  C   UNL     1      45.839   6.645  11.914  0.00  0.00    +0.000 C 
ATOM     10  N   UNL     1      47.206   6.574  12.072  0.00  0.00    +0.000 N 
ATOM     11  H   UNL     1      47.688   5.698  11.911  0.00  0.00    +0.000 HD
BRANCH   9  12
ATOM     12  C   UNL     1      45.123   5.353  11.826  0.00  0.00    +0.000 A 
ATOM     13  C   UNL     1      44.391   4.910  12.922  0.00  0.00    +0.000 A 
ATOM     14  N   UNL     1      43.695   3.744  12.942  0.00  0.00    +0.000 NA
ATOM     15  C   UNL     1      43.750   2.985  11.822  0.00  0.00    +0.000 A 
ATOM     16  C   UNL     1      44.472   3.337  10.692  0.00  0.00    +0.000 A 
ATOM     17 BR   UNL     1      44.512   2.210   9.180  0.00  0.00    +0.000 Br
ATOM     18  C   UNL     1      45.174   4.540  10.690  0.00  0.00    +0.000 A 
ENDBRANCH   9  12
ENDBRANCH   7  10
ENDBRANCH   1   7
BRANCH   4  19
ATOM     19  C   UNL     1      50.467   8.209  17.333  0.00  0.00    +0.000 C 
BRANCH  19  20
ATOM     20  N   UNL     1      51.284   7.051  17.620  0.00  0.00    +0.000 N 
ATOM     21  C   UNL     1      50.953   6.134  18.581  0.00  0.00    +0.000 C 
ATOM     22  O   UNL     1      49.948   6.257  19.276  0.00  0.00    +0.000 OA
ATOM     23  H   UNL     1      52.216   7.053  17.217  0.00  0.00    +0.000 HD
BRANCH  21  24
ATOM     24  C   UNL     1      51.820   4.951  18.692  0.00  0.00    +0.000 A 
ATOM     25  C   UNL     1      53.018   5.046  19.388  0.00  0.00    +0.000 A 
ATOM     26  S   UNL     1      53.886   3.580  19.464  0.00  0.00    +0.000 S 
ATOM     27  C   UNL     1      52.714   2.776  18.530  0.00  0.00    +0.000 A 
ATOM     28  N   UNL     1      52.866   1.466  18.196  0.00  0.00    +0.000 NA
ATOM     29  C   UNL     1      51.921   0.991  17.456  0.00  0.00    +0.000 A 
ATOM     30  N   UNL     1      50.831   1.704  17.029  0.00  0.00    +0.000 N 
ATOM     31  C   UNL     1      50.608   3.013  17.387  0.00  0.00    +0.000 A 
ATOM     32  O   UNL     1      49.580   3.595  17.062  0.00  0.00    +0.000 OA
ATOM     33  C   UNL     1      51.661   3.608  18.189  0.00  0.00    +0.000 A 
ATOM     34  H   UNL     1      50.114   1.270  16.468  0.00  0.00    +0.000 HD
ENDBRANCH  21  24
ENDBRANCH  19  20
ENDBRANCH   4  19
TORSDOF 6
ENDMDL
