MODEL 1
REMARK VINA RESULT:    -8.506      0.000      0.000
REMARK INTER + INTRA:         -12.441
REMARK INTER:                 -11.489
REMARK INTRA:                  -0.952
REMARK UNBOUND:                -0.952
REMARK  Name = 
REMARK  6 active torsions:
REMARK  status: ('A' for Active; 'I' for Inactive)
REMARK    1  A    between atoms: C_2  and  C_3
REMARK    2  A    between atoms: C_6  and  C_7
REMARK    3  A    between atoms: C_7  and  C_8
REMARK    4  A    between atoms: C_11  and  C_12
REMARK    5  A    between atoms: C_12  and  N_13
REMARK    6  A    between atoms: C_14  and  C_16
REMARK                            x       y       z     vdW  Elec       q    Type
REMARK                         _______ _______ _______ _____ _____    ______ ____
ROOT
ATOM      1  C   UNL     1      47.157   8.136  13.584  0.00  0.00    +0.000 C 
ENDROOT
BRANCH   1   5
ATOM      2  C   UNL     1      44.777   5.541  11.181  0.00  0.00    +0.000 A 
ATOM      3  C   UNL     1      44.372   6.864  11.366  0.00  0.00    +0.000 A 
ATOM      4  C   UNL     1      45.142   7.718  12.147  0.00  0.00    +0.000 A 
ATOM      5  C   UNL     1      46.288   7.221  12.761  0.00  0.00    +0.000 A 
ATOM      6  N   UNL     1      46.690   5.932  12.616  0.00  0.00    +0.000 NA
ATOM      7  C   UNL     1      45.938   5.130  11.827  0.00  0.00    +0.000 A 
BRANCH   2   8
ATOM      8  C   UNL     1      44.021   4.614  10.270  0.00  0.00    +0.000 C 
BRANCH   8  12
ATOM      9  C   UNL     1      46.610   2.635   7.514  0.00  0.00    +0.000 A 
ATOM     10  C   UNL     1      45.878   1.866   8.415  0.00  0.00    +0.000 A 
ATOM     11  C   UNL     1      45.005   2.495   9.302  0.00  0.00    +0.000 A 
ATOM     12  C   UNL     1      44.904   3.888   9.281  0.00  0.00    +0.000 A 
ATOM     13  N   UNL     1      45.595   4.647   8.394  0.00  0.00    +0.000 NA
ATOM     14  C   UNL     1      46.424   4.008   7.531  0.00  0.00    +0.000 A 
BRANCH   9  16
ATOM     15  N   UNL     1      48.300   1.566   5.870  0.00  0.00    +0.000 NA
ATOM     16  C   UNL     1      47.539   2.040   6.607  0.00  0.00    +0.000 C 
ENDBRANCH   9  16
ENDBRANCH   8  12
ENDBRANCH   2   8
ENDBRANCH   1   5
BRANCH   1  17
ATOM     17  N   UNL     1      47.682   7.482  14.759  0.00  0.00    +0.000 N 
ATOM     18  C   UNL     1      48.975   7.044  14.871  0.00  0.00    +0.000 C 
ATOM     19  O   UNL     1      49.796   7.174  13.969  0.00  0.00    +0.000 OA
ATOM     20  H   UNL     1      46.974   7.111  15.385  0.00  0.00    +0.000 HD
BRANCH  18  21
ATOM     21  C   UNL     1      49.341   6.484  16.180  0.00  0.00    +0.000 A 
ATOM     22  C   UNL     1      50.248   7.149  16.994  0.00  0.00    +0.000 A 
ATOM     23  S   UNL     1      50.480   6.402  18.512  0.00  0.00    +0.000 S 
ATOM     24  C   UNL     1      49.416   5.133  18.113  0.00  0.00    +0.000 A 
ATOM     25  N   UNL     1      49.164   4.125  18.992  0.00  0.00    +0.000 NA
ATOM     26  C   UNL     1      48.360   3.217  18.546  0.00  0.00    +0.000 A 
ATOM     27  N   UNL     1      47.784   3.227  17.305  0.00  0.00    +0.000 N 
ATOM     28  C   UNL     1      47.976   4.244  16.403  0.00  0.00    +0.000 A 
ATOM     29  O   UNL     1      47.392   4.254  15.326  0.00  0.00    +0.000 OA
ATOM     30  C   UNL     1      48.885   5.285  16.846  0.00  0.00    +0.000 A 
ATOM     31  H   UNL     1      47.153   2.494  17.014  0.00  0.00    +0.000 HD
ENDBRANCH  18  21
ENDBRANCH   1  17
TORSDOF 6
ENDMDL
MODEL 2
REMARK VINA RESULT:    -8.074      2.074      3.650
REMARK INTER + INTRA:         -11.858
REMARK INTER:                 -10.925
REMARK INTRA:                  -0.934
REMARK UNBOUND:                -0.952
REMARK  Name = 
REMARK  6 active torsions:
REMARK  status: ('A' for Active; 'I' for Inactive)
REMARK    1  A    between atoms: C_2  and  C_3
REMARK    2  A    between atoms: C_6  and  C_7
REMARK    3  A    between atoms: C_7  and  C_8
REMARK    4  A    between atoms: C_11  and  C_12
REMARK    5  A    between atoms: C_12  and  N_13
REMARK    6  A    between atoms: C_14  and  C_16
REMARK                            x       y       z     vdW  Elec       q    Type
REMARK                         _______ _______ _______ _____ _____    ______ ____
ROOT
ATOM      1  C   UNL     1      47.136   4.757  15.123  0.00  0.00    +0.000 C 
ENDROOT
BRANCH   1   5
ATOM      2  C   UNL     1      44.904   4.302  11.519  0.00  0.00    +0.000 A 
ATOM      3  C   UNL     1      45.200   5.585  11.983  0.00  0.00    +0.000 A 
ATOM      4  C   UNL     1      45.929   5.744  13.156  0.00  0.00    +0.000 A 
ATOM      5  C   UNL     1      46.317   4.613  13.866  0.00  0.00    +0.000 A 
ATOM      6  N   UNL     1      46.021   3.354  13.449  0.00  0.00    +0.000 NA
ATOM      7  C   UNL     1      45.336   3.227  12.288  0.00  0.00    +0.000 A 
BRANCH   2   8
ATOM      8  C   UNL     1      44.199   4.090  10.208  0.00  0.00    +0.000 C 
BRANCH   8  12
ATOM      9  C   UNL     1      46.809   2.547   7.204  0.00  0.00    +0.000 A 
ATOM     10  C   UNL     1      46.174   1.653   8.062  0.00  0.00    +0.000 A 
ATOM     11  C   UNL     1      45.295   2.139   9.030  0.00  0.00    +0.000 A 
ATOM     12  C   UNL     1      45.092   3.517   9.130  0.00  0.00    +0.000 A 
ATOM     13  N   UNL     1      45.688   4.397   8.287  0.00  0.00    +0.000 NA
ATOM     14  C   UNL     1      46.524   3.895   7.344  0.00  0.00    +0.000 A 
BRANCH   9  16
ATOM     15  N   UNL     1      48.489   1.738   5.407  0.00  0.00    +0.000 NA
ATOM     16  C   UNL     1      47.741   2.101   6.217  0.00  0.00    +0.000 C 
ENDBRANCH   9  16
ENDBRANCH   8  12
ENDBRANCH   2   8
ENDBRANCH   1   5
BRANCH   1  17
ATOM     17  N   UNL     1      47.867   6.002  15.161  0.00  0.00    +0.000 N 
ATOM     18  C   UNL     1      49.005   6.191  15.899  0.00  0.00    +0.000 C 
ATOM     19  O   UNL     1      49.497   5.307  16.593  0.00  0.00    +0.000 OA
ATOM     20  H   UNL     1      47.340   6.808  14.841  0.00  0.00    +0.000 HD
BRANCH  18  21
ATOM     21  C   UNL     1      49.652   7.502  15.735  0.00  0.00    +0.000 A 
ATOM     22  C   UNL     1      49.977   8.263  16.851  0.00  0.00    +0.000 A 
ATOM     23  S   UNL     1      50.804   9.708  16.475  0.00  0.00    +0.000 S 
ATOM     24  C   UNL     1      50.711   9.393  14.804  0.00  0.00    +0.000 A 
ATOM     25  N   UNL     1      51.234  10.261  13.895  0.00  0.00    +0.000 NA
ATOM     26  C   UNL     1      51.067   9.908  12.662  0.00  0.00    +0.000 A 
ATOM     27  N   UNL     1      50.427   8.768  12.258  0.00  0.00    +0.000 N 
ATOM     28  C   UNL     1      49.920   7.846  13.139  0.00  0.00    +0.000 A 
ATOM     29  O   UNL     1      49.413   6.804  12.743  0.00  0.00    +0.000 OA
ATOM     30  C   UNL     1      50.067   8.199  14.539  0.00  0.00    +0.000 A 
ATOM     31  H   UNL     1      50.334   8.539  11.279  0.00  0.00    +0.000 HD
ENDBRANCH  18  21
ENDBRANCH   1  17
TORSDOF 6
ENDMDL
MODEL 3
REMARK VINA RESULT:    -7.685      2.521      3.052
REMARK INTER + INTRA:         -11.332
REMARK INTER:                 -10.613
REMARK INTRA:                  -0.719
REMARK UNBOUND:                -0.952
REMARK  Name = 
REMARK  6 active torsions:
REMARK  status: ('A' for Active; 'I' for Inactive)
REMARK    1  A    between atoms: C_2  and  C_3
REMARK    2  A    between atoms: C_6  and  C_7
REMARK    3  A    between atoms: C_7  and  C_8
REMARK    4  A    between atoms: C_11  and  C_12
REMARK    5  A    between atoms: C_12  and  N_13
REMARK    6  A    between atoms: C_14  and  C_16
REMARK                            x       y       z     vdW  Elec       q    Type
REMARK                         _______ _______ _______ _____ _____    ______ ____
ROOT
ATOM      1  C   UNL     1      47.517   4.378  15.194  0.00  0.00    +0.000 C 
ENDROOT
BRANCH   1   5
ATOM      2  C   UNL     1      45.279   4.647  11.575  0.00  0.00    +0.000 A 
ATOM      3  C   UNL     1      46.054   5.734  11.982  0.00  0.00    +0.000 A 
ATOM      4  C   UNL     1      46.789   5.656  13.160  0.00  0.00    +0.000 A 
ATOM      5  C   UNL     1      46.704   4.501  13.931  0.00  0.00    +0.000 A 
ATOM      6  N   UNL     1      45.938   3.439  13.570  0.00  0.00    +0.000 NA
ATOM      7  C   UNL     1      45.257   3.530  12.404  0.00  0.00    +0.000 A 
BRANCH   2   8
ATOM      8  C   UNL     1      44.545   4.660  10.263  0.00  0.00    +0.000 C 
BRANCH   8  12
ATOM      9  C   UNL     1      46.769   2.776   7.145  0.00  0.00    +0.000 A 
ATOM     10  C   UNL     1      46.033   1.979   8.018  0.00  0.00    +0.000 A 
ATOM     11  C   UNL     1      45.277   2.581   9.024  0.00  0.00    +0.000 A 
ATOM     12  C   UNL     1      45.296   3.972   9.146  0.00  0.00    +0.000 A 
ATOM     13  N   UNL     1      45.992   4.761   8.289  0.00  0.00    +0.000 NA
ATOM     14  C   UNL     1      46.704   4.150   7.310  0.00  0.00    +0.000 A 
BRANCH   9  16
ATOM     15  N   UNL     1      48.233   1.742   5.278  0.00  0.00    +0.000 NA
ATOM     16  C   UNL     1      47.582   2.206   6.119  0.00  0.00    +0.000 C 
ENDBRANCH   9  16
ENDBRANCH   8  12
ENDBRANCH   2   8
ENDBRANCH   1   5
BRANCH   1  17
ATOM     17  N   UNL     1      47.606   5.627  15.912  0.00  0.00    +0.000 N 
ATOM     18  C   UNL     1      48.728   6.040  16.581  0.00  0.00    +0.000 C 
ATOM     19  O   UNL     1      49.756   5.371  16.622  0.00  0.00    +0.000 OA
ATOM     20  H   UNL     1      46.709   6.049  16.134  0.00  0.00    +0.000 HD
BRANCH  18  21
ATOM     21  C   UNL     1      48.650   7.383  17.175  0.00  0.00    +0.000 A 
ATOM     22  C   UNL     1      49.004   8.498  16.427  0.00  0.00    +0.000 A 
ATOM     23  S   UNL     1      48.762   9.976  17.247  0.00  0.00    +0.000 S 
ATOM     24  C   UNL     1      48.224   9.174  18.651  0.00  0.00    +0.000 A 
ATOM     25  N   UNL     1      47.856   9.871  19.760  0.00  0.00    +0.000 NA
ATOM     26  C   UNL     1      47.497   9.133  20.759  0.00  0.00    +0.000 A 
ATOM     27  N   UNL     1      47.471   7.765  20.747  0.00  0.00    +0.000 N 
ATOM     28  C   UNL     1      47.795   7.023  19.639  0.00  0.00    +0.000 A 
ATOM     29  O   UNL     1      47.697   5.802  19.643  0.00  0.00    +0.000 OA
ATOM     30  C   UNL     1      48.222   7.801  18.491  0.00  0.00    +0.000 A 
ATOM     31  H   UNL     1      47.171   7.239  21.556  0.00  0.00    +0.000 HD
ENDBRANCH  18  21
ENDBRANCH   1  17
TORSDOF 6
ENDMDL
MODEL 4
REMARK VINA RESULT:    -7.494      1.678      2.087
REMARK INTER + INTRA:         -11.074
REMARK INTER:                 -10.054
REMARK INTRA:                  -1.020
REMARK UNBOUND:                -0.952
REMARK  Name = 
REMARK  6 active torsions:
REMARK  status: ('A' for Active; 'I' for Inactive)
REMARK    1  A    between atoms: C_2  and  C_3
REMARK    2  A    between atoms: C_6  and  C_7
REMARK    3  A    between atoms: C_7  and  C_8
REMARK    4  A    between atoms: C_11  and  C_12
REMARK    5  A    between atoms: C_12  and  N_13
REMARK    6  A    between atoms: C_14  and  C_16
REMARK                            x       y       z     vdW  Elec       q    Type
REMARK                         _______ _______ _______ _____ _____    ______ ____
ROOT
ATOM      1  C   UNL     1      46.634   8.165  13.826  0.00  0.00    +0.000 C 
ENDROOT
BRANCH   1   5
ATOM      2  C   UNL     1      44.782   5.364  11.198  0.00  0.00    +0.000 A 
ATOM      3  C   UNL     1      45.740   4.917  12.109  0.00  0.00    +0.000 A 
ATOM      4  C   UNL     1      46.349   5.822  12.971  0.00  0.00    +0.000 A 
ATOM      5  C   UNL     1      46.013   7.169  12.880  0.00  0.00    +0.000 A 
ATOM      6  N   UNL     1      45.102   7.633  11.986  0.00  0.00    +0.000 NA
ATOM      7  C   UNL     1      44.504   6.727  11.179  0.00  0.00    +0.000 A 
BRANCH   2   8
ATOM      8  C   UNL     1      44.037   4.403  10.314  0.00  0.00    +0.000 C 
BRANCH   8  12
ATOM      9  C   UNL     1      46.609   2.568   7.444  0.00  0.00    +0.000 A 
ATOM     10  C   UNL     1      45.962   1.760   8.375  0.00  0.00    +0.000 A 
ATOM     11  C   UNL     1      45.095   2.341   9.302  0.00  0.00    +0.000 A 
ATOM     12  C   UNL     1      44.915   3.725   9.286  0.00  0.00    +0.000 A 
ATOM     13  N   UNL     1      45.523   4.521   8.370  0.00  0.00    +0.000 NA
ATOM     14  C   UNL     1      46.346   3.928   7.471  0.00  0.00    +0.000 A 
BRANCH   9  16
ATOM     15  N   UNL     1      48.267   1.579   5.719  0.00  0.00    +0.000 NA
ATOM     16  C   UNL     1      47.528   2.025   6.495  0.00  0.00    +0.000 C 
ENDBRANCH   9  16
ENDBRANCH   8  12
ENDBRANCH   2   8
ENDBRANCH   1   5
BRANCH   1  17
ATOM     17  N   UNL     1      47.972   7.790  14.216  0.00  0.00    +0.000 N 
ATOM     18  C   UNL     1      48.783   8.573  14.996  0.00  0.00    +0.000 C 
ATOM     19  O   UNL     1      48.429   9.666  15.426  0.00  0.00    +0.000 OA
ATOM     20  H   UNL     1      48.383   7.052  13.653  0.00  0.00    +0.000 HD
BRANCH  18  21
ATOM     21  C   UNL     1      50.077   7.976  15.357  0.00  0.00    +0.000 A 
ATOM     22  C   UNL     1      51.260   8.578  14.948  0.00  0.00    +0.000 A 
ATOM     23  S   UNL     1      52.661   7.800  15.538  0.00  0.00    +0.000 S 
ATOM     24  C   UNL     1      51.737   6.601  16.318  0.00  0.00    +0.000 A 
ATOM     25  N   UNL     1      52.333   5.599  17.018  0.00  0.00    +0.000 NA
ATOM     26  C   UNL     1      51.511   4.744  17.533  0.00  0.00    +0.000 A 
ATOM     27  N   UNL     1      50.149   4.803  17.412  0.00  0.00    +0.000 N 
ATOM     28  C   UNL     1      49.503   5.817  16.750  0.00  0.00    +0.000 A 
ATOM     29  O   UNL     1      48.280   5.875  16.718  0.00  0.00    +0.000 OA
ATOM     30  C   UNL     1      50.380   6.798  16.138  0.00  0.00    +0.000 A 
ATOM     31  H   UNL     1      49.554   4.112  17.845  0.00  0.00    +0.000 HD
ENDBRANCH  18  21
ENDBRANCH   1  17
TORSDOF 6
ENDMDL
MODEL 5
REMARK VINA RESULT:    -7.404      3.962      4.946
REMARK INTER + INTRA:         -10.953
REMARK INTER:                  -9.949
REMARK INTRA:                  -1.004
REMARK UNBOUND:                -0.952
REMARK  Name = 
REMARK  6 active torsions:
REMARK  status: ('A' for Active; 'I' for Inactive)
REMARK    1  A    between atoms: C_2  and  C_3
REMARK    2  A    between atoms: C_6  and  C_7
REMARK    3  A    between atoms: C_7  and  C_8
REMARK    4  A    between atoms: C_11  and  C_12
REMARK    5  A    between atoms: C_12  and  N_13
REMARK    6  A    between atoms: C_14  and  C_16
REMARK                            x       y       z     vdW  Elec       q    Type
REMARK                         _______ _______ _______ _____ _____    ______ ____
ROOT
ATOM      1  C   UNL     1      46.308   8.672  12.970  0.00  0.00    +0.000 C 
ENDROOT
BRANCH   1   5
ATOM      2  C   UNL     1      44.426   5.342  11.085  0.00  0.00    +0.000 A 
ATOM      3  C   UNL     1      43.821   6.598  11.018  0.00  0.00    +0.000 A 
ATOM      4  C   UNL     1      44.427   7.690  11.628  0.00  0.00    +0.000 A 
ATOM      5  C   UNL     1      45.613   7.498  12.329  0.00  0.00    +0.000 A 
ATOM      6  N   UNL     1      46.210   6.282  12.430  0.00  0.00    +0.000 NA
ATOM      7  C   UNL     1      45.614   5.241  11.802  0.00  0.00    +0.000 A 
BRANCH   2   8
ATOM      8  C   UNL     1      43.848   4.158  10.361  0.00  0.00    +0.000 C 
BRANCH   8  12
ATOM      9  C   UNL     1      46.586   2.554   7.507  0.00  0.00    +0.000 A 
ATOM     10  C   UNL     1      45.911   1.677   8.352  0.00  0.00    +0.000 A 
ATOM     11  C   UNL     1      44.991   2.183   9.271  0.00  0.00    +0.000 A 
ATOM     12  C   UNL     1      44.786   3.562   9.335  0.00  0.00    +0.000 A 
ATOM     13  N   UNL     1      45.422   4.425   8.503  0.00  0.00    +0.000 NA
ATOM     14  C   UNL     1      46.298   3.905   7.608  0.00  0.00    +0.000 A 
BRANCH   9  16
ATOM     15  N   UNL     1      48.351   1.699   5.816  0.00  0.00    +0.000 NA
ATOM     16  C   UNL     1      47.559   2.088   6.571  0.00  0.00    +0.000 C 
ENDBRANCH   9  16
ENDBRANCH   8  12
ENDBRANCH   2   8
ENDBRANCH   1   5
BRANCH   1  17
ATOM     17  N   UNL     1      47.493   9.068  12.248  0.00  0.00    +0.000 N 
ATOM     18  C   UNL     1      48.443   9.915  12.756  0.00  0.00    +0.000 C 
ATOM     19  O   UNL     1      48.357  10.408  13.876  0.00  0.00    +0.000 OA
ATOM     20  H   UNL     1      47.445   8.915  11.246  0.00  0.00    +0.000 HD
BRANCH  18  21
ATOM     21  C   UNL     1      49.621  10.127  11.901  0.00  0.00    +0.000 A 
ATOM     22  C   UNL     1      50.001  11.415  11.546  0.00  0.00    +0.000 A 
ATOM     23  S   UNL     1      51.442  11.473  10.631  0.00  0.00    +0.000 S 
ATOM     24  C   UNL     1      51.579   9.776  10.633  0.00  0.00    +0.000 A 
ATOM     25  N   UNL     1      52.612   9.153  10.003  0.00  0.00    +0.000 NA
ATOM     26  C   UNL     1      52.574   7.862  10.062  0.00  0.00    +0.000 A 
ATOM     27  N   UNL     1      51.599   7.140  10.694  0.00  0.00    +0.000 N 
ATOM     28  C   UNL     1      50.561   7.726  11.375  0.00  0.00    +0.000 A 
ATOM     29  O   UNL     1      49.743   7.049  11.986  0.00  0.00    +0.000 OA
ATOM     30  C   UNL     1      50.546   9.176  11.329  0.00  0.00    +0.000 A 
ATOM     31  H   UNL     1      51.626   6.131  10.716  0.00  0.00    +0.000 HD
ENDBRANCH  18  21
ENDBRANCH   1  17
TORSDOF 6
ENDMDL
MODEL 6
REMARK VINA RESULT:    -6.613      3.398      4.441
REMARK INTER + INTRA:          -9.885
REMARK INTER:                  -9.155
REMARK INTRA:                  -0.730
REMARK UNBOUND:                -0.952
REMARK  Name = 
REMARK  6 active torsions:
REMARK  status: ('A' for Active; 'I' for Inactive)
REMARK    1  A    between atoms: C_2  and  C_3
REMARK    2  A    between atoms: C_6  and  C_7
REMARK    3  A    between atoms: C_7  and  C_8
REMARK    4  A    between atoms: C_11  and  C_12
REMARK    5  A    between atoms: C_12  and  N_13
REMARK    6  A    between atoms: C_14  and  C_16
REMARK                            x       y       z     vdW  Elec       q    Type
REMARK                         _______ _______ _______ _____ _____    ______ ____
ROOT
ATOM      1  C   UNL     1      45.822   8.310  13.021  0.00  0.00    +0.000 C 
ENDROOT
BRANCH   1   5
ATOM      2  C   UNL     1      44.295   4.821  11.104  0.00  0.00    +0.000 A 
ATOM      3  C   UNL     1      43.690   6.056  10.861  0.00  0.00    +0.000 A 
ATOM      4  C   UNL     1      44.182   7.199  11.480  0.00  0.00    +0.000 A 
ATOM      5  C   UNL     1      45.250   7.081  12.363  0.00  0.00    +0.000 A 
ATOM      6  N   UNL     1      45.840   5.889  12.635  0.00  0.00    +0.000 NA
ATOM      7  C   UNL     1      45.361   4.796  11.997  0.00  0.00    +0.000 A 
BRANCH   2   8
ATOM      8  C   UNL     1      43.851   3.580  10.383  0.00  0.00    +0.000 C 
BRANCH   8  12
ATOM      9  C   UNL     1      46.639   2.410   7.370  0.00  0.00    +0.000 A 
ATOM     10  C   UNL     1      46.091   1.428   8.192  0.00  0.00    +0.000 A 
ATOM     11  C   UNL     1      45.156   1.790   9.162  0.00  0.00    +0.000 A 
ATOM     12  C   UNL     1      44.809   3.136   9.300  0.00  0.00    +0.000 A 
ATOM     13  N   UNL     1      45.319   4.098   8.492  0.00  0.00    +0.000 NA
ATOM     14  C   UNL     1      46.212   3.716   7.546  0.00  0.00    +0.000 A 
BRANCH   9  16
ATOM     15  N   UNL     1      48.416   1.827   5.580  0.00  0.00    +0.000 NA
ATOM     16  C   UNL     1      47.621   2.094   6.383  0.00  0.00    +0.000 C 
ENDBRANCH   9  16
ENDBRANCH   8  12
ENDBRANCH   2   8
ENDBRANCH   1   5
BRANCH   1  17
ATOM     17  N   UNL     1      47.199   8.538  12.652  0.00  0.00    +0.000 N 
ATOM     18  C   UNL     1      48.265   8.166  13.428  0.00  0.00    +0.000 C 
ATOM     19  O   UNL     1      48.129   7.605  14.511  0.00  0.00    +0.000 OA
ATOM     20  H   UNL     1      47.329   9.238  11.928  0.00  0.00    +0.000 HD
BRANCH  18  21
ATOM     21  C   UNL     1      49.590   8.406  12.838  0.00  0.00    +0.000 A 
ATOM     22  C   UNL     1      49.936   7.805  11.635  0.00  0.00    +0.000 A 
ATOM     23  S   UNL     1      51.473   8.271  11.056  0.00  0.00    +0.000 S 
ATOM     24  C   UNL     1      51.752   9.253  12.419  0.00  0.00    +0.000 A 
ATOM     25  N   UNL     1      52.913   9.948  12.558  0.00  0.00    +0.000 NA
ATOM     26  C   UNL     1      53.000  10.629  13.654  0.00  0.00    +0.000 A 
ATOM     27  N   UNL     1      52.032  10.677  14.620  0.00  0.00    +0.000 N 
ATOM     28  C   UNL     1      50.830  10.025  14.503  0.00  0.00    +0.000 A 
ATOM     29  O   UNL     1      49.959  10.144  15.356  0.00  0.00    +0.000 OA
ATOM     30  C   UNL     1      50.684   9.231  13.296  0.00  0.00    +0.000 A 
ATOM     31  H   UNL     1      52.150  11.235  15.453  0.00  0.00    +0.000 HD
ENDBRANCH  18  21
ENDBRANCH   1  17
TORSDOF 6
ENDMDL
MODEL 7
REMARK VINA RESULT:    -6.552      2.471      3.220
REMARK INTER + INTRA:          -9.803
REMARK INTER:                  -8.963
REMARK INTRA:                  -0.840
REMARK UNBOUND:                -0.952
REMARK  Name = 
REMARK  6 active torsions:
REMARK  status: ('A' for Active; 'I' for Inactive)
REMARK    1  A    between atoms: C_2  and  C_3
REMARK    2  A    between atoms: C_6  and  C_7
REMARK    3  A    between atoms: C_7  and  C_8
REMARK    4  A    between atoms: C_11  and  C_12
REMARK    5  A    between atoms: C_12  and  N_13
REMARK    6  A    between atoms: C_14  and  C_16
REMARK                            x       y       z     vdW  Elec       q    Type
REMARK                         _______ _______ _______ _____ _____    ______ ____
ROOT
ATOM      1  C   UNL     1      45.832   7.656  13.450  0.00  0.00    +0.000 C 
ENDROOT
BRANCH   1   5
ATOM      2  C   UNL     1      44.501   4.354  11.103  0.00  0.00    +0.000 A 
ATOM      3  C   UNL     1      43.837   5.578  11.001  0.00  0.00    +0.000 A 
ATOM      4  C   UNL     1      44.264   6.661  11.761  0.00  0.00    +0.000 A 
ATOM      5  C   UNL     1      45.329   6.489  12.640  0.00  0.00    +0.000 A 
ATOM      6  N   UNL     1      45.976   5.303  12.776  0.00  0.00    +0.000 NA
ATOM      7  C   UNL     1      45.558   4.273  12.003  0.00  0.00    +0.000 A 
BRANCH   2   8
ATOM      8  C   UNL     1      44.126   3.189  10.231  0.00  0.00    +0.000 C 
BRANCH   8  12
ATOM      9  C   UNL     1      46.813   2.393   7.011  0.00  0.00    +0.000 A 
ATOM     10  C   UNL     1      46.343   3.692   7.185  0.00  0.00    +0.000 A 
ATOM     11  C   UNL     1      45.487   3.975   8.250  0.00  0.00    +0.000 A 
ATOM     12  C   UNL     1      45.104   2.940   9.105  0.00  0.00    +0.000 A 
ATOM     13  N   UNL     1      45.572   1.674   8.959  0.00  0.00    +0.000 NA
ATOM     14  C   UNL     1      46.415   1.431   7.926  0.00  0.00    +0.000 A 
BRANCH   9  16
ATOM     15  N   UNL     1      48.354   1.774   5.025  0.00  0.00    +0.000 NA
ATOM     16  C   UNL     1      47.666   2.048   5.919  0.00  0.00    +0.000 C 
ENDBRANCH   9  16
ENDBRANCH   8  12
ENDBRANCH   2   8
ENDBRANCH   1   5
BRANCH   1  17
ATOM     17  N   UNL     1      47.274   7.708  13.498  0.00  0.00    +0.000 N 
ATOM     18  C   UNL     1      48.002   8.842  13.251  0.00  0.00    +0.000 C 
ATOM     19  O   UNL     1      47.477   9.913  12.965  0.00  0.00    +0.000 OA
ATOM     20  H   UNL     1      47.729   6.802  13.445  0.00  0.00    +0.000 HD
BRANCH  18  21
ATOM     21  C   UNL     1      49.454   8.713  13.437  0.00  0.00    +0.000 A 
ATOM     22  C   UNL     1      50.328   9.322  12.546  0.00  0.00    +0.000 A 
ATOM     23  S   UNL     1      51.972   9.144  12.972  0.00  0.00    +0.000 S 
ATOM     24  C   UNL     1      51.576   8.202  14.334  0.00  0.00    +0.000 A 
ATOM     25  N   UNL     1      52.545   7.707  15.152  0.00  0.00    +0.000 NA
ATOM     26  C   UNL     1      52.101   6.987  16.130  0.00  0.00    +0.000 A 
ATOM     27  N   UNL     1      50.780   6.719  16.363  0.00  0.00    +0.000 N 
ATOM     28  C   UNL     1      49.768   7.229  15.589  0.00  0.00    +0.000 A 
ATOM     29  O   UNL     1      48.593   7.024  15.866  0.00  0.00    +0.000 OA
ATOM     30  C   UNL     1      50.210   8.035  14.465  0.00  0.00    +0.000 A 
ATOM     31  H   UNL     1      50.491   6.156  17.150  0.00  0.00    +0.000 HD
ENDBRANCH  18  21
ENDBRANCH   1  17
TORSDOF 6
ENDMDL
MODEL 8
REMARK VINA RESULT:    -6.477      3.530      8.317
REMARK INTER + INTRA:          -9.701
REMARK INTER:                  -8.823
REMARK INTRA:                  -0.878
REMARK UNBOUND:                -0.952
REMARK  Name = 
REMARK  6 active torsions:
REMARK  status: ('A' for Active; 'I' for Inactive)
REMARK    1  A    between atoms: C_2  and  C_3
REMARK    2  A    between atoms: C_6  and  C_7
REMARK    3  A    between atoms: C_7  and  C_8
REMARK    4  A    between atoms: C_11  and  C_12
REMARK    5  A    between atoms: C_12  and  N_13
REMARK    6  A    between atoms: C_14  and  C_16
REMARK                            x       y       z     vdW  Elec       q    Type
REMARK                         _______ _______ _______ _____ _____    ______ ____
ROOT
ATOM      1  C   UNL     1      49.010   8.228  14.878  0.00  0.00    +0.000 C 
ENDROOT
BRANCH   1   5
ATOM      2  C   UNL     1      50.414   5.455  17.798  0.00  0.00    +0.000 A 
ATOM      3  C   UNL     1      51.317   6.007  16.889  0.00  0.00    +0.000 A 
ATOM      4  C   UNL     1      50.870   6.913  15.934  0.00  0.00    +0.000 A 
ATOM      5  C   UNL     1      49.515   7.223  15.882  0.00  0.00    +0.000 A 
ATOM      6  N   UNL     1      48.611   6.682  16.739  0.00  0.00    +0.000 NA
ATOM      7  C   UNL     1      49.078   5.825  17.678  0.00  0.00    +0.000 A 
BRANCH   2   8
ATOM      8  C   UNL     1      50.875   4.545  18.901  0.00  0.00    +0.000 C 
BRANCH   8  12
ATOM      9  C   UNL     1      53.157   1.169  17.630  0.00  0.00    +0.000 A 
ATOM     10  C   UNL     1      51.819   1.254  17.251  0.00  0.00    +0.000 A 
ATOM     11  C   UNL     1      51.068   2.365  17.633  0.00  0.00    +0.000 A 
ATOM     12  C   UNL     1      51.671   3.357  18.409  0.00  0.00    +0.000 A 
ATOM     13  N   UNL     1      52.978   3.297  18.767  0.00  0.00    +0.000 NA
ATOM     14  C   UNL     1      53.690   2.214  18.367  0.00  0.00    +0.000 A 
BRANCH   9  16
ATOM     15  N   UNL     1      54.614  -0.877  17.002  0.00  0.00    +0.000 NA
ATOM     16  C   UNL     1      53.959   0.038  17.289  0.00  0.00    +0.000 C 
ENDBRANCH   9  16
ENDBRANCH   8  12
ENDBRANCH   2   8
ENDBRANCH   1   5
BRANCH   1  17
ATOM     17  N   UNL     1      47.822   7.773  14.197  0.00  0.00    +0.000 N 
ATOM     18  C   UNL     1      47.830   6.833  13.201  0.00  0.00    +0.000 C 
ATOM     19  O   UNL     1      48.862   6.299  12.806  0.00  0.00    +0.000 OA
ATOM     20  H   UNL     1      47.020   8.388  14.296  0.00  0.00    +0.000 HD
BRANCH  18  21
ATOM     21  C   UNL     1      46.508   6.438  12.694  0.00  0.00    +0.000 A 
ATOM     22  C   UNL     1      45.652   7.394  12.161  0.00  0.00    +0.000 A 
ATOM     23  S   UNL     1      44.203   6.741  11.537  0.00  0.00    +0.000 S 
ATOM     24  C   UNL     1      44.644   5.164  12.007  0.00  0.00    +0.000 A 
ATOM     25  N   UNL     1      43.824   4.105  11.770  0.00  0.00    +0.000 NA
ATOM     26  C   UNL     1      44.274   2.974  12.205  0.00  0.00    +0.000 A 
ATOM     27  N   UNL     1      45.468   2.806  12.851  0.00  0.00    +0.000 N 
ATOM     28  C   UNL     1      46.345   3.839  13.075  0.00  0.00    +0.000 A 
ATOM     29  O   UNL     1      47.435   3.641  13.597  0.00  0.00    +0.000 OA
ATOM     30  C   UNL     1      45.883   5.137  12.620  0.00  0.00    +0.000 A 
ATOM     31  H   UNL     1      45.773   1.895  13.160  0.00  0.00    +0.000 HD
ENDBRANCH  18  21
ENDBRANCH   1  17
TORSDOF 6
ENDMDL
