MODEL 1
REMARK VINA RESULT:    -8.272      0.000      0.000
REMARK INTER + INTRA:         -13.270
REMARK INTER:                 -12.141
REMARK INTRA:                  -1.129
REMARK UNBOUND:                -1.129
REMARK  Name = 
REMARK  9 active torsions:
REMARK  status: ('A' for Active; 'I' for Inactive)
REMARK    1  A    between atoms: C_1  and  O_2
REMARK    2  A    between atoms: O_2  and  C_3
REMARK    3  A    between atoms: C_10  and  C_11
REMARK    4  A    between atoms: N_13  and  C_14
REMARK    5  A    between atoms: C_14  and  C_15
REMARK    6  A    between atoms: C_18  and  C_19
REMARK    7  A    between atoms: C_19  and  C_20
REMARK    8  A    between atoms: C_20  and  C_21
REMARK    9  A    between atoms: C_21  and  C_22
REMARK                            x       y       z     vdW  Elec       q    Type
REMARK                         _______ _______ _______ _____ _____    ______ ____
ROOT
ATOM      1  C   UNL     1      48.062   6.933  13.344  0.00  0.00    +0.000 C 
ENDROOT
BRANCH   1   2
ATOM      2  C   UNL     1      46.901   6.202  12.722  0.00  0.00    +0.000 A 
ATOM      3  C   UNL     1      46.287   6.683  11.560  0.00  0.00    +0.000 A 
ATOM      4  C   UNL     1      45.274   5.948  10.934  0.00  0.00    +0.000 A 
ATOM      5  C   UNL     1      44.861   4.717  11.457  0.00  0.00    +0.000 A 
ATOM      6  C   UNL     1      45.423   4.276  12.661  0.00  0.00    +0.000 A 
ATOM      7  C   UNL     1      46.426   5.015  13.293  0.00  0.00    +0.000 A 
BRANCH   5   8
ATOM      8  C   UNL     1      43.842   3.860  10.742  0.00  0.00    +0.000 C 
BRANCH   8   9
ATOM      9  C   UNL     1      44.429   2.927   9.672  0.00  0.00    +0.000 C 
BRANCH   9  10
ATOM     10  C   UNL     1      44.863   3.653   8.392  0.00  0.00    +0.000 C 
BRANCH  10  11
ATOM     11  C   UNL     1      45.917   2.868   7.650  0.00  0.00    +0.000 A 
ATOM     12  C   UNL     1      46.291   1.594   8.090  0.00  0.00    +0.000 A 
ATOM     13  C   UNL     1      47.283   0.914   7.400  0.00  0.00    +0.000 A 
ATOM     14  N   UNL     1      47.922   1.410   6.321  0.00  0.00    +0.000 NA
ATOM     15  C   UNL     1      47.550   2.642   5.913  0.00  0.00    +0.000 A 
ATOM     16  C   UNL     1      46.569   3.401   6.535  0.00  0.00    +0.000 A 
ENDBRANCH  10  11
ENDBRANCH   9  10
ENDBRANCH   8   9
ENDBRANCH   5   8
ENDBRANCH   1   2
BRANCH   1  19
ATOM     17  C   UNL     1      49.029   6.885  15.589  0.00  0.00    +0.000 C 
ATOM     18  O   UNL     1      50.144   6.642  15.123  0.00  0.00    +0.000 OA
ATOM     19  N   UNL     1      47.942   7.037  14.775  0.00  0.00    +0.000 N 
ATOM     20  H   UNL     1      47.024   7.211  15.165  0.00  0.00    +0.000 HD
BRANCH  17  28
ATOM     21  C   UNL     1      48.961   4.638  18.203  0.00  0.00    +0.000 A 
ATOM     22  N   UNL     1      48.828   3.992  19.379  0.00  0.00    +0.000 NA
ATOM     23  C   UNL     1      48.563   4.715  20.469  0.00  0.00    +0.000 A 
ATOM     24  N   UNL     1      48.412   6.035  20.534  0.00  0.00    +0.000 NA
ATOM     25  C   UNL     1      48.531   6.637  19.340  0.00  0.00    +0.000 A 
ATOM     26  S   UNL     1      48.375   8.325  19.237  0.00  0.00    +0.000 S 
ATOM     27  C   UNL     1      48.622   8.295  17.560  0.00  0.00    +0.000 A 
ATOM     28  C   UNL     1      48.827   7.021  17.040  0.00  0.00    +0.000 A 
ATOM     29  C   UNL     1      48.789   6.030  18.114  0.00  0.00    +0.000 A 
BRANCH  21  31
ATOM     30  C   UNL     1      48.118   3.231  16.547  0.00  0.00    +0.000 C 
ATOM     31  O   UNL     1      49.266   3.887  17.086  0.00  0.00    +0.000 OA
ENDBRANCH  21  31
ENDBRANCH  17  28
ENDBRANCH   1  19
TORSDOF 8
ENDMDL
MODEL 2
REMARK VINA RESULT:    -8.109      1.386      2.486
REMARK INTER + INTRA:         -13.030
REMARK INTER:                 -11.957
REMARK INTRA:                  -1.073
REMARK UNBOUND:                -1.129
REMARK  Name = 
REMARK  9 active torsions:
REMARK  status: ('A' for Active; 'I' for Inactive)
REMARK    1  A    between atoms: C_1  and  O_2
REMARK    2  A    between atoms: O_2  and  C_3
REMARK    3  A    between atoms: C_10  and  C_11
REMARK    4  A    between atoms: N_13  and  C_14
REMARK    5  A    between atoms: C_14  and  C_15
REMARK    6  A    between atoms: C_18  and  C_19
REMARK    7  A    between atoms: C_19  and  C_20
REMARK    8  A    between atoms: C_20  and  C_21
REMARK    9  A    between atoms: C_21  and  C_22
REMARK                            x       y       z     vdW  Elec       q    Type
REMARK                         _______ _______ _______ _____ _____    ______ ____
ROOT
ATOM      1  C   UNL     1      48.085   6.610  13.836  0.00  0.00    +0.000 C 
ENDROOT
BRANCH   1   2
ATOM      2  C   UNL     1      46.921   6.116  13.016  0.00  0.00    +0.000 A 
ATOM      3  C   UNL     1      46.637   6.671  11.762  0.00  0.00    +0.000 A 
ATOM      4  C   UNL     1      45.616   6.142  10.965  0.00  0.00    +0.000 A 
ATOM      5  C   UNL     1      44.865   5.045  11.405  0.00  0.00    +0.000 A 
ATOM      6  C   UNL     1      45.100   4.542  12.691  0.00  0.00    +0.000 A 
ATOM      7  C   UNL     1      46.111   5.078  13.493  0.00  0.00    +0.000 A 
BRANCH   5   8
ATOM      8  C   UNL     1      43.827   4.395  10.520  0.00  0.00    +0.000 C 
BRANCH   8   9
ATOM      9  C   UNL     1      44.373   3.295   9.598  0.00  0.00    +0.000 C 
BRANCH   9  10
ATOM     10  C   UNL     1      44.833   3.810   8.228  0.00  0.00    +0.000 C 
BRANCH  10  11
ATOM     11  C   UNL     1      45.909   2.925   7.645  0.00  0.00    +0.000 A 
ATOM     12  C   UNL     1      46.672   3.363   6.558  0.00  0.00    +0.000 A 
ATOM     13  C   UNL     1      47.631   2.514   6.031  0.00  0.00    +0.000 A 
ATOM     14  N   UNL     1      47.877   1.273   6.502  0.00  0.00    +0.000 NA
ATOM     15  C   UNL     1      47.128   0.867   7.549  0.00  0.00    +0.000 A 
ATOM     16  C   UNL     1      46.145   1.643   8.146  0.00  0.00    +0.000 A 
ENDBRANCH  10  11
ENDBRANCH   9  10
ENDBRANCH   8   9
ENDBRANCH   5   8
ENDBRANCH   1   2
BRANCH   1  19
ATOM     17  C   UNL     1      49.001   6.347  16.087  0.00  0.00    +0.000 C 
ATOM     18  O   UNL     1      50.132   6.614  15.676  0.00  0.00    +0.000 OA
ATOM     19  N   UNL     1      47.931   6.317  15.237  0.00  0.00    +0.000 N 
ATOM     20  H   UNL     1      47.009   6.072  15.575  0.00  0.00    +0.000 HD
BRANCH  17  28
ATOM     21  C   UNL     1      47.819   8.208  18.738  0.00  0.00    +0.000 A 
ATOM     22  N   UNL     1      47.452   8.703  19.937  0.00  0.00    +0.000 NA
ATOM     23  C   UNL     1      47.496   7.891  20.995  0.00  0.00    +0.000 A 
ATOM     24  N   UNL     1      47.866   6.614  21.006  0.00  0.00    +0.000 NA
ATOM     25  C   UNL     1      48.243   6.165  19.797  0.00  0.00    +0.000 A 
ATOM     26  S   UNL     1      48.741   4.551  19.625  0.00  0.00    +0.000 S 
ATOM     27  C   UNL     1      49.031   4.767  17.968  0.00  0.00    +0.000 A 
ATOM     28  C   UNL     1      48.761   6.051  17.508  0.00  0.00    +0.000 A 
ATOM     29  C   UNL     1      48.272   6.884  18.606  0.00  0.00    +0.000 A 
BRANCH  21  31
ATOM     30  C   UNL     1      48.649  10.144  17.741  0.00  0.00    +0.000 C 
ATOM     31  O   UNL     1      47.742   9.046  17.644  0.00  0.00    +0.000 OA
ENDBRANCH  21  31
ENDBRANCH  17  28
ENDBRANCH   1  19
TORSDOF 8
ENDMDL
MODEL 3
REMARK VINA RESULT:    -8.020      1.693      2.505
REMARK INTER + INTRA:         -12.900
REMARK INTER:                 -11.522
REMARK INTRA:                  -1.378
REMARK UNBOUND:                -1.129
REMARK  Name = 
REMARK  9 active torsions:
REMARK  status: ('A' for Active; 'I' for Inactive)
REMARK    1  A    between atoms: C_1  and  O_2
REMARK    2  A    between atoms: O_2  and  C_3
REMARK    3  A    between atoms: C_10  and  C_11
REMARK    4  A    between atoms: N_13  and  C_14
REMARK    5  A    between atoms: C_14  and  C_15
REMARK    6  A    between atoms: C_18  and  C_19
REMARK    7  A    between atoms: C_19  and  C_20
REMARK    8  A    between atoms: C_20  and  C_21
REMARK    9  A    between atoms: C_21  and  C_22
REMARK                            x       y       z     vdW  Elec       q    Type
REMARK                         _______ _______ _______ _____ _____    ______ ____
ROOT
ATOM      1  C   UNL     1      47.384   3.343  14.956  0.00  0.00    +0.000 C 
ENDROOT
BRANCH   1   2
ATOM      2  C   UNL     1      46.732   4.009  13.772  0.00  0.00    +0.000 A 
ATOM      3  C   UNL     1      46.972   5.357  13.482  0.00  0.00    +0.000 A 
ATOM      4  C   UNL     1      46.442   5.942  12.327  0.00  0.00    +0.000 A 
ATOM      5  C   UNL     1      45.666   5.187  11.439  0.00  0.00    +0.000 A 
ATOM      6  C   UNL     1      45.364   3.861  11.771  0.00  0.00    +0.000 A 
ATOM      7  C   UNL     1      45.883   3.279  12.930  0.00  0.00    +0.000 A 
BRANCH   5   8
ATOM      8  C   UNL     1      45.169   5.770  10.137  0.00  0.00    +0.000 C 
BRANCH   8   9
ATOM      9  C   UNL     1      45.823   5.178   8.880  0.00  0.00    +0.000 C 
BRANCH   9  10
ATOM     10  C   UNL     1      45.048   3.999   8.278  0.00  0.00    +0.000 C 
BRANCH  10  11
ATOM     11  C   UNL     1      45.985   2.985   7.666  0.00  0.00    +0.000 A 
ATOM     12  C   UNL     1      46.725   3.305   6.524  0.00  0.00    +0.000 A 
ATOM     13  C   UNL     1      47.553   2.341   5.973  0.00  0.00    +0.000 A 
ATOM     14  N   UNL     1      47.690   1.095   6.471  0.00  0.00    +0.000 NA
ATOM     15  C   UNL     1      46.965   0.803   7.572  0.00  0.00    +0.000 A 
ATOM     16  C   UNL     1      46.110   1.698   8.197  0.00  0.00    +0.000 A 
ENDBRANCH  10  11
ENDBRANCH   9  10
ENDBRANCH   8   9
ENDBRANCH   5   8
ENDBRANCH   1   2
BRANCH   1  19
ATOM     17  C   UNL     1      47.346   4.214  17.240  0.00  0.00    +0.000 C 
ATOM     18  O   UNL     1      46.550   3.338  17.580  0.00  0.00    +0.000 OA
ATOM     19  N   UNL     1      47.804   4.292  15.955  0.00  0.00    +0.000 N 
ATOM     20  H   UNL     1      48.438   5.030  15.674  0.00  0.00    +0.000 HD
BRANCH  17  28
ATOM     21  C   UNL     1      50.481   5.383  18.075  0.00  0.00    +0.000 A 
ATOM     22  N   UNL     1      51.562   5.965  18.631  0.00  0.00    +0.000 NA
ATOM     23  C   UNL     1      51.368   6.846  19.615  0.00  0.00    +0.000 A 
ATOM     24  N   UNL     1      50.201   7.231  20.123  0.00  0.00    +0.000 NA
ATOM     25  C   UNL     1      49.151   6.612  19.557  0.00  0.00    +0.000 A 
ATOM     26  S   UNL     1      47.580   6.988  20.080  0.00  0.00    +0.000 S 
ATOM     27  C   UNL     1      46.901   5.884  18.986  0.00  0.00    +0.000 A 
ATOM     28  C   UNL     1      47.834   5.211  18.206  0.00  0.00    +0.000 A 
ATOM     29  C   UNL     1      49.184   5.664  18.539  0.00  0.00    +0.000 A 
BRANCH  21  31
ATOM     30  C   UNL     1      50.953   3.173  17.505  0.00  0.00    +0.000 C 
ATOM     31  O   UNL     1      50.689   4.496  17.039  0.00  0.00    +0.000 OA
ENDBRANCH  21  31
ENDBRANCH  17  28
ENDBRANCH   1  19
TORSDOF 8
ENDMDL
MODEL 4
REMARK VINA RESULT:    -7.679      1.836      3.549
REMARK INTER + INTRA:         -12.400
REMARK INTER:                 -10.919
REMARK INTRA:                  -1.481
REMARK UNBOUND:                -1.129
REMARK  Name = 
REMARK  9 active torsions:
REMARK  status: ('A' for Active; 'I' for Inactive)
REMARK    1  A    between atoms: C_1  and  O_2
REMARK    2  A    between atoms: O_2  and  C_3
REMARK    3  A    between atoms: C_10  and  C_11
REMARK    4  A    between atoms: N_13  and  C_14
REMARK    5  A    between atoms: C_14  and  C_15
REMARK    6  A    between atoms: C_18  and  C_19
REMARK    7  A    between atoms: C_19  and  C_20
REMARK    8  A    between atoms: C_20  and  C_21
REMARK    9  A    between atoms: C_21  and  C_22
REMARK                            x       y       z     vdW  Elec       q    Type
REMARK                         _______ _______ _______ _____ _____    ______ ____
ROOT
ATOM      1  C   UNL     1      47.191   4.388  15.126  0.00  0.00    +0.000 C 
ENDROOT
BRANCH   1   2
ATOM      2  C   UNL     1      46.442   4.417  13.819  0.00  0.00    +0.000 A 
ATOM      3  C   UNL     1      46.086   3.231  13.167  0.00  0.00    +0.000 A 
ATOM      4  C   UNL     1      45.307   3.263  12.006  0.00  0.00    +0.000 A 
ATOM      5  C   UNL     1      44.865   4.483  11.479  0.00  0.00    +0.000 A 
ATOM      6  C   UNL     1      45.287   5.671  12.089  0.00  0.00    +0.000 A 
ATOM      7  C   UNL     1      46.076   5.639  13.242  0.00  0.00    +0.000 A 
BRANCH   5   8
ATOM      8  C   UNL     1      43.939   4.536  10.286  0.00  0.00    +0.000 C 
BRANCH   8   9
ATOM      9  C   UNL     1      44.212   3.468   9.217  0.00  0.00    +0.000 C 
BRANCH   9  10
ATOM     10  C   UNL     1      44.951   4.002   7.984  0.00  0.00    +0.000 C 
BRANCH  10  11
ATOM     11  C   UNL     1      45.981   3.014   7.493  0.00  0.00    +0.000 A 
ATOM     12  C   UNL     1      46.798   3.326   6.402  0.00  0.00    +0.000 A 
ATOM     13  C   UNL     1      47.712   2.383   5.961  0.00  0.00    +0.000 A 
ATOM     14  N   UNL     1      47.864   1.165   6.520  0.00  0.00    +0.000 NA
ATOM     15  C   UNL     1      47.064   0.880   7.570  0.00  0.00    +0.000 A 
ATOM     16  C   UNL     1      46.120   1.756   8.086  0.00  0.00    +0.000 A 
ENDBRANCH  10  11
ENDBRANCH   9  10
ENDBRANCH   8   9
ENDBRANCH   5   8
ENDBRANCH   1   2
BRANCH   1  19
ATOM     17  C   UNL     1      48.690   5.908  16.317  0.00  0.00    +0.000 C 
ATOM     18  O   UNL     1      49.420   4.967  16.636  0.00  0.00    +0.000 OA
ATOM     19  N   UNL     1      47.561   5.705  15.575  0.00  0.00    +0.000 N 
ATOM     20  H   UNL     1      46.951   6.478  15.338  0.00  0.00    +0.000 HD
BRANCH  17  28
ATOM     21  C   UNL     1      48.865   8.909  14.629  0.00  0.00    +0.000 A 
ATOM     22  N   UNL     1      49.061  10.179  14.220  0.00  0.00    +0.000 NA
ATOM     23  C   UNL     1      49.439  11.082  15.127  0.00  0.00    +0.000 A 
ATOM     24  N   UNL     1      49.648  10.871  16.424  0.00  0.00    +0.000 NA
ATOM     25  C   UNL     1      49.463   9.591  16.785  0.00  0.00    +0.000 A 
ATOM     26  S   UNL     1      49.681   9.142  18.408  0.00  0.00    +0.000 S 
ATOM     27  C   UNL     1      49.305   7.525  18.062  0.00  0.00    +0.000 A 
ATOM     28  C   UNL     1      49.008   7.286  16.725  0.00  0.00    +0.000 A 
ATOM     29  C   UNL     1      49.087   8.532  15.964  0.00  0.00    +0.000 A 
BRANCH  21  31
ATOM     30  C   UNL     1      49.486   7.630  12.782  0.00  0.00    +0.000 C 
ATOM     31  O   UNL     1      48.445   7.989  13.690  0.00  0.00    +0.000 OA
ENDBRANCH  21  31
ENDBRANCH  17  28
ENDBRANCH   1  19
TORSDOF 8
ENDMDL
MODEL 5
REMARK VINA RESULT:    -7.671      1.572      2.386
REMARK INTER + INTRA:         -12.388
REMARK INTER:                 -11.062
REMARK INTRA:                  -1.326
REMARK UNBOUND:                -1.129
REMARK  Name = 
REMARK  9 active torsions:
REMARK  status: ('A' for Active; 'I' for Inactive)
REMARK    1  A    between atoms: C_1  and  O_2
REMARK    2  A    between atoms: O_2  and  C_3
REMARK    3  A    between atoms: C_10  and  C_11
REMARK    4  A    between atoms: N_13  and  C_14
REMARK    5  A    between atoms: C_14  and  C_15
REMARK    6  A    between atoms: C_18  and  C_19
REMARK    7  A    between atoms: C_19  and  C_20
REMARK    8  A    between atoms: C_20  and  C_21
REMARK    9  A    between atoms: C_21  and  C_22
REMARK                            x       y       z     vdW  Elec       q    Type
REMARK                         _______ _______ _______ _____ _____    ______ ____
ROOT
ATOM      1  C   UNL     1      47.185   4.209  14.883  0.00  0.00    +0.000 C 
ENDROOT
BRANCH   1   2
ATOM      2  C   UNL     1      46.394   4.334  13.606  0.00  0.00    +0.000 A 
ATOM      3  C   UNL     1      45.961   3.197  12.914  0.00  0.00    +0.000 A 
ATOM      4  C   UNL     1      45.145   3.320  11.784  0.00  0.00    +0.000 A 
ATOM      5  C   UNL     1      44.745   4.582  11.329  0.00  0.00    +0.000 A 
ATOM      6  C   UNL     1      45.243   5.719  11.977  0.00  0.00    +0.000 A 
ATOM      7  C   UNL     1      46.067   5.597  13.098  0.00  0.00    +0.000 A 
BRANCH   5   8
ATOM      8  C   UNL     1      43.783   4.734  10.173  0.00  0.00    +0.000 C 
BRANCH   8   9
ATOM      9  C   UNL     1      44.195   3.986   8.897  0.00  0.00    +0.000 C 
BRANCH   9  10
ATOM     10  C   UNL     1      45.593   4.359   8.387  0.00  0.00    +0.000 C 
BRANCH  10  11
ATOM     11  C   UNL     1      46.269   3.179   7.732  0.00  0.00    +0.000 A 
ATOM     12  C   UNL     1      46.146   1.899   8.281  0.00  0.00    +0.000 A 
ATOM     13  C   UNL     1      46.803   0.844   7.668  0.00  0.00    +0.000 A 
ATOM     14  N   UNL     1      47.567   0.975   6.563  0.00  0.00    +0.000 NA
ATOM     15  C   UNL     1      47.676   2.218   6.049  0.00  0.00    +0.000 A 
ATOM     16  C   UNL     1      47.057   3.337   6.589  0.00  0.00    +0.000 A 
ENDBRANCH  10  11
ENDBRANCH   9  10
ENDBRANCH   8   9
ENDBRANCH   5   8
ENDBRANCH   1   2
BRANCH   1  19
ATOM     17  C   UNL     1      48.523   5.646  16.339  0.00  0.00    +0.000 C 
ATOM     18  O   UNL     1      49.238   4.692  16.652  0.00  0.00    +0.000 OA
ATOM     19  N   UNL     1      47.478   5.490  15.473  0.00  0.00    +0.000 N 
ATOM     20  H   UNL     1      46.878   6.271  15.239  0.00  0.00    +0.000 HD
BRANCH  17  28
ATOM     21  C   UNL     1      47.851   7.136  19.374  0.00  0.00    +0.000 A 
ATOM     22  N   UNL     1      47.664   7.969  20.418  0.00  0.00    +0.000 NA
ATOM     23  C   UNL     1      48.093   9.228  20.305  0.00  0.00    +0.000 A 
ATOM     24  N   UNL     1      48.704   9.771  19.255  0.00  0.00    +0.000 NA
ATOM     25  C   UNL     1      48.851   8.915  18.231  0.00  0.00    +0.000 A 
ATOM     26  S   UNL     1      49.618   9.439  16.809  0.00  0.00    +0.000 S 
ATOM     27  C   UNL     1      49.414   7.921  16.082  0.00  0.00    +0.000 A 
ATOM     28  C   UNL     1      48.769   6.989  16.887  0.00  0.00    +0.000 A 
ATOM     29  C   UNL     1      48.447   7.584  18.184  0.00  0.00    +0.000 A 
BRANCH  21  31
ATOM     30  C   UNL     1      48.432   5.001  20.107  0.00  0.00    +0.000 C 
ATOM     31  O   UNL     1      47.432   5.829  19.512  0.00  0.00    +0.000 OA
ENDBRANCH  21  31
ENDBRANCH  17  28
ENDBRANCH   1  19
TORSDOF 8
ENDMDL
MODEL 6
REMARK VINA RESULT:    -7.318      1.933      2.736
REMARK INTER + INTRA:         -11.870
REMARK INTER:                 -10.779
REMARK INTRA:                  -1.091
REMARK UNBOUND:                -1.129
REMARK  Name = 
REMARK  9 active torsions:
REMARK  status: ('A' for Active; 'I' for Inactive)
REMARK    1  A    between atoms: C_1  and  O_2
REMARK    2  A    between atoms: O_2  and  C_3
REMARK    3  A    between atoms: C_10  and  C_11
REMARK    4  A    between atoms: N_13  and  C_14
REMARK    5  A    between atoms: C_14  and  C_15
REMARK    6  A    between atoms: C_18  and  C_19
REMARK    7  A    between atoms: C_19  and  C_20
REMARK    8  A    between atoms: C_20  and  C_21
REMARK    9  A    between atoms: C_21  and  C_22
REMARK                            x       y       z     vdW  Elec       q    Type
REMARK                         _______ _______ _______ _____ _____    ______ ____
ROOT
ATOM      1  C   UNL     1      47.971   7.121  13.709  0.00  0.00    +0.000 C 
ENDROOT
BRANCH   1   2
ATOM      2  C   UNL     1      46.987   6.354  12.864  0.00  0.00    +0.000 A 
ATOM      3  C   UNL     1      46.433   5.151  13.319  0.00  0.00    +0.000 A 
ATOM      4  C   UNL     1      45.448   4.495  12.573  0.00  0.00    +0.000 A 
ATOM      5  C   UNL     1      44.994   5.034  11.363  0.00  0.00    +0.000 A 
ATOM      6  C   UNL     1      45.604   6.196  10.874  0.00  0.00    +0.000 A 
ATOM      7  C   UNL     1      46.598   6.844  11.612  0.00  0.00    +0.000 A 
BRANCH   5   8
ATOM      8  C   UNL     1      43.861   4.397  10.593  0.00  0.00    +0.000 C 
BRANCH   8   9
ATOM      9  C   UNL     1      44.298   3.332   9.576  0.00  0.00    +0.000 C 
BRANCH   9  10
ATOM     10  C   UNL     1      44.893   3.917   8.289  0.00  0.00    +0.000 C 
BRANCH  10  11
ATOM     11  C   UNL     1      45.915   2.983   7.687  0.00  0.00    +0.000 A 
ATOM     12  C   UNL     1      46.685   3.387   6.592  0.00  0.00    +0.000 A 
ATOM     13  C   UNL     1      47.593   2.493   6.048  0.00  0.00    +0.000 A 
ATOM     14  N   UNL     1      47.782   1.240   6.509  0.00  0.00    +0.000 NA
ATOM     15  C   UNL     1      47.028   0.866   7.565  0.00  0.00    +0.000 A 
ATOM     16  C   UNL     1      46.094   1.687   8.179  0.00  0.00    +0.000 A 
ENDBRANCH  10  11
ENDBRANCH   9  10
ENDBRANCH   8   9
ENDBRANCH   5   8
ENDBRANCH   1   2
BRANCH   1  19
ATOM     17  C   UNL     1      48.780   6.888  16.004  0.00  0.00    +0.000 C 
ATOM     18  O   UNL     1      48.604   8.091  16.207  0.00  0.00    +0.000 OA
ATOM     19  N   UNL     1      48.499   6.329  14.790  0.00  0.00    +0.000 N 
ATOM     20  H   UNL     1      48.670   5.345  14.621  0.00  0.00    +0.000 HD
BRANCH  17  28
ATOM     21  C   UNL     1      51.794   6.696  17.668  0.00  0.00    +0.000 A 
ATOM     22  N   UNL     1      52.864   6.362  18.418  0.00  0.00    +0.000 NA
ATOM     23  C   UNL     1      52.751   5.325  19.250  0.00  0.00    +0.000 A 
ATOM     24  N   UNL     1      51.676   4.563  19.435  0.00  0.00    +0.000 NA
ATOM     25  C   UNL     1      50.641   4.916  18.655  0.00  0.00    +0.000 A 
ATOM     26  S   UNL     1      49.183   4.054  18.764  0.00  0.00    +0.000 S 
ATOM     27  C   UNL     1      48.466   5.021  17.570  0.00  0.00    +0.000 A 
ATOM     28  C   UNL     1      49.302   6.010  17.063  0.00  0.00    +0.000 A 
ATOM     29  C   UNL     1      50.602   5.955  17.730  0.00  0.00    +0.000 A 
BRANCH  21  31
ATOM     30  C   UNL     1      52.487   7.445  15.573  0.00  0.00    +0.000 C 
ATOM     31  O   UNL     1      51.910   7.789  16.832  0.00  0.00    +0.000 OA
ENDBRANCH  21  31
ENDBRANCH  17  28
ENDBRANCH   1  19
TORSDOF 8
ENDMDL
MODEL 7
REMARK VINA RESULT:    -7.232      1.833      2.048
REMARK INTER + INTRA:         -11.744
REMARK INTER:                 -10.354
REMARK INTRA:                  -1.390
REMARK UNBOUND:                -1.129
REMARK  Name = 
REMARK  9 active torsions:
REMARK  status: ('A' for Active; 'I' for Inactive)
REMARK    1  A    between atoms: C_1  and  O_2
REMARK    2  A    between atoms: O_2  and  C_3
REMARK    3  A    between atoms: C_10  and  C_11
REMARK    4  A    between atoms: N_13  and  C_14
REMARK    5  A    between atoms: C_14  and  C_15
REMARK    6  A    between atoms: C_18  and  C_19
REMARK    7  A    between atoms: C_19  and  C_20
REMARK    8  A    between atoms: C_20  and  C_21
REMARK    9  A    between atoms: C_21  and  C_22
REMARK                            x       y       z     vdW  Elec       q    Type
REMARK                         _______ _______ _______ _____ _____    ______ ____
ROOT
ATOM      1  C   UNL     1      48.264   7.581  13.256  0.00  0.00    +0.000 C 
ENDROOT
BRANCH   1   2
ATOM      2  C   UNL     1      47.246   6.542  12.864  0.00  0.00    +0.000 A 
ATOM      3  C   UNL     1      46.516   6.663  11.675  0.00  0.00    +0.000 A 
ATOM      4  C   UNL     1      45.645   5.647  11.269  0.00  0.00    +0.000 A 
ATOM      5  C   UNL     1      45.493   4.488  12.041  0.00  0.00    +0.000 A 
ATOM      6  C   UNL     1      46.166   4.404  13.266  0.00  0.00    +0.000 A 
ATOM      7  C   UNL     1      47.026   5.425  13.678  0.00  0.00    +0.000 A 
BRANCH   5   8
ATOM      8  C   UNL     1      44.637   3.336  11.571  0.00  0.00    +0.000 C 
BRANCH   8   9
ATOM      9  C   UNL     1      44.176   3.436  10.109  0.00  0.00    +0.000 C 
BRANCH   9  10
ATOM     10  C   UNL     1      44.426   2.160   9.295  0.00  0.00    +0.000 C 
BRANCH  10  11
ATOM     11  C   UNL     1      45.598   2.331   8.358  0.00  0.00    +0.000 A 
ATOM     12  C   UNL     1      46.401   1.236   8.024  0.00  0.00    +0.000 A 
ATOM     13  C   UNL     1      47.486   1.435   7.185  0.00  0.00    +0.000 A 
ATOM     14  N   UNL     1      47.823   2.634   6.665  0.00  0.00    +0.000 NA
ATOM     15  C   UNL     1      47.037   3.679   7.001  0.00  0.00    +0.000 A 
ATOM     16  C   UNL     1      45.931   3.582   7.832  0.00  0.00    +0.000 A 
ENDBRANCH  10  11
ENDBRANCH   9  10
ENDBRANCH   8   9
ENDBRANCH   5   8
ENDBRANCH   1   2
BRANCH   1  19
ATOM     17  C   UNL     1      49.474   7.526  15.380  0.00  0.00    +0.000 C 
ATOM     18  O   UNL     1      48.775   8.440  15.822  0.00  0.00    +0.000 OA
ATOM     19  N   UNL     1      49.290   7.047  14.114  0.00  0.00    +0.000 N 
ATOM     20  H   UNL     1      49.884   6.313  13.746  0.00  0.00    +0.000 HD
BRANCH  17  28
ATOM     21  C   UNL     1      49.457   5.585  18.230  0.00  0.00    +0.000 A 
ATOM     22  N   UNL     1      49.744   4.883  19.344  0.00  0.00    +0.000 NA
ATOM     23  C   UNL     1      51.027   4.667  19.641  0.00  0.00    +0.000 A 
ATOM     24  N   UNL     1      52.086   5.073  18.946  0.00  0.00    +0.000 NA
ATOM     25  C   UNL     1      51.758   5.786  17.856  0.00  0.00    +0.000 A 
ATOM     26  S   UNL     1      52.987   6.379  16.846  0.00  0.00    +0.000 S 
ATOM     27  C   UNL     1      51.855   7.103  15.812  0.00  0.00    +0.000 A 
ATOM     28  C   UNL     1      50.533   6.917  16.200  0.00  0.00    +0.000 A 
ATOM     29  C   UNL     1      50.477   6.111  17.419  0.00  0.00    +0.000 A 
BRANCH  21  31
ATOM     30  C   UNL     1      47.580   4.674  17.191  0.00  0.00    +0.000 C 
ATOM     31  O   UNL     1      48.128   5.777  17.914  0.00  0.00    +0.000 OA
ENDBRANCH  21  31
ENDBRANCH  17  28
ENDBRANCH   1  19
TORSDOF 8
ENDMDL
MODEL 8
REMARK VINA RESULT:    -6.994      3.703      8.351
REMARK INTER + INTRA:         -11.395
REMARK INTER:                  -9.624
REMARK INTRA:                  -1.770
REMARK UNBOUND:                -1.129
REMARK  Name = 
REMARK  9 active torsions:
REMARK  status: ('A' for Active; 'I' for Inactive)
REMARK    1  A    between atoms: C_1  and  O_2
REMARK    2  A    between atoms: O_2  and  C_3
REMARK    3  A    between atoms: C_10  and  C_11
REMARK    4  A    between atoms: N_13  and  C_14
REMARK    5  A    between atoms: C_14  and  C_15
REMARK    6  A    between atoms: C_18  and  C_19
REMARK    7  A    between atoms: C_19  and  C_20
REMARK    8  A    between atoms: C_20  and  C_21
REMARK    9  A    between atoms: C_21  and  C_22
REMARK                            x       y       z     vdW  Elec       q    Type
REMARK                         _______ _______ _______ _____ _____    ______ ____
ROOT
ATOM      1  C   UNL     1      48.338   7.956  11.949  0.00  0.00    +0.000 C 
ENDROOT
BRANCH   1   2
ATOM      2  C   UNL     1      48.504   7.849  13.443  0.00  0.00    +0.000 A 
ATOM      3  C   UNL     1      49.182   6.766  14.015  0.00  0.00    +0.000 A 
ATOM      4  C   UNL     1      49.418   6.722  15.394  0.00  0.00    +0.000 A 
ATOM      5  C   UNL     1      48.985   7.764  16.223  0.00  0.00    +0.000 A 
ATOM      6  C   UNL     1      48.242   8.808  15.658  0.00  0.00    +0.000 A 
ATOM      7  C   UNL     1      47.995   8.845  14.284  0.00  0.00    +0.000 A 
BRANCH   5   8
ATOM      8  C   UNL     1      49.318   7.787  17.697  0.00  0.00    +0.000 C 
BRANCH   8   9
ATOM      9  C   UNL     1      50.007   6.517  18.216  0.00  0.00    +0.000 C 
BRANCH   9  10
ATOM     10  C   UNL     1      49.029   5.421  18.658  0.00  0.00    +0.000 C 
BRANCH  10  11
ATOM     11  C   UNL     1      49.196   4.172  17.827  0.00  0.00    +0.000 A 
ATOM     12  C   UNL     1      48.120   3.658  17.098  0.00  0.00    +0.000 A 
ATOM     13  C   UNL     1      48.302   2.494  16.369  0.00  0.00    +0.000 A 
ATOM     14  N   UNL     1      49.465   1.813  16.320  0.00  0.00    +0.000 NA
ATOM     15  C   UNL     1      50.493   2.322  17.033  0.00  0.00    +0.000 A 
ATOM     16  C   UNL     1      50.410   3.480  17.792  0.00  0.00    +0.000 A 
ENDBRANCH  10  11
ENDBRANCH   9  10
ENDBRANCH   8   9
ENDBRANCH   5   8
ENDBRANCH   1   2
BRANCH   1  19
ATOM     17  C   UNL     1      46.256   6.843  11.313  0.00  0.00    +0.000 C 
ATOM     18  O   UNL     1      45.598   7.802  11.721  0.00  0.00    +0.000 OA
ATOM     19  N   UNL     1      47.620   6.836  11.397  0.00  0.00    +0.000 N 
ATOM     20  H   UNL     1      48.154   6.035  11.084  0.00  0.00    +0.000 HD
BRANCH  17  28
ATOM     21  C   UNL     1      44.424   4.232  12.622  0.00  0.00    +0.000 A 
ATOM     22  N   UNL     1      43.741   3.095  12.862  0.00  0.00    +0.000 NA
ATOM     23  C   UNL     1      43.438   2.311  11.825  0.00  0.00    +0.000 A 
ATOM     24  N   UNL     1      43.736   2.528  10.547  0.00  0.00    +0.000 NA
ATOM     25  C   UNL     1      44.434   3.659  10.354  0.00  0.00    +0.000 A 
ATOM     26  S   UNL     1      44.895   4.097   8.780  0.00  0.00    +0.000 S 
ATOM     27  C   UNL     1      45.667   5.498   9.344  0.00  0.00    +0.000 A 
ATOM     28  C   UNL     1      45.597   5.668  10.722  0.00  0.00    +0.000 A 
ATOM     29  C   UNL     1      44.841   4.571  11.324  0.00  0.00    +0.000 A 
BRANCH  21  31
ATOM     30  C   UNL     1      46.020   4.835  14.209  0.00  0.00    +0.000 C 
ATOM     31  O   UNL     1      44.706   5.051  13.696  0.00  0.00    +0.000 OA
ENDBRANCH  21  31
ENDBRANCH  17  28
ENDBRANCH   1  19
TORSDOF 8
ENDMDL
MODEL 9
REMARK VINA RESULT:    -6.966      3.601      5.519
REMARK INTER + INTRA:         -11.354
REMARK INTER:                  -9.721
REMARK INTRA:                  -1.632
REMARK UNBOUND:                -1.129
REMARK  Name = 
REMARK  9 active torsions:
REMARK  status: ('A' for Active; 'I' for Inactive)
REMARK    1  A    between atoms: C_1  and  O_2
REMARK    2  A    between atoms: O_2  and  C_3
REMARK    3  A    between atoms: C_10  and  C_11
REMARK    4  A    between atoms: N_13  and  C_14
REMARK    5  A    between atoms: C_14  and  C_15
REMARK    6  A    between atoms: C_18  and  C_19
REMARK    7  A    between atoms: C_19  and  C_20
REMARK    8  A    between atoms: C_20  and  C_21
REMARK    9  A    between atoms: C_21  and  C_22
REMARK                            x       y       z     vdW  Elec       q    Type
REMARK                         _______ _______ _______ _____ _____    ______ ____
ROOT
ATOM      1  C   UNL     1      48.052   3.507  17.590  0.00  0.00    +0.000 C 
ENDROOT
BRANCH   1   2
ATOM      2  C   UNL     1      47.865   4.387  16.382  0.00  0.00    +0.000 A 
ATOM      3  C   UNL     1      48.482   5.642  16.304  0.00  0.00    +0.000 A 
ATOM      4  C   UNL     1      48.384   6.411  15.140  0.00  0.00    +0.000 A 
ATOM      5  C   UNL     1      47.673   5.937  14.030  0.00  0.00    +0.000 A 
ATOM      6  C   UNL     1      46.994   4.717  14.139  0.00  0.00    +0.000 A 
ATOM      7  C   UNL     1      47.081   3.954  15.306  0.00  0.00    +0.000 A 
BRANCH   5   8
ATOM      8  C   UNL     1      47.640   6.705  12.730  0.00  0.00    +0.000 C 
BRANCH   8   9
ATOM      9  C   UNL     1      46.230   6.995  12.195  0.00  0.00    +0.000 C 
BRANCH   9  10
ATOM     10  C   UNL     1      45.936   6.338  10.840  0.00  0.00    +0.000 C 
BRANCH  10  11
ATOM     11  C   UNL     1      45.008   5.158  10.995  0.00  0.00    +0.000 A 
ATOM     12  C   UNL     1      44.962   4.160  10.016  0.00  0.00    +0.000 A 
ATOM     13  C   UNL     1      44.078   3.106  10.178  0.00  0.00    +0.000 A 
ATOM     14  N   UNL     1      43.244   2.980  11.231  0.00  0.00    +0.000 NA
ATOM     15  C   UNL     1      43.300   3.954  12.164  0.00  0.00    +0.000 A 
ATOM     16  C   UNL     1      44.150   5.048  12.093  0.00  0.00    +0.000 A 
ENDBRANCH  10  11
ENDBRANCH   9  10
ENDBRANCH   8   9
ENDBRANCH   5   8
ENDBRANCH   1   2
BRANCH   1  19
ATOM     17  C   UNL     1      50.151   2.338  17.141  0.00  0.00    +0.000 C 
ATOM     18  O   UNL     1      49.621   1.700  16.229  0.00  0.00    +0.000 OA
ATOM     19  N   UNL     1      49.441   3.248  17.870  0.00  0.00    +0.000 N 
ATOM     20  H   UNL     1      49.874   3.751  18.635  0.00  0.00    +0.000 HD
BRANCH  17  28
ATOM     21  C   UNL     1      52.786   4.492  17.691  0.00  0.00    +0.000 A 
ATOM     22  N   UNL     1      53.980   5.086  17.892  0.00  0.00    +0.000 NA
ATOM     23  C   UNL     1      55.040   4.308  18.121  0.00  0.00    +0.000 A 
ATOM     24  N   UNL     1      55.057   2.979  18.180  0.00  0.00    +0.000 NA
ATOM     25  C   UNL     1      53.854   2.427  17.954  0.00  0.00    +0.000 A 
ATOM     26  S   UNL     1      53.689   0.738  17.998  0.00  0.00    +0.000 S 
ATOM     27  C   UNL     1      52.036   0.841  17.638  0.00  0.00    +0.000 A 
ATOM     28  C   UNL     1      51.570   2.142  17.478  0.00  0.00    +0.000 A 
ATOM     29  C   UNL     1      52.661   3.093  17.685  0.00  0.00    +0.000 A 
BRANCH  21  31
ATOM     30  C   UNL     1      51.458   6.187  18.583  0.00  0.00    +0.000 C 
ATOM     31  O   UNL     1      51.690   5.305  17.485  0.00  0.00    +0.000 OA
ENDBRANCH  21  31
ENDBRANCH  17  28
ENDBRANCH   1  19
TORSDOF 8
ENDMDL
