MODEL 1
REMARK VINA RESULT:    -6.969      0.000      0.000
REMARK INTER + INTRA:          -9.125
REMARK INTER:                  -8.802
REMARK INTRA:                  -0.323
REMARK UNBOUND:                -0.323
REMARK  Name = 
REMARK  5 active torsions:
REMARK  status: ('A' for Active; 'I' for Inactive)
REMARK    1  A    between atoms: N_1  and  C_2
REMARK    2  A    between atoms: C_2  and  C_3
REMARK    3  A    between atoms: C_6  and  O_7
REMARK    4  A    between atoms: O_7  and  C_8
REMARK    5  A    between atoms: C_8  and  C_9
REMARK                            x       y       z     vdW  Elec       q    Type
REMARK                         _______ _______ _______ _____ _____    ______ ____
ROOT
ATOM      1  C   UNL     1      46.569   2.621   6.868  0.00  0.00    +0.000 A 
ATOM      2  C   UNL     1      46.504   1.469   7.632  0.00  0.00    +0.000 A 
ATOM      3  N   UNL     1      45.711   1.328   8.708  0.00  0.00    +0.000 NA
ATOM      4  C   UNL     1      44.951   2.387   9.018  0.00  0.00    +0.000 A 
ATOM      5  N   UNL     1      44.934   3.555   8.363  0.00  0.00    +0.000 NA
ATOM      6  C   UNL     1      45.760   3.646   7.301  0.00  0.00    +0.000 A 
ENDROOT
BRANCH   1   7
ATOM      7  C   UNL     1      47.438   2.710   5.659  0.00  0.00    +0.000 C 
BRANCH   7   8
ATOM      8  N   UNL     1      48.555   1.778   5.756  0.00  0.00    +0.000 NA
ATOM      9  H   UNL     1      49.026   1.899   6.652  0.00  0.00    +0.000 HD
ATOM     10  H   UNL     1      49.246   1.997   5.039  0.00  0.00    +0.000 HD
ENDBRANCH   7   8
ENDBRANCH   1   7
BRANCH   4  11
ATOM     11  O   UNL     1      44.036   2.280  10.043  0.00  0.00    +0.000 OA
BRANCH  11  12
ATOM     12  C   UNL     1      43.787   3.532  10.687  0.00  0.00    +0.000 C 
BRANCH  12  13
ATOM     13  C   UNL     1      44.000   3.354  12.200  0.00  0.00    +0.000 C 
ATOM     14  C   UNL     1      43.242   4.416  13.009  0.00  0.00    +0.000 C 
ATOM     15  C   UNL     1      43.920   5.784  12.939  0.00  0.00    +0.000 C 
ATOM     16  N   UNL     1      45.301   5.717  13.416  0.00  0.00    +0.000 NA
ATOM     17  C   UNL     1      46.094   4.774  12.625  0.00  0.00    +0.000 C 
ATOM     18  C   UNL     1      45.487   3.369  12.599  0.00  0.00    +0.000 C 
ATOM     19  H   UNL     1      45.300   5.413  14.390  0.00  0.00    +0.000 HD
ENDBRANCH  12  13
ENDBRANCH  11  12
ENDBRANCH   4  11
TORSDOF 5
ENDMDL
MODEL 2
REMARK VINA RESULT:    -6.841      1.268      1.919
REMARK INTER + INTRA:          -8.964
REMARK INTER:                  -8.593
REMARK INTRA:                  -0.372
REMARK UNBOUND:                -0.323
REMARK  Name = 
REMARK  5 active torsions:
REMARK  status: ('A' for Active; 'I' for Inactive)
REMARK    1  A    between atoms: N_1  and  C_2
REMARK    2  A    between atoms: C_2  and  C_3
REMARK    3  A    between atoms: C_6  and  O_7
REMARK    4  A    between atoms: O_7  and  C_8
REMARK    5  A    between atoms: C_8  and  C_9
REMARK                            x       y       z     vdW  Elec       q    Type
REMARK                         _______ _______ _______ _____ _____    ______ ____
ROOT
ATOM      1  C   UNL     1      46.613   2.328   7.567  0.00  0.00    +0.000 A 
ATOM      2  C   UNL     1      46.427   3.692   7.427  0.00  0.00    +0.000 A 
ATOM      3  N   UNL     1      45.506   4.397   8.108  0.00  0.00    +0.000 NA
ATOM      4  C   UNL     1      44.753   3.698   8.968  0.00  0.00    +0.000 A 
ATOM      5  N   UNL     1      44.833   2.379   9.184  0.00  0.00    +0.000 NA
ATOM      6  C   UNL     1      45.762   1.720   8.462  0.00  0.00    +0.000 A 
ENDROOT
BRANCH   1   7
ATOM      7  C   UNL     1      47.675   1.601   6.814  0.00  0.00    +0.000 C 
BRANCH   7   8
ATOM      8  N   UNL     1      48.654   2.535   6.270  0.00  0.00    +0.000 NA
ATOM      9  H   UNL     1      48.699   3.366   6.859  0.00  0.00    +0.000 HD
ATOM     10  H   UNL     1      48.350   2.852   5.351  0.00  0.00    +0.000 HD
ENDBRANCH   7   8
ENDBRANCH   1   7
BRANCH   4  11
ATOM     11  O   UNL     1      43.862   4.369   9.778  0.00  0.00    +0.000 OA
BRANCH  11  12
ATOM     12  C   UNL     1      44.500   5.347  10.602  0.00  0.00    +0.000 C 
BRANCH  12  13
ATOM     13  C   UNL     1      44.082   5.104  12.062  0.00  0.00    +0.000 C 
ATOM     14  C   UNL     1      44.910   5.952  13.038  0.00  0.00    +0.000 C 
ATOM     15  C   UNL     1      46.327   5.406  13.214  0.00  0.00    +0.000 C 
ATOM     16  N   UNL     1      46.308   4.020  13.682  0.00  0.00    +0.000 NA
ATOM     17  C   UNL     1      45.597   3.149  12.745  0.00  0.00    +0.000 C 
ATOM     18  C   UNL     1      44.167   3.622  12.469  0.00  0.00    +0.000 C 
ATOM     19  H   UNL     1      45.840   3.984  14.588  0.00  0.00    +0.000 HD
ENDBRANCH  12  13
ENDBRANCH  11  12
ENDBRANCH   4  11
TORSDOF 5
ENDMDL
MODEL 3
REMARK VINA RESULT:    -6.839      1.269      2.053
REMARK INTER + INTRA:          -8.961
REMARK INTER:                  -8.582
REMARK INTRA:                  -0.379
REMARK UNBOUND:                -0.323
REMARK  Name = 
REMARK  5 active torsions:
REMARK  status: ('A' for Active; 'I' for Inactive)
REMARK    1  A    between atoms: N_1  and  C_2
REMARK    2  A    between atoms: C_2  and  C_3
REMARK    3  A    between atoms: C_6  and  O_7
REMARK    4  A    between atoms: O_7  and  C_8
REMARK    5  A    between atoms: C_8  and  C_9
REMARK                            x       y       z     vdW  Elec       q    Type
REMARK                         _______ _______ _______ _____ _____    ______ ____
ROOT
ATOM      1  C   UNL     1      47.130   2.425   7.182  0.00  0.00    +0.000 A 
ATOM      2  C   UNL     1      46.524   3.669   7.162  0.00  0.00    +0.000 A 
ATOM      3  N   UNL     1      45.404   3.968   7.844  0.00  0.00    +0.000 NA
ATOM      4  C   UNL     1      44.884   2.975   8.578  0.00  0.00    +0.000 A 
ATOM      5  N   UNL     1      45.372   1.732   8.669  0.00  0.00    +0.000 NA
ATOM      6  C   UNL     1      46.487   1.483   7.953  0.00  0.00    +0.000 A 
ENDROOT
BRANCH   1   7
ATOM      7  C   UNL     1      48.393   2.158   6.436  0.00  0.00    +0.000 C 
BRANCH   7   8
ATOM      8  N   UNL     1      48.250   2.519   5.031  0.00  0.00    +0.000 NA
ATOM      9  H   UNL     1      48.859   1.930   4.463  0.00  0.00    +0.000 HD
ATOM     10  H   UNL     1      48.567   3.477   4.889  0.00  0.00    +0.000 HD
ENDBRANCH   7   8
ENDBRANCH   1   7
BRANCH   4  11
ATOM     11  O   UNL     1      43.799   3.236   9.387  0.00  0.00    +0.000 OA
BRANCH  11  12
ATOM     12  C   UNL     1      44.077   3.001  10.769  0.00  0.00    +0.000 C 
BRANCH  12  13
ATOM     13  C   UNL     1      44.595   4.307  11.393  0.00  0.00    +0.000 C 
ATOM     14  C   UNL     1      44.679   4.213  12.923  0.00  0.00    +0.000 C 
ATOM     15  C   UNL     1      43.301   4.291  13.579  0.00  0.00    +0.000 C 
ATOM     16  N   UNL     1      42.608   5.526  13.214  0.00  0.00    +0.000 NA
ATOM     17  C   UNL     1      42.430   5.630  11.765  0.00  0.00    +0.000 C 
ATOM     18  C   UNL     1      43.752   5.533  10.999  0.00  0.00    +0.000 C 
ATOM     19  H   UNL     1      43.159   6.322  13.538  0.00  0.00    +0.000 HD
ENDBRANCH  12  13
ENDBRANCH  11  12
ENDBRANCH   4  11
TORSDOF 5
ENDMDL
MODEL 4
REMARK VINA RESULT:    -6.539      1.689      2.302
REMARK INTER + INTRA:          -8.583
REMARK INTER:                  -8.496
REMARK INTRA:                  -0.087
REMARK UNBOUND:                -0.323
REMARK  Name = 
REMARK  5 active torsions:
REMARK  status: ('A' for Active; 'I' for Inactive)
REMARK    1  A    between atoms: N_1  and  C_2
REMARK    2  A    between atoms: C_2  and  C_3
REMARK    3  A    between atoms: C_6  and  O_7
REMARK    4  A    between atoms: O_7  and  C_8
REMARK    5  A    between atoms: C_8  and  C_9
REMARK                            x       y       z     vdW  Elec       q    Type
REMARK                         _______ _______ _______ _____ _____    ______ ____
ROOT
ATOM      1  C   UNL     1      46.247   2.012   7.861  0.00  0.00    +0.000 A 
ATOM      2  C   UNL     1      46.218   3.335   7.456  0.00  0.00    +0.000 A 
ATOM      3  N   UNL     1      45.349   4.245   7.931  0.00  0.00    +0.000 NA
ATOM      4  C   UNL     1      44.484   3.802   8.852  0.00  0.00    +0.000 A 
ATOM      5  N   UNL     1      44.408   2.548   9.315  0.00  0.00    +0.000 NA
ATOM      6  C   UNL     1      45.293   1.674   8.794  0.00  0.00    +0.000 A 
ENDROOT
BRANCH   1   7
ATOM      7  C   UNL     1      47.258   1.053   7.330  0.00  0.00    +0.000 C 
BRANCH   7   8
ATOM      8  N   UNL     1      46.913  -0.316   7.694  0.00  0.00    +0.000 NA
ATOM      9  H   UNL     1      46.442  -0.769   6.912  0.00  0.00    +0.000 HD
ATOM     10  H   UNL     1      46.247  -0.308   8.464  0.00  0.00    +0.000 HD
ENDBRANCH   7   8
ENDBRANCH   1   7
BRANCH   4  11
ATOM     11  O   UNL     1      43.634   4.700   9.461  0.00  0.00    +0.000 OA
BRANCH  11  12
ATOM     12  C   UNL     1      43.874   4.816  10.865  0.00  0.00    +0.000 C 
BRANCH  12  13
ATOM     13  C   UNL     1      45.386   4.991  11.089  0.00  0.00    +0.000 C 
ATOM     14  C   UNL     1      45.860   4.264  12.355  0.00  0.00    +0.000 C 
ATOM     15  C   UNL     1      45.452   5.003  13.629  0.00  0.00    +0.000 C 
ATOM     16  N   UNL     1      45.972   6.370  13.640  0.00  0.00    +0.000 NA
ATOM     17  C   UNL     1      45.485   7.136  12.492  0.00  0.00    +0.000 C 
ATOM     18  C   UNL     1      45.813   6.469  11.154  0.00  0.00    +0.000 C 
ATOM     19  H   UNL     1      46.991   6.336  13.607  0.00  0.00    +0.000 HD
ENDBRANCH  12  13
ENDBRANCH  11  12
ENDBRANCH   4  11
TORSDOF 5
ENDMDL
MODEL 5
REMARK VINA RESULT:    -5.712      3.882      7.611
REMARK INTER + INTRA:          -7.538
REMARK INTER:                  -7.243
REMARK INTRA:                  -0.295
REMARK UNBOUND:                -0.323
REMARK  Name = 
REMARK  5 active torsions:
REMARK  status: ('A' for Active; 'I' for Inactive)
REMARK    1  A    between atoms: N_1  and  C_2
REMARK    2  A    between atoms: C_2  and  C_3
REMARK    3  A    between atoms: C_6  and  O_7
REMARK    4  A    between atoms: O_7  and  C_8
REMARK    5  A    between atoms: C_8  and  C_9
REMARK                            x       y       z     vdW  Elec       q    Type
REMARK                         _______ _______ _______ _____ _____    ______ ____
ROOT
ATOM      1  C   UNL     1      48.180   4.668  17.422  0.00  0.00    +0.000 A 
ATOM      2  C   UNL     1      47.269   3.739  16.950  0.00  0.00    +0.000 A 
ATOM      3  N   UNL     1      46.779   3.739  15.698  0.00  0.00    +0.000 NA
ATOM      4  C   UNL     1      47.232   4.709  14.893  0.00  0.00    +0.000 A 
ATOM      5  N   UNL     1      48.103   5.667  15.236  0.00  0.00    +0.000 NA
ATOM      6  C   UNL     1      48.549   5.628  16.507  0.00  0.00    +0.000 A 
ENDROOT
BRANCH   1   7
ATOM      7  C   UNL     1      48.721   4.599  18.809  0.00  0.00    +0.000 C 
BRANCH   7   8
ATOM      8  N   UNL     1      48.454   3.295  19.404  0.00  0.00    +0.000 NA
ATOM      9  H   UNL     1      49.329   2.874  19.714  0.00  0.00    +0.000 HD
ATOM     10  H   UNL     1      48.070   2.669  18.698  0.00  0.00    +0.000 HD
ENDBRANCH   7   8
ENDBRANCH   1   7
BRANCH   4  11
ATOM     11  O   UNL     1      46.856   4.710  13.567  0.00  0.00    +0.000 OA
BRANCH  11  12
ATOM     12  C   UNL     1      45.629   5.409  13.346  0.00  0.00    +0.000 C 
BRANCH  12  13
ATOM     13  C   UNL     1      44.564   4.396  12.894  0.00  0.00    +0.000 C 
ATOM     14  C   UNL     1      44.942   3.728  11.565  0.00  0.00    +0.000 C 
ATOM     15  C   UNL     1      44.746   4.666  10.374  0.00  0.00    +0.000 C 
ATOM     16  N   UNL     1      43.364   5.139  10.295  0.00  0.00    +0.000 NA
ATOM     17  C   UNL     1      42.974   5.856  11.510  0.00  0.00    +0.000 C 
ATOM     18  C   UNL     1      43.161   5.017  12.776  0.00  0.00    +0.000 C 
ATOM     19  H   UNL     1      42.746   4.337  10.171  0.00  0.00    +0.000 HD
ENDBRANCH  12  13
ENDBRANCH  11  12
ENDBRANCH   4  11
TORSDOF 5
ENDMDL
MODEL 6
REMARK VINA RESULT:    -5.631      4.324      6.362
REMARK INTER + INTRA:          -7.436
REMARK INTER:                  -7.127
REMARK INTRA:                  -0.309
REMARK UNBOUND:                -0.323
REMARK  Name = 
REMARK  5 active torsions:
REMARK  status: ('A' for Active; 'I' for Inactive)
REMARK    1  A    between atoms: N_1  and  C_2
REMARK    2  A    between atoms: C_2  and  C_3
REMARK    3  A    between atoms: C_6  and  O_7
REMARK    4  A    between atoms: O_7  and  C_8
REMARK    5  A    between atoms: C_8  and  C_9
REMARK                            x       y       z     vdW  Elec       q    Type
REMARK                         _______ _______ _______ _____ _____    ______ ____
ROOT
ATOM      1  C   UNL     1      44.222   5.046  12.146  0.00  0.00    +0.000 A 
ATOM      2  C   UNL     1      44.562   3.705  12.196  0.00  0.00    +0.000 A 
ATOM      3  N   UNL     1      45.592   3.220  12.913  0.00  0.00    +0.000 NA
ATOM      4  C   UNL     1      46.296   4.122  13.609  0.00  0.00    +0.000 A 
ATOM      5  N   UNL     1      46.070   5.442  13.632  0.00  0.00    +0.000 NA
ATOM      6  C   UNL     1      45.036   5.875  12.884  0.00  0.00    +0.000 A 
ENDROOT
BRANCH   1   7
ATOM      7  C   UNL     1      43.045   5.525  11.365  0.00  0.00    +0.000 C 
BRANCH   7   8
ATOM      8  N   UNL     1      43.115   6.967  11.159  0.00  0.00    +0.000 NA
ATOM      9  H   UNL     1      43.343   7.429  12.038  0.00  0.00    +0.000 HD
ATOM     10  H   UNL     1      42.199   7.317  10.881  0.00  0.00    +0.000 HD
ENDBRANCH   7   8
ENDBRANCH   1   7
BRANCH   4  11
ATOM     11  O   UNL     1      47.298   3.688  14.449  0.00  0.00    +0.000 OA
BRANCH  11  12
ATOM     12  C   UNL     1      47.502   4.566  15.558  0.00  0.00    +0.000 C 
BRANCH  12  13
ATOM     13  C   UNL     1      47.237   3.784  16.856  0.00  0.00    +0.000 C 
ATOM     14  C   UNL     1      47.409   4.669  18.098  0.00  0.00    +0.000 C 
ATOM     15  C   UNL     1      48.880   4.946  18.408  0.00  0.00    +0.000 C 
ATOM     16  N   UNL     1      49.624   3.702  18.602  0.00  0.00    +0.000 NA
ATOM     17  C   UNL     1      49.561   2.850  17.413  0.00  0.00    +0.000 C 
ATOM     18  C   UNL     1      48.124   2.532  16.991  0.00  0.00    +0.000 C 
ATOM     19  H   UNL     1      49.224   3.197  19.393  0.00  0.00    +0.000 HD
ENDBRANCH  12  13
ENDBRANCH  11  12
ENDBRANCH   4  11
TORSDOF 5
ENDMDL
MODEL 7
REMARK VINA RESULT:    -5.263      4.252      6.449
REMARK INTER + INTRA:          -6.971
REMARK INTER:                  -6.749
REMARK INTRA:                  -0.221
REMARK UNBOUND:                -0.323
REMARK  Name = 
REMARK  5 active torsions:
REMARK  status: ('A' for Active; 'I' for Inactive)
REMARK    1  A    between atoms: N_1  and  C_2
REMARK    2  A    between atoms: C_2  and  C_3
REMARK    3  A    between atoms: C_6  and  O_7
REMARK    4  A    between atoms: O_7  and  C_8
REMARK    5  A    between atoms: C_8  and  C_9
REMARK                            x       y       z     vdW  Elec       q    Type
REMARK                         _______ _______ _______ _____ _____    ______ ____
ROOT
ATOM      1  C   UNL     1      44.377   4.437  12.003  0.00  0.00    +0.000 A 
ATOM      2  C   UNL     1      44.815   5.604  12.604  0.00  0.00    +0.000 A 
ATOM      3  N   UNL     1      45.859   5.665  13.448  0.00  0.00    +0.000 NA
ATOM      4  C   UNL     1      46.488   4.507  13.686  0.00  0.00    +0.000 A 
ATOM      5  N   UNL     1      46.153   3.316  13.174  0.00  0.00    +0.000 NA
ATOM      6  C   UNL     1      45.089   3.310  12.346  0.00  0.00    +0.000 A 
ENDROOT
BRANCH   1   7
ATOM      7  C   UNL     1      43.235   4.431  11.044  0.00  0.00    +0.000 C 
BRANCH   7   8
ATOM      8  N   UNL     1      43.642   4.972   9.752  0.00  0.00    +0.000 NA
ATOM      9  H   UNL     1      43.276   4.384   9.004  0.00  0.00    +0.000 HD
ATOM     10  H   UNL     1      44.658   4.937   9.672  0.00  0.00    +0.000 HD
ENDBRANCH   7   8
ENDBRANCH   1   7
BRANCH   4  11
ATOM     11  O   UNL     1      47.631   4.509  14.457  0.00  0.00    +0.000 OA
BRANCH  11  12
ATOM     12  C   UNL     1      47.353   4.351  15.850  0.00  0.00    +0.000 C 
BRANCH  12  13
ATOM     13  C   UNL     1      48.593   4.786  16.648  0.00  0.00    +0.000 C 
ATOM     14  C   UNL     1      49.232   3.606  17.394  0.00  0.00    +0.000 C 
ATOM     15  C   UNL     1      48.421   3.196  18.622  0.00  0.00    +0.000 C 
ATOM     16  N   UNL     1      48.260   4.316  19.550  0.00  0.00    +0.000 NA
ATOM     17  C   UNL     1      47.581   5.444  18.911  0.00  0.00    +0.000 C 
ATOM     18  C   UNL     1      48.294   5.922  17.643  0.00  0.00    +0.000 C 
ATOM     19  H   UNL     1      49.181   4.619  19.865  0.00  0.00    +0.000 HD
ENDBRANCH  12  13
ENDBRANCH  11  12
ENDBRANCH   4  11
TORSDOF 5
ENDMDL
MODEL 8
REMARK VINA RESULT:    -5.181      3.921      7.469
REMARK INTER + INTRA:          -6.867
REMARK INTER:                  -6.562
REMARK INTRA:                  -0.305
REMARK UNBOUND:                -0.323
REMARK  Name = 
REMARK  5 active torsions:
REMARK  status: ('A' for Active; 'I' for Inactive)
REMARK    1  A    between atoms: N_1  and  C_2
REMARK    2  A    between atoms: C_2  and  C_3
REMARK    3  A    between atoms: C_6  and  O_7
REMARK    4  A    between atoms: O_7  and  C_8
REMARK    5  A    between atoms: C_8  and  C_9
REMARK                            x       y       z     vdW  Elec       q    Type
REMARK                         _______ _______ _______ _____ _____    ______ ____
ROOT
ATOM      1  C   UNL     1      48.158   4.728  17.115  0.00  0.00    +0.000 A 
ATOM      2  C   UNL     1      48.758   5.765  16.423  0.00  0.00    +0.000 A 
ATOM      3  N   UNL     1      48.503   6.052  15.134  0.00  0.00    +0.000 NA
ATOM      4  C   UNL     1      47.604   5.267  14.527  0.00  0.00    +0.000 A 
ATOM      5  N   UNL     1      46.965   4.232  15.088  0.00  0.00    +0.000 NA
ATOM      6  C   UNL     1      47.271   3.979  16.376  0.00  0.00    +0.000 A 
ENDROOT
BRANCH   1   7
ATOM      7  C   UNL     1      48.449   4.478  18.556  0.00  0.00    +0.000 C 
BRANCH   7   8
ATOM      8  N   UNL     1      48.168   3.091  18.907  0.00  0.00    +0.000 NA
ATOM      9  H   UNL     1      48.469   2.912  19.865  0.00  0.00    +0.000 HD
ATOM     10  H   UNL     1      48.717   2.470  18.315  0.00  0.00    +0.000 HD
ENDBRANCH   7   8
ENDBRANCH   1   7
BRANCH   4  11
ATOM     11  O   UNL     1      47.212   5.565  13.240  0.00  0.00    +0.000 OA
BRANCH  11  12
ATOM     12  C   UNL     1      46.262   4.629  12.726  0.00  0.00    +0.000 C 
BRANCH  12  13
ATOM     13  C   UNL     1      45.248   5.390  11.856  0.00  0.00    +0.000 C 
ATOM     14  C   UNL     1      43.960   5.706  12.629  0.00  0.00    +0.000 C 
ATOM     15  C   UNL     1      43.079   4.469  12.807  0.00  0.00    +0.000 C 
ATOM     16  N   UNL     1      42.728   3.877  11.517  0.00  0.00    +0.000 NA
ATOM     17  C   UNL     1      43.923   3.482  10.768  0.00  0.00    +0.000 C 
ATOM     18  C   UNL     1      44.897   4.644  10.556  0.00  0.00    +0.000 C 
ATOM     19  H   UNL     1      42.206   4.561  10.970  0.00  0.00    +0.000 HD
ENDBRANCH  12  13
ENDBRANCH  11  12
ENDBRANCH   4  11
TORSDOF 5
ENDMDL
MODEL 9
REMARK VINA RESULT:    -4.995      4.693      7.158
REMARK INTER + INTRA:          -6.632
REMARK INTER:                  -6.451
REMARK INTRA:                  -0.181
REMARK UNBOUND:                -0.323
REMARK  Name = 
REMARK  5 active torsions:
REMARK  status: ('A' for Active; 'I' for Inactive)
REMARK    1  A    between atoms: N_1  and  C_2
REMARK    2  A    between atoms: C_2  and  C_3
REMARK    3  A    between atoms: C_6  and  O_7
REMARK    4  A    between atoms: O_7  and  C_8
REMARK    5  A    between atoms: C_8  and  C_9
REMARK                            x       y       z     vdW  Elec       q    Type
REMARK                         _______ _______ _______ _____ _____    ______ ____
ROOT
ATOM      1  C   UNL     1      48.287   5.571  16.509  0.00  0.00    +0.000 A 
ATOM      2  C   UNL     1      48.339   5.923  15.172  0.00  0.00    +0.000 A 
ATOM      3  N   UNL     1      47.703   5.252  14.196  0.00  0.00    +0.000 NA
ATOM      4  C   UNL     1      46.982   4.194  14.587  0.00  0.00    +0.000 A 
ATOM      5  N   UNL     1      46.863   3.751  15.846  0.00  0.00    +0.000 NA
ATOM      6  C   UNL     1      47.535   4.452  16.782  0.00  0.00    +0.000 A 
ENDROOT
BRANCH   1   7
ATOM      7  C   UNL     1      48.982   6.374  17.557  0.00  0.00    +0.000 C 
BRANCH   7   8
ATOM      8  N   UNL     1      49.048   7.779  17.174  0.00  0.00    +0.000 NA
ATOM      9  H   UNL     1      49.236   7.853  16.175  0.00  0.00    +0.000 HD
ATOM     10  H   UNL     1      49.832   8.226  17.646  0.00  0.00    +0.000 HD
ENDBRANCH   7   8
ENDBRANCH   1   7
BRANCH   4  11
ATOM     11  O   UNL     1      46.217   3.521  13.659  0.00  0.00    +0.000 OA
BRANCH  11  12
ATOM     12  C   UNL     1      45.718   4.383  12.633  0.00  0.00    +0.000 C 
BRANCH  12  13
ATOM     13  C   UNL     1      44.635   5.290  13.241  0.00  0.00    +0.000 C 
ATOM     14  C   UNL     1      43.226   4.860  12.811  0.00  0.00    +0.000 C 
ATOM     15  C   UNL     1      42.924   5.246  11.363  0.00  0.00    +0.000 C 
ATOM     16  N   UNL     1      43.067   6.687  11.157  0.00  0.00    +0.000 NA
ATOM     17  C   UNL     1      44.421   7.140  11.478  0.00  0.00    +0.000 C 
ATOM     18  C   UNL     1      44.844   6.778  12.904  0.00  0.00    +0.000 C 
ATOM     19  H   UNL     1      42.403   7.174  11.760  0.00  0.00    +0.000 HD
ENDBRANCH  12  13
ENDBRANCH  11  12
ENDBRANCH   4  11
TORSDOF 5
ENDMDL
