MODEL 1
REMARK VINA RESULT:    -8.643      0.000      0.000
REMARK INTER + INTRA:         -13.577
REMARK INTER:                 -12.433
REMARK INTRA:                  -1.144
REMARK UNBOUND:                -1.144
REMARK  Name = 
REMARK  8 active torsions:
REMARK  status: ('A' for Active; 'I' for Inactive)
REMARK    1  A    between atoms: C_2  and  C_4
REMARK    2  A    between atoms: N_8  and  C_9
REMARK    3  A    between atoms: C_9  and  C_10
REMARK    4  A    between atoms: C_10  and  C_11
REMARK    5  A    between atoms: C_10  and  C_13
REMARK    6  A    between atoms: C_11  and  O_12
REMARK    7  A    between atoms: C_17  and  O_18
REMARK    8  A    between atoms: O_18  and  C_19
REMARK                            x       y       z     vdW  Elec       q    Type
REMARK                         _______ _______ _______ _____ _____    ______ ____
ROOT
ATOM      1  C   UNL     1      43.953   4.800  12.369  0.00  0.00    +0.000 C 
ENDROOT
BRANCH   1   2
ATOM      2  C   UNL     1      45.360   5.329  12.626  0.00  0.00    +0.000 A 
ATOM      3  C   UNL     1      45.969   6.169  11.681  0.00  0.00    +0.000 A 
ATOM      4  C   UNL     1      47.258   6.665  11.895  0.00  0.00    +0.000 A 
ATOM      5  C   UNL     1      47.964   6.328  13.053  0.00  0.00    +0.000 A 
ATOM      6  C   UNL     1      47.378   5.481  13.989  0.00  0.00    +0.000 A 
ATOM      7  C   UNL     1      46.090   4.984  13.773  0.00  0.00    +0.000 A 
BRANCH   6   8
ATOM      8  O   UNL     1      47.952   5.097  15.174  0.00  0.00    +0.000 OA
BRANCH   8   9
ATOM      9  C   UNL     1      47.268   4.139  16.009  0.00  0.00    +0.000 C 
ATOM     10  C   UNL     1      47.154   4.441  17.509  0.00  0.00    +0.000 C 
ATOM     11  O   UNL     1      47.837   3.217  17.864  0.00  0.00    +0.000 OA
ATOM     12  C   UNL     1      48.131   2.958  16.472  0.00  0.00    +0.000 C 
ENDBRANCH   8   9
ENDBRANCH   6   8
ENDBRANCH   1   2
BRANCH   1  13
ATOM     13  C   UNL     1      43.570   4.994  10.881  0.00  0.00    +0.000 C 
BRANCH  13  18
ATOM     14  C   UNL     1      46.654   2.702   7.498  0.00  0.00    +0.000 A 
ATOM     15  C   UNL     1      46.284   4.041   7.582  0.00  0.00    +0.000 A 
ATOM     16  C   UNL     1      45.291   4.420   8.491  0.00  0.00    +0.000 A 
ATOM     17  C   UNL     1      44.705   3.461   9.310  0.00  0.00    +0.000 A 
ATOM     18  N   UNL     1      43.656   3.728  10.166  0.00  0.00    +0.000 N 
ATOM     19  N   UNL     1      45.066   2.165   9.243  0.00  0.00    +0.000 NA
ATOM     20  C   UNL     1      46.014   1.807   8.340  0.00  0.00    +0.000 A 
ATOM     21  H   UNL     1      43.544   2.901  10.763  0.00  0.00    +0.000 HD
BRANCH  14  23
ATOM     22  N   UNL     1      47.875   2.942   5.410  0.00  0.00    +0.000 N 
ATOM     23  C   UNL     1      47.648   2.193   6.531  0.00  0.00    +0.000 C 
ATOM     24  O   UNL     1      48.263   1.155   6.730  0.00  0.00    +0.000 OA
ATOM     25  H   UNL     1      48.620   2.625   4.802  0.00  0.00    +0.000 HD
ATOM     26  H   UNL     1      47.579   3.904   5.325  0.00  0.00    +0.000 HD
ENDBRANCH  14  23
ENDBRANCH  13  18
ENDBRANCH   1  13
BRANCH   1  27
ATOM     27  C   UNL     1      43.770   3.336  12.826  0.00  0.00    +0.000 C 
BRANCH  27  28
ATOM     28  O   UNL     1      44.882   2.522  12.464  0.00  0.00    +0.000 OA
ATOM     29  H   UNL     1      45.568   3.108  12.098  0.00  0.00    +0.000 HD
ENDBRANCH  27  28
ENDBRANCH   1  27
TORSDOF 8
ENDMDL
MODEL 2
REMARK VINA RESULT:    -7.526      2.223      3.642
REMARK INTER + INTRA:         -11.970
REMARK INTER:                 -11.001
REMARK INTRA:                  -0.969
REMARK UNBOUND:                -1.144
REMARK  Name = 
REMARK  8 active torsions:
REMARK  status: ('A' for Active; 'I' for Inactive)
REMARK    1  A    between atoms: C_2  and  C_4
REMARK    2  A    between atoms: N_8  and  C_9
REMARK    3  A    between atoms: C_9  and  C_10
REMARK    4  A    between atoms: C_10  and  C_11
REMARK    5  A    between atoms: C_10  and  C_13
REMARK    6  A    between atoms: C_11  and  O_12
REMARK    7  A    between atoms: C_17  and  O_18
REMARK    8  A    between atoms: O_18  and  C_19
REMARK                            x       y       z     vdW  Elec       q    Type
REMARK                         _______ _______ _______ _____ _____    ______ ____
ROOT
ATOM      1  C   UNL     1      43.950   5.545  12.257  0.00  0.00    +0.000 C 
ENDROOT
BRANCH   1   2
ATOM      2  C   UNL     1      45.419   5.760  12.604  0.00  0.00    +0.000 A 
ATOM      3  C   UNL     1      45.983   5.072  13.689  0.00  0.00    +0.000 A 
ATOM      4  C   UNL     1      47.328   5.254  14.026  0.00  0.00    +0.000 A 
ATOM      5  C   UNL     1      48.131   6.127  13.289  0.00  0.00    +0.000 A 
ATOM      6  C   UNL     1      47.578   6.829  12.222  0.00  0.00    +0.000 A 
ATOM      7  C   UNL     1      46.234   6.648  11.887  0.00  0.00    +0.000 A 
BRANCH   6   8
ATOM      8  O   UNL     1      48.263   7.692  11.405  0.00  0.00    +0.000 OA
BRANCH   8   9
ATOM      9  C   UNL     1      49.321   8.499  11.963  0.00  0.00    +0.000 C 
ATOM     10  C   UNL     1      49.580   9.879  11.344  0.00  0.00    +0.000 C 
ATOM     11  O   UNL     1      50.951   9.541  11.030  0.00  0.00    +0.000 OA
ATOM     12  C   UNL     1      50.725   8.172  11.438  0.00  0.00    +0.000 C 
ENDBRANCH   8   9
ENDBRANCH   6   8
ENDBRANCH   1   2
BRANCH   1  13
ATOM     13  C   UNL     1      43.747   5.592  10.722  0.00  0.00    +0.000 C 
BRANCH  13  18
ATOM     14  C   UNL     1      46.504   2.463   7.754  0.00  0.00    +0.000 A 
ATOM     15  C   UNL     1      46.328   3.840   7.652  0.00  0.00    +0.000 A 
ATOM     16  C   UNL     1      45.391   4.471   8.476  0.00  0.00    +0.000 A 
ATOM     17  C   UNL     1      44.666   3.721   9.395  0.00  0.00    +0.000 A 
ATOM     18  N   UNL     1      43.658   4.243  10.180  0.00  0.00    +0.000 N 
ATOM     19  N   UNL     1      44.839   2.390   9.508  0.00  0.00    +0.000 NA
ATOM     20  C   UNL     1      45.735   1.786   8.686  0.00  0.00    +0.000 A 
ATOM     21  H   UNL     1      43.424   3.527  10.876  0.00  0.00    +0.000 HD
BRANCH  14  23
ATOM     22  N   UNL     1      48.522   2.350   6.403  0.00  0.00    +0.000 N 
ATOM     23  C   UNL     1      47.424   1.696   6.888  0.00  0.00    +0.000 C 
ATOM     24  O   UNL     1      47.228   0.516   6.631  0.00  0.00    +0.000 OA
ATOM     25  H   UNL     1      49.186   1.787   5.885  0.00  0.00    +0.000 HD
ATOM     26  H   UNL     1      48.846   3.229   6.778  0.00  0.00    +0.000 HD
ENDBRANCH  14  23
ENDBRANCH  13  18
ENDBRANCH   1  13
BRANCH   1  27
ATOM     27  C   UNL     1      43.370   4.254  12.875  0.00  0.00    +0.000 C 
BRANCH  27  28
ATOM     28  O   UNL     1      42.557   4.525  14.014  0.00  0.00    +0.000 OA
ATOM     29  H   UNL     1      41.659   4.206  13.815  0.00  0.00    +0.000 HD
ENDBRANCH  27  28
ENDBRANCH   1  27
TORSDOF 8
ENDMDL
MODEL 3
REMARK VINA RESULT:    -6.958      3.063      7.786
REMARK INTER + INTRA:         -11.152
REMARK INTER:                 -10.490
REMARK INTRA:                  -0.662
REMARK UNBOUND:                -1.144
REMARK  Name = 
REMARK  8 active torsions:
REMARK  status: ('A' for Active; 'I' for Inactive)
REMARK    1  A    between atoms: C_2  and  C_4
REMARK    2  A    between atoms: N_8  and  C_9
REMARK    3  A    between atoms: C_9  and  C_10
REMARK    4  A    between atoms: C_10  and  C_11
REMARK    5  A    between atoms: C_10  and  C_13
REMARK    6  A    between atoms: C_11  and  O_12
REMARK    7  A    between atoms: C_17  and  O_18
REMARK    8  A    between atoms: O_18  and  C_19
REMARK                            x       y       z     vdW  Elec       q    Type
REMARK                         _______ _______ _______ _____ _____    ______ ____
ROOT
ATOM      1  C   UNL     1      45.334   6.339  11.604  0.00  0.00    +0.000 C 
ENDROOT
BRANCH   1   2
ATOM      2  C   UNL     1      45.090   5.146  10.688  0.00  0.00    +0.000 A 
ATOM      3  C   UNL     1      44.258   4.100  11.117  0.00  0.00    +0.000 A 
ATOM      4  C   UNL     1      44.020   2.995  10.295  0.00  0.00    +0.000 A 
ATOM      5  C   UNL     1      44.611   2.912   9.032  0.00  0.00    +0.000 A 
ATOM      6  C   UNL     1      45.453   3.934   8.602  0.00  0.00    +0.000 A 
ATOM      7  C   UNL     1      45.691   5.036   9.425  0.00  0.00    +0.000 A 
BRANCH   6   8
ATOM      8  O   UNL     1      46.069   3.985   7.378  0.00  0.00    +0.000 OA
BRANCH   8   9
ATOM      9  C   UNL     1      46.324   2.756   6.665  0.00  0.00    +0.000 C 
ATOM     10  C   UNL     1      47.461   1.855   7.162  0.00  0.00    +0.000 C 
ATOM     11  O   UNL     1      48.143   1.920   5.888  0.00  0.00    +0.000 OA
ATOM     12  C   UNL     1      47.200   2.908   5.414  0.00  0.00    +0.000 C 
ENDBRANCH   8   9
ENDBRANCH   6   8
ENDBRANCH   1   2
BRANCH   1  13
ATOM     13  C   UNL     1      46.854   6.574  11.786  0.00  0.00    +0.000 C 
BRANCH  13  18
ATOM     14  C   UNL     1      47.985   4.116  16.131  0.00  0.00    +0.000 A 
ATOM     15  C   UNL     1      47.099   3.751  15.121  0.00  0.00    +0.000 A 
ATOM     16  C   UNL     1      46.820   4.661  14.097  0.00  0.00    +0.000 A 
ATOM     17  C   UNL     1      47.442   5.904  14.090  0.00  0.00    +0.000 A 
ATOM     18  N   UNL     1      47.156   6.895  13.174  0.00  0.00    +0.000 N 
ATOM     19  N   UNL     1      48.310   6.260  15.057  0.00  0.00    +0.000 NA
ATOM     20  C   UNL     1      48.555   5.376  16.059  0.00  0.00    +0.000 A 
ATOM     21  H   UNL     1      47.873   7.620  13.290  0.00  0.00    +0.000 HD
BRANCH  14  23
ATOM     22  N   UNL     1      47.518   3.379  18.400  0.00  0.00    +0.000 N 
ATOM     23  C   UNL     1      48.299   3.250  17.287  0.00  0.00    +0.000 C 
ATOM     24  O   UNL     1      49.209   2.433  17.246  0.00  0.00    +0.000 OA
ATOM     25  H   UNL     1      47.690   2.719  19.149  0.00  0.00    +0.000 HD
ATOM     26  H   UNL     1      46.626   3.852  18.392  0.00  0.00    +0.000 HD
ENDBRANCH  14  23
ENDBRANCH  13  18
ENDBRANCH   1  13
BRANCH   1  27
ATOM     27  C   UNL     1      44.607   7.617  11.131  0.00  0.00    +0.000 C 
BRANCH  27  28
ATOM     28  O   UNL     1      43.191   7.450  11.114  0.00  0.00    +0.000 OA
ATOM     29  H   UNL     1      42.944   7.141  10.224  0.00  0.00    +0.000 HD
ENDBRANCH  27  28
ENDBRANCH   1  27
TORSDOF 8
ENDMDL
MODEL 4
REMARK VINA RESULT:    -6.304      3.354      7.987
REMARK INTER + INTRA:         -10.212
REMARK INTER:                  -9.697
REMARK INTRA:                  -0.515
REMARK UNBOUND:                -1.144
REMARK  Name = 
REMARK  8 active torsions:
REMARK  status: ('A' for Active; 'I' for Inactive)
REMARK    1  A    between atoms: C_2  and  C_4
REMARK    2  A    between atoms: N_8  and  C_9
REMARK    3  A    between atoms: C_9  and  C_10
REMARK    4  A    between atoms: C_10  and  C_11
REMARK    5  A    between atoms: C_10  and  C_13
REMARK    6  A    between atoms: C_11  and  O_12
REMARK    7  A    between atoms: C_17  and  O_18
REMARK    8  A    between atoms: O_18  and  C_19
REMARK                            x       y       z     vdW  Elec       q    Type
REMARK                         _______ _______ _______ _____ _____    ______ ____
ROOT
ATOM      1  C   UNL     1      44.432   4.447  12.732  0.00  0.00    +0.000 C 
ENDROOT
BRANCH   1   2
ATOM      2  C   UNL     1      44.907   4.427  11.283  0.00  0.00    +0.000 A 
ATOM      3  C   UNL     1      45.316   5.621  10.670  0.00  0.00    +0.000 A 
ATOM      4  C   UNL     1      45.754   5.627   9.343  0.00  0.00    +0.000 A 
ATOM      5  C   UNL     1      45.789   4.443   8.603  0.00  0.00    +0.000 A 
ATOM      6  C   UNL     1      45.368   3.255   9.193  0.00  0.00    +0.000 A 
ATOM      7  C   UNL     1      44.928   3.250  10.519  0.00  0.00    +0.000 A 
BRANCH   6   8
ATOM      8  O   UNL     1      45.379   2.025   8.587  0.00  0.00    +0.000 OA
BRANCH   8   9
ATOM      9  C   UNL     1      46.619   1.514   8.052  0.00  0.00    +0.000 C 
ATOM     10  C   UNL     1      46.896   1.713   6.557  0.00  0.00    +0.000 C 
ATOM     11  O   UNL     1      47.022   0.290   6.335  0.00  0.00    +0.000 OA
ATOM     12  C   UNL     1      46.597   0.023   7.691  0.00  0.00    +0.000 C 
ENDBRANCH   8   9
ENDBRANCH   6   8
ENDBRANCH   1   2
BRANCH   1  13
ATOM     13  C   UNL     1      45.507   5.093  13.641  0.00  0.00    +0.000 C 
BRANCH  13  18
ATOM     14  C   UNL     1      48.951   4.751  17.412  0.00  0.00    +0.000 A 
ATOM     15  C   UNL     1      48.805   5.740  16.444  0.00  0.00    +0.000 A 
ATOM     16  C   UNL     1      47.894   5.545  15.401  0.00  0.00    +0.000 A 
ATOM     17  C   UNL     1      47.136   4.381  15.357  0.00  0.00    +0.000 A 
ATOM     18  N   UNL     1      46.284   4.065  14.318  0.00  0.00    +0.000 N 
ATOM     19  N   UNL     1      47.262   3.425  16.297  0.00  0.00    +0.000 NA
ATOM     20  C   UNL     1      48.167   3.615  17.291  0.00  0.00    +0.000 A 
ATOM     21  H   UNL     1      45.732   3.256  14.624  0.00  0.00    +0.000 HD
BRANCH  14  23
ATOM     22  N   UNL     1      49.778   3.959  19.557  0.00  0.00    +0.000 N 
ATOM     23  C   UNL     1      49.927   4.835  18.518  0.00  0.00    +0.000 C 
ATOM     24  O   UNL     1      50.848   5.641  18.500  0.00  0.00    +0.000 OA
ATOM     25  H   UNL     1      50.505   3.972  20.262  0.00  0.00    +0.000 HD
ATOM     26  H   UNL     1      49.197   3.136  19.500  0.00  0.00    +0.000 HD
ENDBRANCH  14  23
ENDBRANCH  13  18
ENDBRANCH   1  13
BRANCH   1  27
ATOM     27  C   UNL     1      43.053   5.121  12.901  0.00  0.00    +0.000 C 
BRANCH  27  28
ATOM     28  O   UNL     1      42.184   4.842  11.807  0.00  0.00    +0.000 OA
ATOM     29  H   UNL     1      41.487   5.522  11.804  0.00  0.00    +0.000 HD
ENDBRANCH  27  28
ENDBRANCH   1  27
TORSDOF 8
ENDMDL
MODEL 5
REMARK VINA RESULT:    -6.287      3.170      7.801
REMARK INTER + INTRA:         -10.187
REMARK INTER:                  -9.356
REMARK INTRA:                  -0.831
REMARK UNBOUND:                -1.144
REMARK  Name = 
REMARK  8 active torsions:
REMARK  status: ('A' for Active; 'I' for Inactive)
REMARK    1  A    between atoms: C_2  and  C_4
REMARK    2  A    between atoms: N_8  and  C_9
REMARK    3  A    between atoms: C_9  and  C_10
REMARK    4  A    between atoms: C_10  and  C_11
REMARK    5  A    between atoms: C_10  and  C_13
REMARK    6  A    between atoms: C_11  and  O_12
REMARK    7  A    between atoms: C_17  and  O_18
REMARK    8  A    between atoms: O_18  and  C_19
REMARK                            x       y       z     vdW  Elec       q    Type
REMARK                         _______ _______ _______ _____ _____    ______ ____
ROOT
ATOM      1  C   UNL     1      45.779   7.215  12.590  0.00  0.00    +0.000 C 
ENDROOT
BRANCH   1   2
ATOM      2  C   UNL     1      44.887   6.101  12.054  0.00  0.00    +0.000 A 
ATOM      3  C   UNL     1      43.912   5.531  12.887  0.00  0.00    +0.000 A 
ATOM      4  C   UNL     1      43.084   4.507  12.417  0.00  0.00    +0.000 A 
ATOM      5  C   UNL     1      43.216   4.032  11.110  0.00  0.00    +0.000 A 
ATOM      6  C   UNL     1      44.192   4.577  10.280  0.00  0.00    +0.000 A 
ATOM      7  C   UNL     1      45.020   5.598  10.751  0.00  0.00    +0.000 A 
BRANCH   6   8
ATOM      8  O   UNL     1      44.405   4.219   8.973  0.00  0.00    +0.000 OA
BRANCH   8   9
ATOM      9  C   UNL     1      45.677   3.650   8.597  0.00  0.00    +0.000 C 
ATOM     10  C   UNL     1      45.974   3.470   7.103  0.00  0.00    +0.000 C 
ATOM     11  O   UNL     1      46.170   2.045   7.258  0.00  0.00    +0.000 OA
ATOM     12  C   UNL     1      45.732   2.117   8.634  0.00  0.00    +0.000 C 
ENDBRANCH   8   9
ENDBRANCH   6   8
ENDBRANCH   1   2
BRANCH   1  13
ATOM     13  C   UNL     1      47.271   6.821  12.455  0.00  0.00    +0.000 C 
BRANCH  13  18
ATOM     14  C   UNL     1      48.014   4.724  17.065  0.00  0.00    +0.000 A 
ATOM     15  C   UNL     1      48.467   5.944  16.572  0.00  0.00    +0.000 A 
ATOM     16  C   UNL     1      48.286   6.244  15.219  0.00  0.00    +0.000 A 
ATOM     17  C   UNL     1      47.641   5.332  14.391  0.00  0.00    +0.000 A 
ATOM     18  N   UNL     1      47.503   5.503  13.029  0.00  0.00    +0.000 N 
ATOM     19  N   UNL     1      47.188   4.154  14.863  0.00  0.00    +0.000 NA
ATOM     20  C   UNL     1      47.392   3.865  16.174  0.00  0.00    +0.000 A 
ATOM     21  H   UNL     1      46.846   4.784  12.706  0.00  0.00    +0.000 HD
BRANCH  14  23
ATOM     22  N   UNL     1      47.660   5.065  19.446  0.00  0.00    +0.000 N 
ATOM     23  C   UNL     1      48.210   4.290  18.464  0.00  0.00    +0.000 C 
ATOM     24  O   UNL     1      48.822   3.266  18.737  0.00  0.00    +0.000 OA
ATOM     25  H   UNL     1      47.728   4.707  20.391  0.00  0.00    +0.000 HD
ATOM     26  H   UNL     1      46.957   5.765  19.261  0.00  0.00    +0.000 HD
ENDBRANCH  14  23
ENDBRANCH  13  18
ENDBRANCH   1  13
BRANCH   1  27
ATOM     27  C   UNL     1      45.484   8.584  11.940  0.00  0.00    +0.000 C 
BRANCH  27  28
ATOM     28  O   UNL     1      44.549   9.345  12.700  0.00  0.00    +0.000 OA
ATOM     29  H   UNL     1      43.686   9.278  12.254  0.00  0.00    +0.000 HD
ENDBRANCH  27  28
ENDBRANCH   1  27
TORSDOF 8
ENDMDL
MODEL 6
REMARK VINA RESULT:    -6.247      3.519      7.019
REMARK INTER + INTRA:         -10.130
REMARK INTER:                  -9.988
REMARK INTRA:                  -0.142
REMARK UNBOUND:                -1.144
REMARK  Name = 
REMARK  8 active torsions:
REMARK  status: ('A' for Active; 'I' for Inactive)
REMARK    1  A    between atoms: C_2  and  C_4
REMARK    2  A    between atoms: N_8  and  C_9
REMARK    3  A    between atoms: C_9  and  C_10
REMARK    4  A    between atoms: C_10  and  C_11
REMARK    5  A    between atoms: C_10  and  C_13
REMARK    6  A    between atoms: C_11  and  O_12
REMARK    7  A    between atoms: C_17  and  O_18
REMARK    8  A    between atoms: O_18  and  C_19
REMARK                            x       y       z     vdW  Elec       q    Type
REMARK                         _______ _______ _______ _____ _____    ______ ____
ROOT
ATOM      1  C   UNL     1      44.826   4.496  12.801  0.00  0.00    +0.000 C 
ENDROOT
BRANCH   1   2
ATOM      2  C   UNL     1      45.080   4.358  11.304  0.00  0.00    +0.000 A 
ATOM      3  C   UNL     1      45.294   5.508  10.528  0.00  0.00    +0.000 A 
ATOM      4  C   UNL     1      45.528   5.407   9.154  0.00  0.00    +0.000 A 
ATOM      5  C   UNL     1      45.549   4.158   8.529  0.00  0.00    +0.000 A 
ATOM      6  C   UNL     1      45.320   3.011   9.284  0.00  0.00    +0.000 A 
ATOM      7  C   UNL     1      45.085   3.114  10.657  0.00  0.00    +0.000 A 
BRANCH   6   8
ATOM      8  O   UNL     1      45.342   1.729   8.799  0.00  0.00    +0.000 OA
BRANCH   8   9
ATOM      9  C   UNL     1      46.008   1.462   7.546  0.00  0.00    +0.000 C 
ATOM     10  C   UNL     1      46.958   0.259   7.476  0.00  0.00    +0.000 C 
ATOM     11  O   UNL     1      48.075   1.094   7.092  0.00  0.00    +0.000 OA
ATOM     12  C   UNL     1      47.282   2.284   7.307  0.00  0.00    +0.000 C 
ENDBRANCH   8   9
ENDBRANCH   6   8
ENDBRANCH   1   2
BRANCH   1  13
ATOM     13  C   UNL     1      45.392   5.840  13.321  0.00  0.00    +0.000 C 
BRANCH  13  18
ATOM     14  C   UNL     1      50.067   7.883  12.895  0.00  0.00    +0.000 A 
ATOM     15  C   UNL     1      49.109   7.669  11.908  0.00  0.00    +0.000 A 
ATOM     16  C   UNL     1      47.959   6.938  12.220  0.00  0.00    +0.000 A 
ATOM     17  C   UNL     1      47.778   6.456  13.511  0.00  0.00    +0.000 A 
ATOM     18  N   UNL     1      46.722   5.649  13.883  0.00  0.00    +0.000 N 
ATOM     19  N   UNL     1      48.694   6.670  14.475  0.00  0.00    +0.000 NA
ATOM     20  C   UNL     1      49.818   7.360  14.153  0.00  0.00    +0.000 A 
ATOM     21  H   UNL     1      46.740   5.592  14.907  0.00  0.00    +0.000 HD
BRANCH  14  23
ATOM     22  N   UNL     1      52.463   8.090  13.249  0.00  0.00    +0.000 N 
ATOM     23  C   UNL     1      51.341   8.590  12.650  0.00  0.00    +0.000 C 
ATOM     24  O   UNL     1      51.399   9.572  11.922  0.00  0.00    +0.000 OA
ATOM     25  H   UNL     1      53.339   8.533  13.001  0.00  0.00    +0.000 HD
ATOM     26  H   UNL     1      52.504   7.164  13.648  0.00  0.00    +0.000 HD
ENDBRANCH  14  23
ENDBRANCH  13  18
ENDBRANCH   1  13
BRANCH   1  27
ATOM     27  C   UNL     1      43.339   4.313  13.176  0.00  0.00    +0.000 C 
BRANCH  27  28
ATOM     28  O   UNL     1      42.704   5.557  13.460  0.00  0.00    +0.000 OA
ATOM     29  H   UNL     1      42.030   5.706  12.773  0.00  0.00    +0.000 HD
ENDBRANCH  27  28
ENDBRANCH   1  27
TORSDOF 8
ENDMDL
MODEL 7
REMARK VINA RESULT:    -6.090      2.981      4.734
REMARK INTER + INTRA:          -9.903
REMARK INTER:                  -9.106
REMARK INTRA:                  -0.798
REMARK UNBOUND:                -1.144
REMARK  Name = 
REMARK  8 active torsions:
REMARK  status: ('A' for Active; 'I' for Inactive)
REMARK    1  A    between atoms: C_2  and  C_4
REMARK    2  A    between atoms: N_8  and  C_9
REMARK    3  A    between atoms: C_9  and  C_10
REMARK    4  A    between atoms: C_10  and  C_11
REMARK    5  A    between atoms: C_10  and  C_13
REMARK    6  A    between atoms: C_11  and  O_12
REMARK    7  A    between atoms: C_17  and  O_18
REMARK    8  A    between atoms: O_18  and  C_19
REMARK                            x       y       z     vdW  Elec       q    Type
REMARK                         _______ _______ _______ _____ _____    ______ ____
ROOT
ATOM      1  C   UNL     1      47.812   7.975  12.879  0.00  0.00    +0.000 C 
ENDROOT
BRANCH   1   2
ATOM      2  C   UNL     1      48.239   7.757  14.326  0.00  0.00    +0.000 A 
ATOM      3  C   UNL     1      48.254   8.842  15.216  0.00  0.00    +0.000 A 
ATOM      4  C   UNL     1      48.642   8.666  16.547  0.00  0.00    +0.000 A 
ATOM      5  C   UNL     1      49.026   7.405  17.012  0.00  0.00    +0.000 A 
ATOM      6  C   UNL     1      49.033   6.325  16.135  0.00  0.00    +0.000 A 
ATOM      7  C   UNL     1      48.646   6.503  14.804  0.00  0.00    +0.000 A 
BRANCH   6   8
ATOM      8  O   UNL     1      49.360   5.037  16.472  0.00  0.00    +0.000 OA
BRANCH   8   9
ATOM      9  C   UNL     1      48.577   4.350  17.471  0.00  0.00    +0.000 C 
ATOM     10  C   UNL     1      48.240   2.872  17.233  0.00  0.00    +0.000 C 
ATOM     11  O   UNL     1      46.818   3.129  17.298  0.00  0.00    +0.000 OA
ATOM     12  C   UNL     1      47.061   4.554  17.351  0.00  0.00    +0.000 C 
ENDBRANCH   8   9
ENDBRANCH   6   8
ENDBRANCH   1   2
BRANCH   1  13
ATOM     13  C   UNL     1      46.487   8.775  12.824  0.00  0.00    +0.000 C 
BRANCH  13  18
ATOM     14  C   UNL     1      44.430   4.318  11.370  0.00  0.00    +0.000 A 
ATOM     15  C   UNL     1      45.015   5.311  10.589  0.00  0.00    +0.000 A 
ATOM     16  C   UNL     1      45.362   6.529  11.182  0.00  0.00    +0.000 A 
ATOM     17  C   UNL     1      45.139   6.724  12.540  0.00  0.00    +0.000 A 
ATOM     18  N   UNL     1      45.363   7.922  13.186  0.00  0.00    +0.000 N 
ATOM     19  N   UNL     1      44.585   5.763  13.305  0.00  0.00    +0.000 NA
ATOM     20  C   UNL     1      44.230   4.594  12.713  0.00  0.00    +0.000 A 
ATOM     21  H   UNL     1      45.287   7.734  14.192  0.00  0.00    +0.000 HD
BRANCH  14  23
ATOM     22  N   UNL     1      43.391   2.145  11.698  0.00  0.00    +0.000 N 
ATOM     23  C   UNL     1      43.973   3.022  10.827  0.00  0.00    +0.000 C 
ATOM     24  O   UNL     1      44.090   2.749   9.640  0.00  0.00    +0.000 OA
ATOM     25  H   UNL     1      43.005   1.301  11.293  0.00  0.00    +0.000 HD
ATOM     26  H   UNL     1      43.059   2.419  12.611  0.00  0.00    +0.000 HD
ENDBRANCH  14  23
ENDBRANCH  13  18
ENDBRANCH   1  13
BRANCH   1  27
ATOM     27  C   UNL     1      48.916   8.630  12.020  0.00  0.00    +0.000 C 
BRANCH  27  28
ATOM     28  O   UNL     1      49.865   7.676  11.552  0.00  0.00    +0.000 OA
ATOM     29  H   UNL     1      50.516   8.153  11.006  0.00  0.00    +0.000 HD
ENDBRANCH  27  28
ENDBRANCH   1  27
TORSDOF 8
ENDMDL
MODEL 8
REMARK VINA RESULT:    -5.968      3.418      6.163
REMARK INTER + INTRA:          -9.728
REMARK INTER:                  -8.975
REMARK INTRA:                  -0.754
REMARK UNBOUND:                -1.144
REMARK  Name = 
REMARK  8 active torsions:
REMARK  status: ('A' for Active; 'I' for Inactive)
REMARK    1  A    between atoms: C_2  and  C_4
REMARK    2  A    between atoms: N_8  and  C_9
REMARK    3  A    between atoms: C_9  and  C_10
REMARK    4  A    between atoms: C_10  and  C_11
REMARK    5  A    between atoms: C_10  and  C_13
REMARK    6  A    between atoms: C_11  and  O_12
REMARK    7  A    between atoms: C_17  and  O_18
REMARK    8  A    between atoms: O_18  and  C_19
REMARK                            x       y       z     vdW  Elec       q    Type
REMARK                         _______ _______ _______ _____ _____    ______ ____
ROOT
ATOM      1  C   UNL     1      48.136   3.542  17.248  0.00  0.00    +0.000 C 
ENDROOT
BRANCH   1   2
ATOM      2  C   UNL     1      48.215   4.467  18.457  0.00  0.00    +0.000 A 
ATOM      3  C   UNL     1      48.858   4.029  19.625  0.00  0.00    +0.000 A 
ATOM      4  C   UNL     1      48.941   4.859  20.747  0.00  0.00    +0.000 A 
ATOM      5  C   UNL     1      48.380   6.138  20.724  0.00  0.00    +0.000 A 
ATOM      6  C   UNL     1      47.724   6.577  19.578  0.00  0.00    +0.000 A 
ATOM      7  C   UNL     1      47.640   5.746  18.459  0.00  0.00    +0.000 A 
BRANCH   6   8
ATOM      8  O   UNL     1      47.158   7.816  19.419  0.00  0.00    +0.000 OA
BRANCH   8   9
ATOM      9  C   UNL     1      48.000   8.935  19.070  0.00  0.00    +0.000 C 
ATOM     10  C   UNL     1      47.445  10.350  19.281  0.00  0.00    +0.000 C 
ATOM     11  O   UNL     1      47.612  10.684  17.884  0.00  0.00    +0.000 OA
ATOM     12  C   UNL     1      47.978   9.318  17.583  0.00  0.00    +0.000 C 
ENDBRANCH   8   9
ENDBRANCH   6   8
ENDBRANCH   1   2
BRANCH   1  13
ATOM     13  C   UNL     1      47.883   4.363  15.959  0.00  0.00    +0.000 C 
BRANCH  13  18
ATOM     14  C   UNL     1      45.639   4.865  11.385  0.00  0.00    +0.000 A 
ATOM     15  C   UNL     1      46.291   5.825  12.154  0.00  0.00    +0.000 A 
ATOM     16  C   UNL     1      46.685   5.505  13.456  0.00  0.00    +0.000 A 
ATOM     17  C   UNL     1      46.441   4.232  13.957  0.00  0.00    +0.000 A 
ATOM     18  N   UNL     1      46.710   3.859  15.258  0.00  0.00    +0.000 N 
ATOM     19  N   UNL     1      45.822   3.293  13.216  0.00  0.00    +0.000 NA
ATOM     20  C   UNL     1      45.423   3.624  11.961  0.00  0.00    +0.000 A 
ATOM     21  H   UNL     1      46.602   2.840  15.302  0.00  0.00    +0.000 HD
BRANCH  14  23
ATOM     22  N   UNL     1      43.780   5.049   9.830  0.00  0.00    +0.000 N 
ATOM     23  C   UNL     1      45.131   5.123  10.022  0.00  0.00    +0.000 C 
ATOM     24  O   UNL     1      45.884   5.415   9.103  0.00  0.00    +0.000 OA
ATOM     25  H   UNL     1      43.442   5.314   8.913  0.00  0.00    +0.000 HD
ATOM     26  H   UNL     1      43.117   5.054  10.591  0.00  0.00    +0.000 HD
ENDBRANCH  14  23
ENDBRANCH  13  18
ENDBRANCH   1  13
BRANCH   1  27
ATOM     27  C   UNL     1      49.372   2.625  17.113  0.00  0.00    +0.000 C 
BRANCH  27  28
ATOM     28  O   UNL     1      49.309   1.813  15.943  0.00  0.00    +0.000 OA
ATOM     29  H   UNL     1      50.210   1.493  15.760  0.00  0.00    +0.000 HD
ENDBRANCH  27  28
ENDBRANCH   1  27
TORSDOF 8
ENDMDL
