MODEL 1
REMARK VINA RESULT:    -8.658      0.000      0.000
REMARK INTER + INTRA:         -11.785
REMARK INTER:                 -11.189
REMARK INTRA:                  -0.596
REMARK UNBOUND:                -0.596
REMARK  Name = 
REMARK  5 active torsions:
REMARK  status: ('A' for Active; 'I' for Inactive)
REMARK    1  A    between atoms: C_2  and  C_4
REMARK    2  A    between atoms: C_7  and  O_8
REMARK    3  A    between atoms: O_8  and  C_9
REMARK    4  A    between atoms: C_9  and  C_10
REMARK    5  A    between atoms: C_14  and  C_15
REMARK                            x       y       z     vdW  Elec       q    Type
REMARK                         _______ _______ _______ _____ _____    ______ ____
ROOT
ATOM      1  C   UNL     1      43.416   4.369  11.014  0.00  0.00    +0.000 C 
ENDROOT
BRANCH   1   2
ATOM      2  C   UNL     1      44.580   4.815  11.858  0.00  0.00    +0.000 A 
ATOM      3  C   UNL     1      45.062   3.991  12.867  0.00  0.00    +0.000 A 
ATOM      4  N   UNL     1      46.125   4.289  13.640  0.00  0.00    +0.000 NA
ATOM      5  C   UNL     1      46.746   5.468  13.390  0.00  0.00    +0.000 A 
ATOM      6  C   UNL     1      46.382   6.377  12.394  0.00  0.00    +0.000 A 
ATOM      7  C   UNL     1      45.273   6.007  11.616  0.00  0.00    +0.000 A 
BRANCH   6   8
ATOM      8  C   UNL     1      47.115   7.637  12.165  0.00  0.00    +0.000 A 
ATOM      9  C   UNL     1      48.477   7.665  11.829  0.00  0.00    +0.000 A 
ATOM     10  C   UNL     1      49.134   8.877  11.615  0.00  0.00    +0.000 A 
ATOM     11  C   UNL     1      48.408  10.048  11.735  0.00  0.00    +0.000 A 
ATOM     12  N   UNL     1      47.101  10.083  12.056  0.00  0.00    +0.000 NA
ATOM     13  C   UNL     1      46.496   8.888  12.267  0.00  0.00    +0.000 A 
ENDBRANCH   6   8
ENDBRANCH   1   2
BRANCH   1  14
ATOM     14  O   UNL     1      43.607   4.751   9.647  0.00  0.00    +0.000 OA
BRANCH  14  18
ATOM     15  C   UNL     1      46.321   2.287   7.773  0.00  0.00    +0.000 A 
ATOM     16  C   UNL     1      45.418   1.746   8.690  0.00  0.00    +0.000 A 
ATOM     17  C   UNL     1      44.505   2.592   9.324  0.00  0.00    +0.000 A 
ATOM     18  C   UNL     1      44.532   3.945   9.014  0.00  0.00    +0.000 A 
ATOM     19  N   UNL     1      45.401   4.492   8.141  0.00  0.00    +0.000 NA
ATOM     20  C   UNL     1      46.283   3.655   7.547  0.00  0.00    +0.000 A 
BRANCH  15  22
ATOM     21  N   UNL     1      48.439   2.132   6.595  0.00  0.00    +0.000 N 
ATOM     22  C   UNL     1      47.321   1.485   7.039  0.00  0.00    +0.000 C 
ATOM     23  O   UNL     1      47.178   0.280   6.879  0.00  0.00    +0.000 OA
ATOM     24  H   UNL     1      49.166   1.544   6.205  0.00  0.00    +0.000 HD
ATOM     25  H   UNL     1      48.708   3.046   6.926  0.00  0.00    +0.000 HD
ENDBRANCH  15  22
ENDBRANCH  14  18
ENDBRANCH   1  14
TORSDOF 5
ENDMDL
MODEL 2
REMARK VINA RESULT:    -8.650      1.374      1.503
REMARK INTER + INTRA:         -11.775
REMARK INTER:                 -10.995
REMARK INTRA:                  -0.780
REMARK UNBOUND:                -0.596
REMARK  Name = 
REMARK  5 active torsions:
REMARK  status: ('A' for Active; 'I' for Inactive)
REMARK    1  A    between atoms: C_2  and  C_4
REMARK    2  A    between atoms: C_7  and  O_8
REMARK    3  A    between atoms: O_8  and  C_9
REMARK    4  A    between atoms: C_9  and  C_10
REMARK    5  A    between atoms: C_14  and  C_15
REMARK                            x       y       z     vdW  Elec       q    Type
REMARK                         _______ _______ _______ _____ _____    ______ ____
ROOT
ATOM      1  C   UNL     1      43.779   5.158  10.672  0.00  0.00    +0.000 C 
ENDROOT
BRANCH   1   2
ATOM      2  C   UNL     1      44.817   5.152  11.762  0.00  0.00    +0.000 A 
ATOM      3  C   UNL     1      44.719   4.247  12.809  0.00  0.00    +0.000 A 
ATOM      4  N   UNL     1      45.625   4.141  13.802  0.00  0.00    +0.000 NA
ATOM      5  C   UNL     1      46.689   4.979  13.744  0.00  0.00    +0.000 A 
ATOM      6  C   UNL     1      46.924   5.918  12.737  0.00  0.00    +0.000 A 
ATOM      7  C   UNL     1      45.950   5.974  11.727  0.00  0.00    +0.000 A 
BRANCH   6   8
ATOM      8  C   UNL     1      48.116   6.787  12.726  0.00  0.00    +0.000 A 
ATOM      9  C   UNL     1      48.525   7.491  11.584  0.00  0.00    +0.000 A 
ATOM     10  C   UNL     1      49.656   8.306  11.615  0.00  0.00    +0.000 A 
ATOM     11  C   UNL     1      50.359   8.410  12.801  0.00  0.00    +0.000 A 
ATOM     12  N   UNL     1      50.015   7.758  13.928  0.00  0.00    +0.000 NA
ATOM     13  C   UNL     1      48.917   6.966  13.860  0.00  0.00    +0.000 A 
ENDBRANCH   6   8
ENDBRANCH   1   2
BRANCH   1  14
ATOM     14  O   UNL     1      43.545   3.830  10.190  0.00  0.00    +0.000 OA
BRANCH  14  18
ATOM     15  C   UNL     1      46.401   2.582   7.500  0.00  0.00    +0.000 A 
ATOM     16  C   UNL     1      45.897   1.680   8.439  0.00  0.00    +0.000 A 
ATOM     17  C   UNL     1      44.932   2.114   9.349  0.00  0.00    +0.000 A 
ATOM     18  C   UNL     1      44.509   3.435   9.285  0.00  0.00    +0.000 A 
ATOM     19  N   UNL     1      44.989   4.328   8.395  0.00  0.00    +0.000 NA
ATOM     20  C   UNL     1      45.931   3.887   7.530  0.00  0.00    +0.000 A 
BRANCH  15  22
ATOM     21  N   UNL     1      47.456   2.984   5.349  0.00  0.00    +0.000 N 
ATOM     22  C   UNL     1      47.415   2.228   6.486  0.00  0.00    +0.000 C 
ATOM     23  O   UNL     1      48.218   1.324   6.677  0.00  0.00    +0.000 OA
ATOM     24  H   UNL     1      48.233   2.805   4.726  0.00  0.00    +0.000 HD
ATOM     25  H   UNL     1      46.993   3.878   5.272  0.00  0.00    +0.000 HD
ENDBRANCH  15  22
ENDBRANCH  14  18
ENDBRANCH   1  14
TORSDOF 5
ENDMDL
MODEL 3
REMARK VINA RESULT:    -8.009      1.581      2.285
REMARK INTER + INTRA:         -10.946
REMARK INTER:                 -10.252
REMARK INTRA:                  -0.695
REMARK UNBOUND:                -0.596
REMARK  Name = 
REMARK  5 active torsions:
REMARK  status: ('A' for Active; 'I' for Inactive)
REMARK    1  A    between atoms: C_2  and  C_4
REMARK    2  A    between atoms: C_7  and  O_8
REMARK    3  A    between atoms: O_8  and  C_9
REMARK    4  A    between atoms: C_9  and  C_10
REMARK    5  A    between atoms: C_14  and  C_15
REMARK                            x       y       z     vdW  Elec       q    Type
REMARK                         _______ _______ _______ _____ _____    ______ ____
ROOT
ATOM      1  C   UNL     1      44.134   4.735  11.349  0.00  0.00    +0.000 C 
ENDROOT
BRANCH   1   2
ATOM      2  C   UNL     1      44.855   6.026  11.633  0.00  0.00    +0.000 A 
ATOM      3  C   UNL     1      44.250   7.240  11.335  0.00  0.00    +0.000 A 
ATOM      4  N   UNL     1      44.802   8.441  11.596  0.00  0.00    +0.000 NA
ATOM      5  C   UNL     1      46.019   8.433  12.192  0.00  0.00    +0.000 A 
ATOM      6  C   UNL     1      46.727   7.289  12.568  0.00  0.00    +0.000 A 
ATOM      7  C   UNL     1      46.097   6.068  12.278  0.00  0.00    +0.000 A 
BRANCH   6   8
ATOM      8  C   UNL     1      48.043   7.354  13.232  0.00  0.00    +0.000 A 
ATOM      9  C   UNL     1      49.099   8.132  12.737  0.00  0.00    +0.000 A 
ATOM     10  C   UNL     1      50.328   8.170  13.397  0.00  0.00    +0.000 A 
ATOM     11  C   UNL     1      50.476   7.428  14.554  0.00  0.00    +0.000 A 
ATOM     12  N   UNL     1      49.499   6.662  15.075  0.00  0.00    +0.000 NA
ATOM     13  C   UNL     1      48.322   6.640  14.403  0.00  0.00    +0.000 A 
ENDBRANCH   6   8
ENDBRANCH   1   2
BRANCH   1  14
ATOM     14  O   UNL     1      43.751   4.664   9.970  0.00  0.00    +0.000 OA
BRANCH  14  18
ATOM     15  C   UNL     1      46.439   2.478   7.746  0.00  0.00    +0.000 A 
ATOM     16  C   UNL     1      45.634   1.831   8.686  0.00  0.00    +0.000 A 
ATOM     17  C   UNL     1      44.729   2.582   9.438  0.00  0.00    +0.000 A 
ATOM     18  C   UNL     1      44.665   3.952   9.220  0.00  0.00    +0.000 A 
ATOM     19  N   UNL     1      45.440   4.601   8.327  0.00  0.00    +0.000 NA
ATOM     20  C   UNL     1      46.317   3.854   7.618  0.00  0.00    +0.000 A 
BRANCH  15  22
ATOM     21  N   UNL     1      48.471   2.515   6.416  0.00  0.00    +0.000 N 
ATOM     22  C   UNL     1      47.421   1.781   6.892  0.00  0.00    +0.000 C 
ATOM     23  O   UNL     1      47.326   0.583   6.658  0.00  0.00    +0.000 OA
ATOM     24  H   UNL     1      49.195   1.994   5.937  0.00  0.00    +0.000 HD
ATOM     25  H   UNL     1      48.718   3.419   6.790  0.00  0.00    +0.000 HD
ENDBRANCH  15  22
ENDBRANCH  14  18
ENDBRANCH   1  14
TORSDOF 5
ENDMDL
MODEL 4
REMARK VINA RESULT:    -7.687      2.624      6.687
REMARK INTER + INTRA:         -10.530
REMARK INTER:                  -9.725
REMARK INTRA:                  -0.805
REMARK UNBOUND:                -0.596
REMARK  Name = 
REMARK  5 active torsions:
REMARK  status: ('A' for Active; 'I' for Inactive)
REMARK    1  A    between atoms: C_2  and  C_4
REMARK    2  A    between atoms: C_7  and  O_8
REMARK    3  A    between atoms: O_8  and  C_9
REMARK    4  A    between atoms: C_9  and  C_10
REMARK    5  A    between atoms: C_14  and  C_15
REMARK                            x       y       z     vdW  Elec       q    Type
REMARK                         _______ _______ _______ _____ _____    ______ ____
ROOT
ATOM      1  C   UNL     1      44.358   6.393  11.387  0.00  0.00    +0.000 C 
ENDROOT
BRANCH   1   2
ATOM      2  C   UNL     1      44.357   4.975  10.881  0.00  0.00    +0.000 A 
ATOM      3  C   UNL     1      43.511   4.034  11.454  0.00  0.00    +0.000 A 
ATOM      4  N   UNL     1      43.412   2.757  11.036  0.00  0.00    +0.000 NA
ATOM      5  C   UNL     1      44.193   2.399   9.988  0.00  0.00    +0.000 A 
ATOM      6  C   UNL     1      45.067   3.248   9.305  0.00  0.00    +0.000 A 
ATOM      7  C   UNL     1      45.120   4.567   9.780  0.00  0.00    +0.000 A 
BRANCH   6   8
ATOM      8  C   UNL     1      45.876   2.795   8.157  0.00  0.00    +0.000 A 
ATOM      9  C   UNL     1      46.182   3.634   7.075  0.00  0.00    +0.000 A 
ATOM     10  C   UNL     1      46.953   3.170   6.009  0.00  0.00    +0.000 A 
ATOM     11  C   UNL     1      47.415   1.867   6.049  0.00  0.00    +0.000 A 
ATOM     12  N   UNL     1      47.152   1.017   7.060  0.00  0.00    +0.000 NA
ATOM     13  C   UNL     1      46.391   1.497   8.074  0.00  0.00    +0.000 A 
ENDBRANCH   6   8
ENDBRANCH   1   2
BRANCH   1  14
ATOM     14  O   UNL     1      44.989   6.471  12.670  0.00  0.00    +0.000 OA
BRANCH  14  18
ATOM     15  C   UNL     1      48.937   7.603  12.377  0.00  0.00    +0.000 A 
ATOM     16  C   UNL     1      48.613   6.373  12.952  0.00  0.00    +0.000 A 
ATOM     17  C   UNL     1      47.271   6.001  13.051  0.00  0.00    +0.000 A 
ATOM     18  C   UNL     1      46.305   6.874  12.570  0.00  0.00    +0.000 A 
ATOM     19  N   UNL     1      46.592   8.072  12.021  0.00  0.00    +0.000 NA
ATOM     20  C   UNL     1      47.898   8.417  11.946  0.00  0.00    +0.000 A 
BRANCH  15  22
ATOM     21  N   UNL     1      51.120   7.429  11.327  0.00  0.00    +0.000 N 
ATOM     22  C   UNL     1      50.321   8.092  12.214  0.00  0.00    +0.000 C 
ATOM     23  O   UNL     1      50.721   9.082  12.812  0.00  0.00    +0.000 OA
ATOM     24  H   UNL     1      52.020   7.852  11.138  0.00  0.00    +0.000 HD
ATOM     25  H   UNL     1      50.755   6.786  10.639  0.00  0.00    +0.000 HD
ENDBRANCH  15  22
ENDBRANCH  14  18
ENDBRANCH   1  14
TORSDOF 5
ENDMDL
MODEL 5
REMARK VINA RESULT:    -7.177      3.671      7.798
REMARK INTER + INTRA:          -9.871
REMARK INTER:                  -9.320
REMARK INTRA:                  -0.551
REMARK UNBOUND:                -0.596
REMARK  Name = 
REMARK  5 active torsions:
REMARK  status: ('A' for Active; 'I' for Inactive)
REMARK    1  A    between atoms: C_2  and  C_4
REMARK    2  A    between atoms: C_7  and  O_8
REMARK    3  A    between atoms: O_8  and  C_9
REMARK    4  A    between atoms: C_9  and  C_10
REMARK    5  A    between atoms: C_14  and  C_15
REMARK                            x       y       z     vdW  Elec       q    Type
REMARK                         _______ _______ _______ _____ _____    ______ ____
ROOT
ATOM      1  C   UNL     1      45.561   5.028  13.256  0.00  0.00    +0.000 C 
ENDROOT
BRANCH   1   2
ATOM      2  C   UNL     1      44.989   4.104  12.215  0.00  0.00    +0.000 A 
ATOM      3  C   UNL     1      43.753   3.506  12.421  0.00  0.00    +0.000 A 
ATOM      4  N   UNL     1      43.145   2.702  11.526  0.00  0.00    +0.000 NA
ATOM      5  C   UNL     1      43.803   2.487  10.359  0.00  0.00    +0.000 A 
ATOM      6  C   UNL     1      45.037   3.042  10.013  0.00  0.00    +0.000 A 
ATOM      7  C   UNL     1      45.614   3.878  10.983  0.00  0.00    +0.000 A 
BRANCH   6   8
ATOM      8  C   UNL     1      45.688   2.780   8.716  0.00  0.00    +0.000 A 
ATOM      9  C   UNL     1      45.914   3.789   7.769  0.00  0.00    +0.000 A 
ATOM     10  C   UNL     1      46.538   3.502   6.555  0.00  0.00    +0.000 A 
ATOM     11  C   UNL     1      46.934   2.199   6.311  0.00  0.00    +0.000 A 
ATOM     12  N   UNL     1      46.742   1.190   7.181  0.00  0.00    +0.000 NA
ATOM     13  C   UNL     1      46.125   1.503   8.347  0.00  0.00    +0.000 A 
ENDBRANCH   6   8
ENDBRANCH   1   2
BRANCH   1  14
ATOM     14  O   UNL     1      46.988   4.920  13.298  0.00  0.00    +0.000 OA
BRANCH  14  18
ATOM     15  C   UNL     1      48.368   4.424  17.146  0.00  0.00    +0.000 A 
ATOM     16  C   UNL     1      48.568   5.642  16.493  0.00  0.00    +0.000 A 
ATOM     17  C   UNL     1      48.101   5.798  15.187  0.00  0.00    +0.000 A 
ATOM     18  C   UNL     1      47.451   4.729  14.585  0.00  0.00    +0.000 A 
ATOM     19  N   UNL     1      47.255   3.540  15.190  0.00  0.00    +0.000 NA
ATOM     20  C   UNL     1      47.726   3.409  16.452  0.00  0.00    +0.000 A 
BRANCH  15  22
ATOM     21  N   UNL     1      48.314   3.038  19.139  0.00  0.00    +0.000 N 
ATOM     22  C   UNL     1      48.812   4.154  18.528  0.00  0.00    +0.000 C 
ATOM     23  O   UNL     1      49.629   4.873  19.087  0.00  0.00    +0.000 OA
ATOM     24  H   UNL     1      48.723   2.804  20.035  0.00  0.00    +0.000 HD
ATOM     25  H   UNL     1      47.852   2.298  18.631  0.00  0.00    +0.000 HD
ENDBRANCH  15  22
ENDBRANCH  14  18
ENDBRANCH   1  14
TORSDOF 5
ENDMDL
MODEL 6
REMARK VINA RESULT:    -6.558      4.116      8.146
REMARK INTER + INTRA:          -9.071
REMARK INTER:                  -8.415
REMARK INTRA:                  -0.657
REMARK UNBOUND:                -0.596
REMARK  Name = 
REMARK  5 active torsions:
REMARK  status: ('A' for Active; 'I' for Inactive)
REMARK    1  A    between atoms: C_2  and  C_4
REMARK    2  A    between atoms: C_7  and  O_8
REMARK    3  A    between atoms: O_8  and  C_9
REMARK    4  A    between atoms: C_9  and  C_10
REMARK    5  A    between atoms: C_14  and  C_15
REMARK                            x       y       z     vdW  Elec       q    Type
REMARK                         _______ _______ _______ _____ _____    ______ ____
ROOT
ATOM      1  C   UNL     1      48.269   7.560  13.722  0.00  0.00    +0.000 C 
ENDROOT
BRANCH   1   2
ATOM      2  C   UNL     1      47.009   7.444  12.906  0.00  0.00    +0.000 A 
ATOM      3  C   UNL     1      46.114   8.504  12.856  0.00  0.00    +0.000 A 
ATOM      4  N   UNL     1      44.986   8.505  12.118  0.00  0.00    +0.000 NA
ATOM      5  C   UNL     1      44.741   7.391  11.384  0.00  0.00    +0.000 A 
ATOM      6  C   UNL     1      45.566   6.266  11.323  0.00  0.00    +0.000 A 
ATOM      7  C   UNL     1      46.730   6.329  12.106  0.00  0.00    +0.000 A 
BRANCH   6   8
ATOM      8  C   UNL     1      45.247   5.094  10.487  0.00  0.00    +0.000 A 
ATOM      9  C   UNL     1      45.643   4.995   9.145  0.00  0.00    +0.000 A 
ATOM     10  C   UNL     1      45.325   3.867   8.388  0.00  0.00    +0.000 A 
ATOM     11  C   UNL     1      44.617   2.846   8.995  0.00  0.00    +0.000 A 
ATOM     12  N   UNL     1      44.209   2.886  10.278  0.00  0.00    +0.000 NA
ATOM     13  C   UNL     1      44.526   4.000  10.981  0.00  0.00    +0.000 A 
ENDBRANCH   6   8
ENDBRANCH   1   2
BRANCH   1  14
ATOM     14  O   UNL     1      48.765   6.263  14.072  0.00  0.00    +0.000 OA
BRANCH  14  18
ATOM     15  C   UNL     1      48.261   5.535  18.093  0.00  0.00    +0.000 A 
ATOM     16  C   UNL     1      48.817   6.746  17.676  0.00  0.00    +0.000 A 
ATOM     17  C   UNL     1      48.988   6.981  16.310  0.00  0.00    +0.000 A 
ATOM     18  C   UNL     1      48.596   5.994  15.415  0.00  0.00    +0.000 A 
ATOM     19  N   UNL     1      48.067   4.813  15.794  0.00  0.00    +0.000 NA
ATOM     20  C   UNL     1      47.921   4.603  17.123  0.00  0.00    +0.000 A 
BRANCH  15  22
ATOM     21  N   UNL     1      48.508   3.986  19.947  0.00  0.00    +0.000 N 
ATOM     22  C   UNL     1      48.027   5.186  19.509  0.00  0.00    +0.000 C 
ATOM     23  O   UNL     1      47.467   5.963  20.271  0.00  0.00    +0.000 OA
ATOM     24  H   UNL     1      48.447   3.820  20.944  0.00  0.00    +0.000 HD
ATOM     25  H   UNL     1      49.186   3.447  19.427  0.00  0.00    +0.000 HD
ENDBRANCH  15  22
ENDBRANCH  14  18
ENDBRANCH   1  14
TORSDOF 5
ENDMDL
MODEL 7
REMARK VINA RESULT:    -6.403      5.470      7.629
REMARK INTER + INTRA:          -8.871
REMARK INTER:                  -8.342
REMARK INTRA:                  -0.529
REMARK UNBOUND:                -0.596
REMARK  Name = 
REMARK  5 active torsions:
REMARK  status: ('A' for Active; 'I' for Inactive)
REMARK    1  A    between atoms: C_2  and  C_4
REMARK    2  A    between atoms: C_7  and  O_8
REMARK    3  A    between atoms: O_8  and  C_9
REMARK    4  A    between atoms: C_9  and  C_10
REMARK    5  A    between atoms: C_14  and  C_15
REMARK                            x       y       z     vdW  Elec       q    Type
REMARK                         _______ _______ _______ _____ _____    ______ ____
ROOT
ATOM      1  C   UNL     1      47.156   3.675  15.793  0.00  0.00    +0.000 C 
ENDROOT
BRANCH   1   2
ATOM      2  C   UNL     1      48.259   4.007  16.763  0.00  0.00    +0.000 A 
ATOM      3  C   UNL     1      48.119   5.079  17.633  0.00  0.00    +0.000 A 
ATOM      4  N   UNL     1      49.035   5.421  18.562  0.00  0.00    +0.000 NA
ATOM      5  C   UNL     1      50.147   4.649  18.631  0.00  0.00    +0.000 A 
ATOM      6  C   UNL     1      50.403   3.530  17.835  0.00  0.00    +0.000 A 
ATOM      7  C   UNL     1      49.409   3.219  16.893  0.00  0.00    +0.000 A 
BRANCH   6   8
ATOM      8  C   UNL     1      51.629   2.721  17.976  0.00  0.00    +0.000 A 
ATOM      9  C   UNL     1      51.722   1.404  17.501  0.00  0.00    +0.000 A 
ATOM     10  C   UNL     1      52.901   0.674  17.650  0.00  0.00    +0.000 A 
ATOM     11  C   UNL     1      53.977   1.281  18.270  0.00  0.00    +0.000 A 
ATOM     12  N   UNL     1      53.946   2.540  18.747  0.00  0.00    +0.000 NA
ATOM     13  C   UNL     1      52.782   3.218  18.594  0.00  0.00    +0.000 A 
ENDBRANCH   6   8
ENDBRANCH   1   2
BRANCH   1  14
ATOM     14  O   UNL     1      47.622   3.777  14.443  0.00  0.00    +0.000 OA
BRANCH  14  18
ATOM     15  C   UNL     1      44.660   5.007  11.861  0.00  0.00    +0.000 A 
ATOM     16  C   UNL     1      45.493   5.956  12.457  0.00  0.00    +0.000 A 
ATOM     17  C   UNL     1      46.492   5.528  13.335  0.00  0.00    +0.000 A 
ATOM     18  C   UNL     1      46.617   4.168  13.582  0.00  0.00    +0.000 A 
ATOM     19  N   UNL     1      45.817   3.234  13.027  0.00  0.00    +0.000 NA
ATOM     20  C   UNL     1      44.850   3.672  12.189  0.00  0.00    +0.000 A 
BRANCH  15  22
ATOM     21  N   UNL     1      42.758   6.386  11.243  0.00  0.00    +0.000 N 
ATOM     22  C   UNL     1      43.580   5.346  10.912  0.00  0.00    +0.000 C 
ATOM     23  O   UNL     1      43.457   4.752   9.850  0.00  0.00    +0.000 OA
ATOM     24  H   UNL     1      42.107   6.681  10.527  0.00  0.00    +0.000 HD
ATOM     25  H   UNL     1      42.985   7.051  11.968  0.00  0.00    +0.000 HD
ENDBRANCH  15  22
ENDBRANCH  14  18
ENDBRANCH   1  14
TORSDOF 5
ENDMDL
MODEL 8
REMARK VINA RESULT:    -6.003      4.497      7.984
REMARK INTER + INTRA:          -8.353
REMARK INTER:                  -7.853
REMARK INTRA:                  -0.501
REMARK UNBOUND:                -0.596
REMARK  Name = 
REMARK  5 active torsions:
REMARK  status: ('A' for Active; 'I' for Inactive)
REMARK    1  A    between atoms: C_2  and  C_4
REMARK    2  A    between atoms: C_7  and  O_8
REMARK    3  A    between atoms: O_8  and  C_9
REMARK    4  A    between atoms: C_9  and  C_10
REMARK    5  A    between atoms: C_14  and  C_15
REMARK                            x       y       z     vdW  Elec       q    Type
REMARK                         _______ _______ _______ _____ _____    ______ ____
ROOT
ATOM      1  C   UNL     1      48.434   7.172  13.867  0.00  0.00    +0.000 C 
ENDROOT
BRANCH   1   2
ATOM      2  C   UNL     1      47.184   7.175  13.027  0.00  0.00    +0.000 A 
ATOM      3  C   UNL     1      46.374   8.302  12.992  0.00  0.00    +0.000 A 
ATOM      4  N   UNL     1      45.264   8.409  12.236  0.00  0.00    +0.000 NA
ATOM      5  C   UNL     1      44.947   7.338  11.467  0.00  0.00    +0.000 A 
ATOM      6  C   UNL     1      45.685   6.155  11.388  0.00  0.00    +0.000 A 
ATOM      7  C   UNL     1      46.835   6.106  12.192  0.00  0.00    +0.000 A 
BRANCH   6   8
ATOM      8  C   UNL     1      45.293   5.033  10.514  0.00  0.00    +0.000 A 
ATOM      9  C   UNL     1      45.590   5.006   9.143  0.00  0.00    +0.000 A 
ATOM     10  C   UNL     1      45.205   3.925   8.351  0.00  0.00    +0.000 A 
ATOM     11  C   UNL     1      44.531   2.876   8.951  0.00  0.00    +0.000 A 
ATOM     12  N   UNL     1      44.218   2.847  10.260  0.00  0.00    +0.000 NA
ATOM     13  C   UNL     1      44.598   3.919  10.999  0.00  0.00    +0.000 A 
ENDBRANCH   6   8
ENDBRANCH   1   2
BRANCH   1  14
ATOM     14  O   UNL     1      48.105   7.154  15.261  0.00  0.00    +0.000 OA
BRANCH  14  18
ATOM     15  C   UNL     1      50.553   4.617  17.388  0.00  0.00    +0.000 A 
ATOM     16  C   UNL     1      51.038   5.859  16.976  0.00  0.00    +0.000 A 
ATOM     17  C   UNL     1      50.201   6.710  16.252  0.00  0.00    +0.000 A 
ATOM     18  C   UNL     1      48.911   6.284  15.967  0.00  0.00    +0.000 A 
ATOM     19  N   UNL     1      48.423   5.084  16.344  0.00  0.00    +0.000 NA
ATOM     20  C   UNL     1      49.256   4.272  17.035  0.00  0.00    +0.000 A 
BRANCH  15  22
ATOM     21  N   UNL     1      51.793   4.039  19.395  0.00  0.00    +0.000 N 
ATOM     22  C   UNL     1      51.347   3.644  18.166  0.00  0.00    +0.000 C 
ATOM     23  O   UNL     1      51.555   2.513  17.748  0.00  0.00    +0.000 OA
ATOM     24  H   UNL     1      52.226   3.321  19.961  0.00  0.00    +0.000 HD
ATOM     25  H   UNL     1      51.429   4.851  19.872  0.00  0.00    +0.000 HD
ENDBRANCH  15  22
ENDBRANCH  14  18
ENDBRANCH   1  14
TORSDOF 5
ENDMDL
