MODEL 1
REMARK VINA RESULT:    -6.998      0.000      0.000
REMARK INTER + INTRA:          -9.023
REMARK INTER:                  -8.839
REMARK INTRA:                  -0.183
REMARK UNBOUND:                -0.183
REMARK  Name = 
REMARK  5 active torsions:
REMARK  status: ('A' for Active; 'I' for Inactive)
REMARK    1  A    between atoms: N_1  and  C_2
REMARK    2  A    between atoms: C_2  and  C_3
REMARK    3  A    between atoms: N_6  and  C_7
REMARK    4  A    between atoms: C_7  and  C_8
REMARK    5  A    between atoms: C_15  and  C_16
REMARK                            x       y       z     vdW  Elec       q    Type
REMARK                         _______ _______ _______ _____ _____    ______ ____
ROOT
ATOM      1  C   UNL     1      43.999   4.304  10.572  0.00  0.00    +0.000 A 
ATOM      2  N   UNL     1      43.300   3.432  11.319  0.00  0.00    +0.000 NA
ATOM      3  N   UNL     1      43.637   2.233  10.825  0.00  0.00    +0.000 N 
ATOM      4  C   UNL     1      44.506   2.285   9.772  0.00  0.00    +0.000 A 
ATOM      5  C   UNL     1      45.039   1.280   8.964  0.00  0.00    +0.000 A 
ATOM      6  C   UNL     1      45.890   1.681   7.932  0.00  0.00    +0.000 A 
ATOM      7  F   UNL     1      46.375   0.718   7.130  0.00  0.00    +0.000 F 
ATOM      8  C   UNL     1      46.223   3.023   7.726  0.00  0.00    +0.000 A 
ATOM      9  C   UNL     1      45.692   4.012   8.578  0.00  0.00    +0.000 A 
ATOM     10  C   UNL     1      44.797   3.635   9.599  0.00  0.00    +0.000 A 
ATOM     11  H   UNL     1      43.210   1.410  11.236  0.00  0.00    +0.000 HD
ENDROOT
BRANCH   8  12
ATOM     12  C   UNL     1      47.101   3.468   6.610  0.00  0.00    +0.000 C 
ATOM     13  N   UNL     1      48.373   2.974   6.552  0.00  0.00    +0.000 N 
ATOM     14  O   UNL     1      46.699   4.235   5.745  0.00  0.00    +0.000 OA
ATOM     15  H   UNL     1      48.751   2.328   7.236  0.00  0.00    +0.000 HD
ATOM     16  H   UNL     1      48.954   3.249   5.771  0.00  0.00    +0.000 HD
ENDBRANCH   8  12
BRANCH   1  17
ATOM     17  C   UNL     1      43.789   5.781  10.768  0.00  0.00    +0.000 C 
BRANCH  17  21
ATOM     18  C   UNL     1      46.988   7.316  13.225  0.00  0.00    +0.000 C 
ATOM     19  C   UNL     1      46.405   5.926  13.509  0.00  0.00    +0.000 C 
ATOM     20  C   UNL     1      45.536   5.412  12.358  0.00  0.00    +0.000 C 
ATOM     21  N   UNL     1      44.460   6.344  11.967  0.00  0.00    +0.000 NA
ATOM     22  C   UNL     1      44.983   7.695  11.696  0.00  0.00    +0.000 C 
ATOM     23  C   UNL     1      45.827   8.245  12.850  0.00  0.00    +0.000 C 
BRANCH  18  24
ATOM     24  C   UNL     1      48.096   7.249  12.154  0.00  0.00    +0.000 C 
BRANCH  24  25
ATOM     25  N   UNL     1      49.329   6.666  12.672  0.00  0.00    +0.000 NA
ATOM     26  H   UNL     1      49.162   5.694  12.933  0.00  0.00    +0.000 HD
ATOM     27  H   UNL     1      49.601   7.148  13.529  0.00  0.00    +0.000 HD
ENDBRANCH  24  25
ENDBRANCH  18  24
ENDBRANCH  17  21
ENDBRANCH   1  17
TORSDOF 5
ENDMDL
MODEL 2
REMARK VINA RESULT:    -6.788      4.518      6.218
REMARK INTER + INTRA:          -8.756
REMARK INTER:                  -8.853
REMARK INTRA:                   0.097
REMARK UNBOUND:                -0.183
REMARK  Name = 
REMARK  5 active torsions:
REMARK  status: ('A' for Active; 'I' for Inactive)
REMARK    1  A    between atoms: N_1  and  C_2
REMARK    2  A    between atoms: C_2  and  C_3
REMARK    3  A    between atoms: N_6  and  C_7
REMARK    4  A    between atoms: C_7  and  C_8
REMARK    5  A    between atoms: C_15  and  C_16
REMARK                            x       y       z     vdW  Elec       q    Type
REMARK                         _______ _______ _______ _____ _____    ______ ____
ROOT
ATOM      1  C   UNL     1      47.025   4.546  14.259  0.00  0.00    +0.000 A 
ATOM      2  N   UNL     1      47.177   3.210  14.239  0.00  0.00    +0.000 NA
ATOM      3  N   UNL     1      46.400   2.807  13.225  0.00  0.00    +0.000 N 
ATOM      4  C   UNL     1      45.728   3.818  12.598  0.00  0.00    +0.000 A 
ATOM      5  C   UNL     1      44.796   3.803  11.559  0.00  0.00    +0.000 A 
ATOM      6  C   UNL     1      44.264   5.033  11.167  0.00  0.00    +0.000 A 
ATOM      7  F   UNL     1      43.340   5.016  10.191  0.00  0.00    +0.000 F 
ATOM      8  C   UNL     1      44.660   6.234  11.761  0.00  0.00    +0.000 A 
ATOM      9  C   UNL     1      45.625   6.220  12.788  0.00  0.00    +0.000 A 
ATOM     10  C   UNL     1      46.143   4.987  13.230  0.00  0.00    +0.000 A 
ATOM     11  H   UNL     1      46.347   1.813  13.029  0.00  0.00    +0.000 HD
ENDROOT
BRANCH   8  12
ATOM     12  C   UNL     1      44.076   7.548  11.376  0.00  0.00    +0.000 C 
ATOM     13  N   UNL     1      42.746   7.599  11.073  0.00  0.00    +0.000 N 
ATOM     14  O   UNL     1      44.753   8.568  11.352  0.00  0.00    +0.000 OA
ATOM     15  H   UNL     1      42.139   6.787  11.089  0.00  0.00    +0.000 HD
ATOM     16  H   UNL     1      42.345   8.500  10.849  0.00  0.00    +0.000 HD
ENDBRANCH   8  12
BRANCH   1  17
ATOM     17  C   UNL     1      47.675   5.348  15.354  0.00  0.00    +0.000 C 
BRANCH  17  21
ATOM     18  C   UNL     1      49.373   4.108  19.123  0.00  0.00    +0.000 C 
ATOM     19  C   UNL     1      50.257   4.796  18.074  0.00  0.00    +0.000 C 
ATOM     20  C   UNL     1      49.436   5.461  16.966  0.00  0.00    +0.000 C 
ATOM     21  N   UNL     1      48.484   4.546  16.306  0.00  0.00    +0.000 NA
ATOM     22  C   UNL     1      47.624   3.857  17.284  0.00  0.00    +0.000 C 
ATOM     23  C   UNL     1      48.425   3.155  18.385  0.00  0.00    +0.000 C 
BRANCH  18  24
ATOM     24  C   UNL     1      48.645   5.142  20.006  0.00  0.00    +0.000 C 
BRANCH  24  25
ATOM     25  N   UNL     1      47.967   4.519  21.138  0.00  0.00    +0.000 NA
ATOM     26  H   UNL     1      47.174   5.095  21.420  0.00  0.00    +0.000 HD
ATOM     27  H   UNL     1      48.597   4.490  21.940  0.00  0.00    +0.000 HD
ENDBRANCH  24  25
ENDBRANCH  18  24
ENDBRANCH  17  21
ENDBRANCH   1  17
TORSDOF 5
ENDMDL
MODEL 3
REMARK VINA RESULT:    -6.764      4.110      6.384
REMARK INTER + INTRA:          -8.727
REMARK INTER:                  -8.293
REMARK INTRA:                  -0.434
REMARK UNBOUND:                -0.183
REMARK  Name = 
REMARK  5 active torsions:
REMARK  status: ('A' for Active; 'I' for Inactive)
REMARK    1  A    between atoms: N_1  and  C_2
REMARK    2  A    between atoms: C_2  and  C_3
REMARK    3  A    between atoms: N_6  and  C_7
REMARK    4  A    between atoms: C_7  and  C_8
REMARK    5  A    between atoms: C_15  and  C_16
REMARK                            x       y       z     vdW  Elec       q    Type
REMARK                         _______ _______ _______ _____ _____    ______ ____
ROOT
ATOM      1  C   UNL     1      47.893   6.910  13.806  0.00  0.00    +0.000 A 
ATOM      2  N   UNL     1      48.706   7.558  12.953  0.00  0.00    +0.000 NA
ATOM      3  N   UNL     1      48.152   7.349  11.751  0.00  0.00    +0.000 N 
ATOM      4  C   UNL     1      47.028   6.572  11.779  0.00  0.00    +0.000 A 
ATOM      5  C   UNL     1      46.214   6.089  10.755  0.00  0.00    +0.000 A 
ATOM      6  C   UNL     1      45.139   5.279  11.128  0.00  0.00    +0.000 A 
ATOM      7  F   UNL     1      44.375   4.783  10.139  0.00  0.00    +0.000 F 
ATOM      8  C   UNL     1      44.865   4.982  12.466  0.00  0.00    +0.000 A 
ATOM      9  C   UNL     1      45.690   5.509  13.480  0.00  0.00    +0.000 A 
ATOM     10  C   UNL     1      46.805   6.294  13.125  0.00  0.00    +0.000 A 
ATOM     11  H   UNL     1      48.613   7.742  10.938  0.00  0.00    +0.000 HD
ENDROOT
BRANCH   8  12
ATOM     12  C   UNL     1      43.745   4.092  12.875  0.00  0.00    +0.000 C 
ATOM     13  N   UNL     1      43.902   2.744  12.722  0.00  0.00    +0.000 N 
ATOM     14  O   UNL     1      42.715   4.541  13.361  0.00  0.00    +0.000 OA
ATOM     15  H   UNL     1      44.738   2.321  12.336  0.00  0.00    +0.000 HD
ATOM     16  H   UNL     1      43.153   2.141  13.036  0.00  0.00    +0.000 HD
ENDBRANCH   8  12
BRANCH   1  17
ATOM     17  C   UNL     1      48.263   6.831  15.263  0.00  0.00    +0.000 C 
BRANCH  17  21
ATOM     18  C   UNL     1      49.195   3.576  17.939  0.00  0.00    +0.000 C 
ATOM     19  C   UNL     1      50.324   4.443  17.366  0.00  0.00    +0.000 C 
ATOM     20  C   UNL     1      49.801   5.732  16.726  0.00  0.00    +0.000 C 
ATOM     21  N   UNL     1      48.765   5.504  15.699  0.00  0.00    +0.000 NA
ATOM     22  C   UNL     1      47.668   4.664  16.211  0.00  0.00    +0.000 C 
ATOM     23  C   UNL     1      48.164   3.351  16.826  0.00  0.00    +0.000 C 
BRANCH  18  24
ATOM     24  C   UNL     1      48.599   4.205  19.214  0.00  0.00    +0.000 C 
BRANCH  24  25
ATOM     25  N   UNL     1      48.352   3.212  20.255  0.00  0.00    +0.000 NA
ATOM     26  H   UNL     1      47.475   2.728  20.063  0.00  0.00    +0.000 HD
ATOM     27  H   UNL     1      48.229   3.680  21.152  0.00  0.00    +0.000 HD
ENDBRANCH  24  25
ENDBRANCH  18  24
ENDBRANCH  17  21
ENDBRANCH   1  17
TORSDOF 5
ENDMDL
MODEL 4
REMARK VINA RESULT:    -6.718      1.362      1.932
REMARK INTER + INTRA:          -8.668
REMARK INTER:                  -8.353
REMARK INTRA:                  -0.315
REMARK UNBOUND:                -0.183
REMARK  Name = 
REMARK  5 active torsions:
REMARK  status: ('A' for Active; 'I' for Inactive)
REMARK    1  A    between atoms: N_1  and  C_2
REMARK    2  A    between atoms: C_2  and  C_3
REMARK    3  A    between atoms: N_6  and  C_7
REMARK    4  A    between atoms: C_7  and  C_8
REMARK    5  A    between atoms: C_15  and  C_16
REMARK                            x       y       z     vdW  Elec       q    Type
REMARK                         _______ _______ _______ _____ _____    ______ ____
ROOT
ATOM      1  C   UNL     1      44.398   5.888  11.536  0.00  0.00    +0.000 A 
ATOM      2  N   UNL     1      43.522   5.529  12.492  0.00  0.00    +0.000 NA
ATOM      3  N   UNL     1      43.261   4.242  12.230  0.00  0.00    +0.000 N 
ATOM      4  C   UNL     1      43.908   3.750  11.132  0.00  0.00    +0.000 A 
ATOM      5  C   UNL     1      43.857   2.502  10.511  0.00  0.00    +0.000 A 
ATOM      6  C   UNL     1      44.634   2.332   9.363  0.00  0.00    +0.000 A 
ATOM      7  F   UNL     1      44.558   1.142   8.743  0.00  0.00    +0.000 F 
ATOM      8  C   UNL     1      45.454   3.350   8.867  0.00  0.00    +0.000 A 
ATOM      9  C   UNL     1      45.507   4.590   9.533  0.00  0.00    +0.000 A 
ATOM     10  C   UNL     1      44.698   4.799  10.668  0.00  0.00    +0.000 A 
ATOM     11  H   UNL     1      42.600   3.757  12.828  0.00  0.00    +0.000 HD
ENDROOT
BRANCH   8  12
ATOM     12  C   UNL     1      46.261   3.194   7.626  0.00  0.00    +0.000 C 
ATOM     13  N   UNL     1      46.980   2.044   7.464  0.00  0.00    +0.000 N 
ATOM     14  O   UNL     1      46.269   4.054   6.755  0.00  0.00    +0.000 OA
ATOM     15  H   UNL     1      46.998   1.297   8.149  0.00  0.00    +0.000 HD
ATOM     16  H   UNL     1      47.497   1.926   6.603  0.00  0.00    +0.000 HD
ENDBRANCH   8  12
BRANCH   1  17
ATOM     17  C   UNL     1      44.843   7.322  11.443  0.00  0.00    +0.000 C 
BRANCH  17  21
ATOM     18  C   UNL     1      48.673   8.433  13.093  0.00  0.00    +0.000 C 
ATOM     19  C   UNL     1      48.077   7.053  13.403  0.00  0.00    +0.000 C 
ATOM     20  C   UNL     1      46.906   6.704  12.480  0.00  0.00    +0.000 C 
ATOM     21  N   UNL     1      45.840   7.725  12.466  0.00  0.00    +0.000 NA
ATOM     22  C   UNL     1      46.377   9.068  12.182  0.00  0.00    +0.000 C 
ATOM     23  C   UNL     1      47.529   9.454  13.116  0.00  0.00    +0.000 C 
BRANCH  18  24
ATOM     24  C   UNL     1      49.460   8.417  11.767  0.00  0.00    +0.000 C 
BRANCH  24  25
ATOM     25  N   UNL     1      50.492   7.385  11.751  0.00  0.00    +0.000 NA
ATOM     26  H   UNL     1      50.161   6.566  12.261  0.00  0.00    +0.000 HD
ATOM     27  H   UNL     1      51.316   7.717  12.250  0.00  0.00    +0.000 HD
ENDBRANCH  24  25
ENDBRANCH  18  24
ENDBRANCH  17  21
ENDBRANCH   1  17
TORSDOF 5
ENDMDL
MODEL 5
REMARK VINA RESULT:    -6.544      3.683      5.941
REMARK INTER + INTRA:          -8.449
REMARK INTER:                  -8.382
REMARK INTRA:                  -0.066
REMARK UNBOUND:                -0.183
REMARK  Name = 
REMARK  5 active torsions:
REMARK  status: ('A' for Active; 'I' for Inactive)
REMARK    1  A    between atoms: N_1  and  C_2
REMARK    2  A    between atoms: C_2  and  C_3
REMARK    3  A    between atoms: N_6  and  C_7
REMARK    4  A    between atoms: C_7  and  C_8
REMARK    5  A    between atoms: C_15  and  C_16
REMARK                            x       y       z     vdW  Elec       q    Type
REMARK                         _______ _______ _______ _____ _____    ______ ____
ROOT
ATOM      1  C   UNL     1      47.349   6.834  13.847  0.00  0.00    +0.000 A 
ATOM      2  N   UNL     1      47.246   8.175  13.804  0.00  0.00    +0.000 NA
ATOM      3  N   UNL     1      46.175   8.396  13.029  0.00  0.00    +0.000 N 
ATOM      4  C   UNL     1      45.590   7.261  12.544  0.00  0.00    +0.000 A 
ATOM      5  C   UNL     1      44.514   7.076  11.675  0.00  0.00    +0.000 A 
ATOM      6  C   UNL     1      44.182   5.759  11.349  0.00  0.00    +0.000 A 
ATOM      7  F   UNL     1      43.170   5.580  10.483  0.00  0.00    +0.000 F 
ATOM      8  C   UNL     1      44.872   4.667  11.884  0.00  0.00    +0.000 A 
ATOM      9  C   UNL     1      45.936   4.886  12.782  0.00  0.00    +0.000 A 
ATOM     10  C   UNL     1      46.315   6.207  13.093  0.00  0.00    +0.000 A 
ATOM     11  H   UNL     1      45.911   9.358  12.843  0.00  0.00    +0.000 HD
ENDROOT
BRANCH   8  12
ATOM     12  C   UNL     1      44.552   3.261  11.518  0.00  0.00    +0.000 C 
ATOM     13  N   UNL     1      43.879   2.494  12.425  0.00  0.00    +0.000 N 
ATOM     14  O   UNL     1      44.856   2.799  10.425  0.00  0.00    +0.000 OA
ATOM     15  H   UNL     1      43.595   2.832  13.338  0.00  0.00    +0.000 HD
ATOM     16  H   UNL     1      43.630   1.551  12.158  0.00  0.00    +0.000 HD
ENDBRANCH   8  12
BRANCH   1  17
ATOM     17  C   UNL     1      48.522   6.205  14.548  0.00  0.00    +0.000 C 
BRANCH  17  21
ATOM     18  C   UNL     1      48.717   3.465  17.877  0.00  0.00    +0.000 C 
ATOM     19  C   UNL     1      47.491   3.462  16.954  0.00  0.00    +0.000 C 
ATOM     20  C   UNL     1      47.736   4.239  15.657  0.00  0.00    +0.000 C 
ATOM     21  N   UNL     1      48.204   5.622  15.876  0.00  0.00    +0.000 NA
ATOM     22  C   UNL     1      49.376   5.665  16.768  0.00  0.00    +0.000 C 
ATOM     23  C   UNL     1      49.142   4.923  18.088  0.00  0.00    +0.000 C 
BRANCH  18  24
ATOM     24  C   UNL     1      49.840   2.569  17.316  0.00  0.00    +0.000 C 
BRANCH  24  25
ATOM     25  N   UNL     1      49.384   1.748  16.200  0.00  0.00    +0.000 NA
ATOM     26  H   UNL     1      49.138   2.348  15.413  0.00  0.00    +0.000 HD
ATOM     27  H   UNL     1      48.528   1.259  16.462  0.00  0.00    +0.000 HD
ENDBRANCH  24  25
ENDBRANCH  18  24
ENDBRANCH  17  21
ENDBRANCH   1  17
TORSDOF 5
ENDMDL
MODEL 6
REMARK VINA RESULT:    -6.424      3.489      6.885
REMARK INTER + INTRA:          -8.298
REMARK INTER:                  -7.841
REMARK INTRA:                  -0.456
REMARK UNBOUND:                -0.183
REMARK  Name = 
REMARK  5 active torsions:
REMARK  status: ('A' for Active; 'I' for Inactive)
REMARK    1  A    between atoms: N_1  and  C_2
REMARK    2  A    between atoms: C_2  and  C_3
REMARK    3  A    between atoms: N_6  and  C_7
REMARK    4  A    between atoms: C_7  and  C_8
REMARK    5  A    between atoms: C_15  and  C_16
REMARK                            x       y       z     vdW  Elec       q    Type
REMARK                         _______ _______ _______ _____ _____    ______ ____
ROOT
ATOM      1  C   UNL     1      45.021   5.662  11.687  0.00  0.00    +0.000 A 
ATOM      2  N   UNL     1      43.892   6.354  11.451  0.00  0.00    +0.000 NA
ATOM      3  N   UNL     1      44.158   7.583  11.914  0.00  0.00    +0.000 N 
ATOM      4  C   UNL     1      45.401   7.717  12.464  0.00  0.00    +0.000 A 
ATOM      5  C   UNL     1      46.021   8.798  13.094  0.00  0.00    +0.000 A 
ATOM      6  C   UNL     1      47.312   8.591  13.583  0.00  0.00    +0.000 A 
ATOM      7  F   UNL     1      47.896   9.620  14.221  0.00  0.00    +0.000 F 
ATOM      8  C   UNL     1      47.975   7.370  13.429  0.00  0.00    +0.000 A 
ATOM      9  C   UNL     1      47.334   6.307  12.763  0.00  0.00    +0.000 A 
ATOM     10  C   UNL     1      46.015   6.479  12.299  0.00  0.00    +0.000 A 
ATOM     11  H   UNL     1      43.428   8.285  11.853  0.00  0.00    +0.000 HD
ENDROOT
BRANCH   8  12
ATOM     12  C   UNL     1      49.338   7.126  13.975  0.00  0.00    +0.000 C 
ATOM     13  N   UNL     1      50.410   7.595  13.272  0.00  0.00    +0.000 N 
ATOM     14  O   UNL     1      49.506   6.542  15.038  0.00  0.00    +0.000 OA
ATOM     15  H   UNL     1      50.325   8.094  12.393  0.00  0.00    +0.000 HD
ATOM     16  H   UNL     1      51.332   7.460  13.665  0.00  0.00    +0.000 HD
ENDBRANCH   8  12
BRANCH   1  17
ATOM     17  C   UNL     1      45.059   4.187  11.393  0.00  0.00    +0.000 C 
BRANCH  17  21
ATOM     18  C   UNL     1      45.638   2.626   7.411  0.00  0.00    +0.000 C 
ATOM     19  C   UNL     1      45.568   4.142   7.636  0.00  0.00    +0.000 C 
ATOM     20  C   UNL     1      45.701   4.519   9.114  0.00  0.00    +0.000 C 
ATOM     21  N   UNL     1      44.732   3.831   9.990  0.00  0.00    +0.000 NA
ATOM     22  C   UNL     1      44.763   2.370   9.793  0.00  0.00    +0.000 C 
ATOM     23  C   UNL     1      44.597   1.968   8.324  0.00  0.00    +0.000 C 
BRANCH  18  24
ATOM     24  C   UNL     1      47.070   2.095   7.625  0.00  0.00    +0.000 C 
BRANCH  24  25
ATOM     25  N   UNL     1      47.247   0.753   7.079  0.00  0.00    +0.000 NA
ATOM     26  H   UNL     1      46.647   0.099   7.582  0.00  0.00    +0.000 HD
ATOM     27  H   UNL     1      48.204   0.442   7.240  0.00  0.00    +0.000 HD
ENDBRANCH  24  25
ENDBRANCH  18  24
ENDBRANCH  17  21
ENDBRANCH   1  17
TORSDOF 5
ENDMDL
MODEL 7
REMARK VINA RESULT:    -6.238      5.702      8.486
REMARK INTER + INTRA:          -8.062
REMARK INTER:                  -7.945
REMARK INTRA:                  -0.117
REMARK UNBOUND:                -0.183
REMARK  Name = 
REMARK  5 active torsions:
REMARK  status: ('A' for Active; 'I' for Inactive)
REMARK    1  A    between atoms: N_1  and  C_2
REMARK    2  A    between atoms: C_2  and  C_3
REMARK    3  A    between atoms: N_6  and  C_7
REMARK    4  A    between atoms: C_7  and  C_8
REMARK    5  A    between atoms: C_15  and  C_16
REMARK                            x       y       z     vdW  Elec       q    Type
REMARK                         _______ _______ _______ _____ _____    ______ ____
ROOT
ATOM      1  C   UNL     1      47.188   4.278  14.939  0.00  0.00    +0.000 A 
ATOM      2  N   UNL     1      47.541   3.051  14.516  0.00  0.00    +0.000 NA
ATOM      3  N   UNL     1      48.035   2.457  15.611  0.00  0.00    +0.000 N 
ATOM      4  C   UNL     1      48.044   3.250  16.723  0.00  0.00    +0.000 A 
ATOM      5  C   UNL     1      48.521   3.024  18.015  0.00  0.00    +0.000 A 
ATOM      6  C   UNL     1      48.404   4.075  18.927  0.00  0.00    +0.000 A 
ATOM      7  F   UNL     1      48.896   3.872  20.161  0.00  0.00    +0.000 F 
ATOM      8  C   UNL     1      47.810   5.293  18.581  0.00  0.00    +0.000 A 
ATOM      9  C   UNL     1      47.311   5.480  17.277  0.00  0.00    +0.000 A 
ATOM     10  C   UNL     1      47.458   4.449  16.328  0.00  0.00    +0.000 A 
ATOM     11  H   UNL     1      48.383   1.508  15.524  0.00  0.00    +0.000 HD
ENDROOT
BRANCH   8  12
ATOM     12  C   UNL     1      47.710   6.433  19.533  0.00  0.00    +0.000 C 
ATOM     13  N   UNL     1      48.071   7.674  19.094  0.00  0.00    +0.000 N 
ATOM     14  O   UNL     1      47.292   6.279  20.674  0.00  0.00    +0.000 OA
ATOM     15  H   UNL     1      48.412   7.856  18.157  0.00  0.00    +0.000 HD
ATOM     16  H   UNL     1      47.965   8.452  19.732  0.00  0.00    +0.000 HD
ENDBRANCH   8  12
BRANCH   1  17
ATOM     17  C   UNL     1      46.685   5.286  13.943  0.00  0.00    +0.000 C 
BRANCH  17  21
ATOM     18  C   UNL     1      43.467   4.671  11.133  0.00  0.00    +0.000 C 
ATOM     19  C   UNL     1      43.754   3.618  12.211  0.00  0.00    +0.000 C 
ATOM     20  C   UNL     1      44.683   4.144  13.308  0.00  0.00    +0.000 C 
ATOM     21  N   UNL     1      45.949   4.702  12.793  0.00  0.00    +0.000 NA
ATOM     22  C   UNL     1      45.713   5.712  11.746  0.00  0.00    +0.000 C 
ATOM     23  C   UNL     1      44.813   5.196  10.619  0.00  0.00    +0.000 C 
BRANCH  18  24
ATOM     24  C   UNL     1      42.537   5.779  11.668  0.00  0.00    +0.000 C 
BRANCH  24  25
ATOM     25  N   UNL     1      42.774   7.062  11.013  0.00  0.00    +0.000 NA
ATOM     26  H   UNL     1      43.756   7.320  11.116  0.00  0.00    +0.000 HD
ATOM     27  H   UNL     1      42.238   7.790  11.484  0.00  0.00    +0.000 HD
ENDBRANCH  24  25
ENDBRANCH  18  24
ENDBRANCH  17  21
ENDBRANCH   1  17
TORSDOF 5
ENDMDL
MODEL 8
REMARK VINA RESULT:    -6.024      5.078      7.060
REMARK INTER + INTRA:          -7.793
REMARK INTER:                  -7.405
REMARK INTRA:                  -0.388
REMARK UNBOUND:                -0.183
REMARK  Name = 
REMARK  5 active torsions:
REMARK  status: ('A' for Active; 'I' for Inactive)
REMARK    1  A    between atoms: N_1  and  C_2
REMARK    2  A    between atoms: C_2  and  C_3
REMARK    3  A    between atoms: N_6  and  C_7
REMARK    4  A    between atoms: C_7  and  C_8
REMARK    5  A    between atoms: C_15  and  C_16
REMARK                            x       y       z     vdW  Elec       q    Type
REMARK                         _______ _______ _______ _____ _____    ______ ____
ROOT
ATOM      1  C   UNL     1      47.532   4.522  15.089  0.00  0.00    +0.000 A 
ATOM      2  N   UNL     1      47.343   3.220  14.809  0.00  0.00    +0.000 NA
ATOM      3  N   UNL     1      46.732   3.228  13.616  0.00  0.00    +0.000 N 
ATOM      4  C   UNL     1      46.492   4.477  13.118  0.00  0.00    +0.000 A 
ATOM      5  C   UNL     1      45.840   4.900  11.959  0.00  0.00    +0.000 A 
ATOM      6  C   UNL     1      45.735   6.277  11.756  0.00  0.00    +0.000 A 
ATOM      7  F   UNL     1      45.075   6.686  10.659  0.00  0.00    +0.000 F 
ATOM      8  C   UNL     1      46.281   7.201  12.652  0.00  0.00    +0.000 A 
ATOM      9  C   UNL     1      46.959   6.743  13.799  0.00  0.00    +0.000 A 
ATOM     10  C   UNL     1      47.040   5.358  14.046  0.00  0.00    +0.000 A 
ATOM     11  H   UNL     1      46.475   2.337  13.205  0.00  0.00    +0.000 HD
ENDROOT
BRANCH   8  12
ATOM     12  C   UNL     1      46.146   8.672  12.467  0.00  0.00    +0.000 C 
ATOM     13  N   UNL     1      44.967   9.262  12.818  0.00  0.00    +0.000 N 
ATOM     14  O   UNL     1      47.070   9.349  12.034  0.00  0.00    +0.000 OA
ATOM     15  H   UNL     1      44.176   8.748  13.191  0.00  0.00    +0.000 HD
ATOM     16  H   UNL     1      44.893  10.266  12.726  0.00  0.00    +0.000 HD
ENDBRANCH   8  12
BRANCH   1  17
ATOM     17  C   UNL     1      48.105   4.914  16.424  0.00  0.00    +0.000 C 
BRANCH  17  21
ATOM     18  C   UNL     1      51.866   4.331  18.460  0.00  0.00    +0.000 C 
ATOM     19  C   UNL     1      51.690   5.516  17.501  0.00  0.00    +0.000 C 
ATOM     20  C   UNL     1      50.223   5.762  17.140  0.00  0.00    +0.000 C 
ATOM     21  N   UNL     1      49.537   4.569  16.605  0.00  0.00    +0.000 NA
ATOM     22  C   UNL     1      49.694   3.405  17.496  0.00  0.00    +0.000 C 
ATOM     23  C   UNL     1      51.159   3.118  17.843  0.00  0.00    +0.000 C 
BRANCH  18  24
ATOM     24  C   UNL     1      51.368   4.681  19.877  0.00  0.00    +0.000 C 
BRANCH  24  25
ATOM     25  N   UNL     1      52.329   4.302  20.908  0.00  0.00    +0.000 NA
ATOM     26  H   UNL     1      52.982   5.070  21.063  0.00  0.00    +0.000 HD
ATOM     27  H   UNL     1      52.889   3.514  20.581  0.00  0.00    +0.000 HD
ENDBRANCH  24  25
ENDBRANCH  18  24
ENDBRANCH  17  21
ENDBRANCH   1  17
TORSDOF 5
ENDMDL
MODEL 9
REMARK VINA RESULT:    -5.983      5.607      8.321
REMARK INTER + INTRA:          -7.740
REMARK INTER:                  -7.194
REMARK INTRA:                  -0.546
REMARK UNBOUND:                -0.183
REMARK  Name = 
REMARK  5 active torsions:
REMARK  status: ('A' for Active; 'I' for Inactive)
REMARK    1  A    between atoms: N_1  and  C_2
REMARK    2  A    between atoms: C_2  and  C_3
REMARK    3  A    between atoms: N_6  and  C_7
REMARK    4  A    between atoms: C_7  and  C_8
REMARK    5  A    between atoms: C_15  and  C_16
REMARK                            x       y       z     vdW  Elec       q    Type
REMARK                         _______ _______ _______ _____ _____    ______ ____
ROOT
ATOM      1  C   UNL     1      47.288   4.217  16.047  0.00  0.00    +0.000 A 
ATOM      2  N   UNL     1      46.699   3.413  16.951  0.00  0.00    +0.000 NA
ATOM      3  N   UNL     1      47.252   3.772  18.117  0.00  0.00    +0.000 N 
ATOM      4  C   UNL     1      48.193   4.756  18.012  0.00  0.00    +0.000 A 
ATOM      5  C   UNL     1      49.019   5.350  18.968  0.00  0.00    +0.000 A 
ATOM      6  C   UNL     1      49.912   6.324  18.516  0.00  0.00    +0.000 A 
ATOM      7  F   UNL     1      50.733   6.871  19.429  0.00  0.00    +0.000 F 
ATOM      8  C   UNL     1      49.965   6.715  17.175  0.00  0.00    +0.000 A 
ATOM      9  C   UNL     1      49.098   6.118  16.239  0.00  0.00    +0.000 A 
ATOM     10  C   UNL     1      48.219   5.102  16.664  0.00  0.00    +0.000 A 
ATOM     11  H   UNL     1      46.962   3.278  18.955  0.00  0.00    +0.000 HD
ENDROOT
BRANCH   8  12
ATOM     12  C   UNL     1      50.935   7.727  16.675  0.00  0.00    +0.000 C 
ATOM     13  N   UNL     1      51.800   7.358  15.684  0.00  0.00    +0.000 N 
ATOM     14  O   UNL     1      50.952   8.870  17.113  0.00  0.00    +0.000 OA
ATOM     15  H   UNL     1      51.819   6.429  15.280  0.00  0.00    +0.000 HD
ATOM     16  H   UNL     1      52.432   8.059  15.321  0.00  0.00    +0.000 HD
ENDBRANCH   8  12
BRANCH   1  17
ATOM     17  C   UNL     1      46.992   4.026  14.585  0.00  0.00    +0.000 C 
BRANCH  17  21
ATOM     18  C   UNL     1      45.284   6.419  11.424  0.00  0.00    +0.000 C 
ATOM     19  C   UNL     1      46.618   6.830  12.060  0.00  0.00    +0.000 C 
ATOM     20  C   UNL     1      47.232   5.710  12.904  0.00  0.00    +0.000 C 
ATOM     21  N   UNL     1      46.319   5.181  13.937  0.00  0.00    +0.000 NA
ATOM     22  C   UNL     1      45.020   4.784  13.364  0.00  0.00    +0.000 C 
ATOM     23  C   UNL     1      44.370   5.902  12.542  0.00  0.00    +0.000 C 
BRANCH  18  24
ATOM     24  C   UNL     1      45.498   5.403  10.284  0.00  0.00    +0.000 C 
BRANCH  24  25
ATOM     25  N   UNL     1      44.237   4.874   9.773  0.00  0.00    +0.000 NA
ATOM     26  H   UNL     1      43.617   4.659  10.553  0.00  0.00    +0.000 HD
ATOM     27  H   UNL     1      44.406   3.992   9.291  0.00  0.00    +0.000 HD
ENDBRANCH  24  25
ENDBRANCH  18  24
ENDBRANCH  17  21
ENDBRANCH   1  17
TORSDOF 5
ENDMDL
