MODEL 1
REMARK VINA RESULT:    -9.434      0.000      0.000
REMARK INTER + INTRA:         -12.235
REMARK INTER:                 -11.640
REMARK INTRA:                  -0.594
REMARK UNBOUND:                -0.594
REMARK  Name = 
REMARK  5 active torsions:
REMARK  status: ('A' for Active; 'I' for Inactive)
REMARK    1  A    between atoms: C_1  and  O_2
REMARK    2  A    between atoms: O_2  and  C_3
REMARK    3  A    between atoms: C_5  and  C_6
REMARK    4  A    between atoms: C_6  and  N_7
REMARK    5  A    between atoms: C_11  and  C_12
REMARK                            x       y       z     vdW  Elec       q    Type
REMARK                         _______ _______ _______ _____ _____    ______ ____
ROOT
ATOM      1  C   UNL     1      44.169   5.018  11.298  0.00  0.00    +0.000 C 
ATOM      2  C   UNL     1      42.833   5.534  11.828  0.00  0.00    +0.000 C 
ATOM      3  C   UNL     1      43.014   4.073  11.612  0.00  0.00    +0.000 C 
ENDROOT
BRANCH   1   6
ATOM      4  C   UNL     1      46.799   4.321  13.890  0.00  0.00    +0.000 A 
ATOM      5  C   UNL     1      45.641   4.142  13.177  0.00  0.00    +0.000 A 
ATOM      6  C   UNL     1      45.312   5.162  12.301  0.00  0.00    +0.000 A 
ATOM      7  N   UNL     1      46.053   6.282  12.233  0.00  0.00    +0.000 NA
ATOM      8  C   UNL     1      47.158   6.378  12.973  0.00  0.00    +0.000 A 
ATOM      9  N   UNL     1      47.871   7.537  12.908  0.00  0.00    +0.000 N 
ATOM     10  C   UNL     1      49.264   7.601  13.324  0.00  0.00    +0.000 C 
ATOM     11  C   UNL     1      49.491   8.951  14.017  0.00  0.00    +0.000 C 
ATOM     12  O   UNL     1      49.093  10.057  13.180  0.00  0.00    +0.000 OA
ATOM     13  C   UNL     1      47.698   9.949  12.834  0.00  0.00    +0.000 C 
ATOM     14  C   UNL     1      47.405   8.645  12.083  0.00  0.00    +0.000 C 
ATOM     15  N   UNL     1      47.572   5.408  13.796  0.00  0.00    +0.000 NA
BRANCH   4  17
ATOM     16  C   UNL     1      47.556   3.742  16.023  0.00  0.00    +0.000 C 
ATOM     17  O   UNL     1      47.178   3.287  14.726  0.00  0.00    +0.000 OA
ENDBRANCH   4  17
ENDBRANCH   1   6
BRANCH   1  18
ATOM     18  N   UNL     1      44.549   5.213   9.884  0.00  0.00    +0.000 N 
ATOM     19  C   UNL     1      45.323   4.296   9.156  0.00  0.00    +0.000 A 
ATOM     20  C   UNL     1      45.344   2.930   9.420  0.00  0.00    +0.000 A 
ATOM     21  C   UNL     1      46.006   2.059   8.553  0.00  0.00    +0.000 A 
ATOM     22  C   UNL     1      46.666   2.561   7.437  0.00  0.00    +0.000 A 
ATOM     23  C   UNL     1      46.641   3.940   7.272  0.00  0.00    +0.000 A 
ATOM     24  N   UNL     1      45.987   4.803   8.094  0.00  0.00    +0.000 NA
ATOM     25  H   UNL     1      44.825   6.142   9.577  0.00  0.00    +0.000 HD
BRANCH  22  26
ATOM     26  C   UNL     1      47.316   1.605   6.507  0.00  0.00    +0.000 C 
ATOM     27  N   UNL     1      48.206   2.078   5.586  0.00  0.00    +0.000 N 
ATOM     28  O   UNL     1      47.057   0.410   6.548  0.00  0.00    +0.000 OA
ATOM     29  H   UNL     1      48.480   3.037   5.456  0.00  0.00    +0.000 HD
ATOM     30  H   UNL     1      48.604   1.390   4.955  0.00  0.00    +0.000 HD
ENDBRANCH  22  26
ENDBRANCH   1  18
TORSDOF 4
ENDMDL
MODEL 2
REMARK VINA RESULT:    -7.193      1.519      3.573
REMARK INTER + INTRA:          -9.470
REMARK INTER:                  -9.228
REMARK INTRA:                  -0.242
REMARK UNBOUND:                -0.594
REMARK  Name = 
REMARK  5 active torsions:
REMARK  status: ('A' for Active; 'I' for Inactive)
REMARK    1  A    between atoms: C_1  and  O_2
REMARK    2  A    between atoms: O_2  and  C_3
REMARK    3  A    between atoms: C_5  and  C_6
REMARK    4  A    between atoms: C_6  and  N_7
REMARK    5  A    between atoms: C_11  and  C_12
REMARK                            x       y       z     vdW  Elec       q    Type
REMARK                         _______ _______ _______ _____ _____    ______ ____
ROOT
ATOM      1  C   UNL     1      44.708   4.944  11.988  0.00  0.00    +0.000 C 
ATOM      2  C   UNL     1      43.464   5.084  12.863  0.00  0.00    +0.000 C 
ATOM      3  C   UNL     1      44.001   3.727  12.573  0.00  0.00    +0.000 C 
ENDROOT
BRANCH   1   6
ATOM      4  C   UNL     1      47.689   7.027  12.934  0.00  0.00    +0.000 A 
ATOM      5  C   UNL     1      46.683   6.539  12.141  0.00  0.00    +0.000 A 
ATOM      6  C   UNL     1      45.978   5.466  12.658  0.00  0.00    +0.000 A 
ATOM      7  N   UNL     1      46.333   4.905  13.828  0.00  0.00    +0.000 NA
ATOM      8  C   UNL     1      47.334   5.437  14.529  0.00  0.00    +0.000 A 
ATOM      9  N   UNL     1      47.691   4.828  15.694  0.00  0.00    +0.000 N 
ATOM     10  C   UNL     1      48.455   5.527  16.718  0.00  0.00    +0.000 C 
ATOM     11  C   UNL     1      49.443   4.529  17.337  0.00  0.00    +0.000 C 
ATOM     12  O   UNL     1      48.775   3.348  17.828  0.00  0.00    +0.000 OA
ATOM     13  C   UNL     1      48.068   2.689  16.759  0.00  0.00    +0.000 C 
ATOM     14  C   UNL     1      47.018   3.610  16.128  0.00  0.00    +0.000 C 
ATOM     15  N   UNL     1      48.021   6.510  14.122  0.00  0.00    +0.000 NA
BRANCH   4  17
ATOM     16  C   UNL     1      49.433   7.795  11.581  0.00  0.00    +0.000 C 
ATOM     17  O   UNL     1      48.366   8.137  12.463  0.00  0.00    +0.000 OA
ENDBRANCH   4  17
ENDBRANCH   1   6
BRANCH   1  18
ATOM     18  N   UNL     1      44.636   5.162  10.529  0.00  0.00    +0.000 N 
ATOM     19  C   UNL     1      45.279   4.340   9.590  0.00  0.00    +0.000 A 
ATOM     20  C   UNL     1      45.551   2.993   9.809  0.00  0.00    +0.000 A 
ATOM     21  C   UNL     1      46.041   2.199   8.770  0.00  0.00    +0.000 A 
ATOM     22  C   UNL     1      46.282   2.763   7.523  0.00  0.00    +0.000 A 
ATOM     23  C   UNL     1      46.033   4.124   7.400  0.00  0.00    +0.000 A 
ATOM     24  N   UNL     1      45.538   4.910   8.393  0.00  0.00    +0.000 NA
ATOM     25  H   UNL     1      44.690   6.113  10.175  0.00  0.00    +0.000 HD
BRANCH  22  26
ATOM     26  C   UNL     1      46.753   1.882   6.425  0.00  0.00    +0.000 C 
ATOM     27  N   UNL     1      46.819   2.382   5.156  0.00  0.00    +0.000 N 
ATOM     28  O   UNL     1      47.070   0.721   6.640  0.00  0.00    +0.000 OA
ATOM     29  H   UNL     1      46.571   3.314   4.867  0.00  0.00    +0.000 HD
ATOM     30  H   UNL     1      47.123   1.735   4.436  0.00  0.00    +0.000 HD
ENDBRANCH  22  26
ENDBRANCH   1  18
TORSDOF 4
ENDMDL
MODEL 3
REMARK VINA RESULT:    -6.873      1.481      1.755
REMARK INTER + INTRA:          -9.075
REMARK INTER:                  -9.233
REMARK INTRA:                   0.158
REMARK UNBOUND:                -0.594
REMARK  Name = 
REMARK  5 active torsions:
REMARK  status: ('A' for Active; 'I' for Inactive)
REMARK    1  A    between atoms: C_1  and  O_2
REMARK    2  A    between atoms: O_2  and  C_3
REMARK    3  A    between atoms: C_5  and  C_6
REMARK    4  A    between atoms: C_6  and  N_7
REMARK    5  A    between atoms: C_11  and  C_12
REMARK                            x       y       z     vdW  Elec       q    Type
REMARK                         _______ _______ _______ _____ _____    ______ ____
ROOT
ATOM      1  C   UNL     1      43.984   4.938  11.732  0.00  0.00    +0.000 C 
ATOM      2  C   UNL     1      43.039   5.930  11.056  0.00  0.00    +0.000 C 
ATOM      3  C   UNL     1      42.555   5.144  12.223  0.00  0.00    +0.000 C 
ENDROOT
BRANCH   1   6
ATOM      4  C   UNL     1      47.019   5.582  13.850  0.00  0.00    +0.000 A 
ATOM      5  C   UNL     1      45.906   4.924  13.397  0.00  0.00    +0.000 A 
ATOM      6  C   UNL     1      45.135   5.612  12.475  0.00  0.00    +0.000 A 
ATOM      7  N   UNL     1      45.438   6.875  12.127  0.00  0.00    +0.000 NA
ATOM      8  C   UNL     1      46.535   7.444  12.627  0.00  0.00    +0.000 A 
ATOM      9  N   UNL     1      46.798   8.736  12.281  0.00  0.00    +0.000 N 
ATOM     10  C   UNL     1      48.130   9.306  12.416  0.00  0.00    +0.000 C 
ATOM     11  C   UNL     1      47.979  10.762  12.876  0.00  0.00    +0.000 C 
ATOM     12  O   UNL     1      47.121  11.516  11.995  0.00  0.00    +0.000 OA
ATOM     13  C   UNL     1      45.812  10.917  11.933  0.00  0.00    +0.000 C 
ATOM     14  C   UNL     1      45.878   9.473  11.424  0.00  0.00    +0.000 C 
ATOM     15  N   UNL     1      47.359   6.820  13.475  0.00  0.00    +0.000 NA
BRANCH   4  17
ATOM     16  C   UNL     1      47.129   4.400  15.863  0.00  0.00    +0.000 C 
ATOM     17  O   UNL     1      47.835   4.889  14.726  0.00  0.00    +0.000 OA
ENDBRANCH   4  17
ENDBRANCH   1   6
BRANCH   1  18
ATOM     18  N   UNL     1      44.323   3.654  11.085  0.00  0.00    +0.000 N 
ATOM     19  C   UNL     1      44.926   3.558   9.821  0.00  0.00    +0.000 A 
ATOM     20  C   UNL     1      45.763   4.536   9.295  0.00  0.00    +0.000 A 
ATOM     21  C   UNL     1      46.457   4.300   8.107  0.00  0.00    +0.000 A 
ATOM     22  C   UNL     1      46.291   3.094   7.436  0.00  0.00    +0.000 A 
ATOM     23  C   UNL     1      45.399   2.190   8.000  0.00  0.00    +0.000 A 
ATOM     24  N   UNL     1      44.728   2.394   9.165  0.00  0.00    +0.000 NA
ATOM     25  H   UNL     1      43.665   2.883  11.158  0.00  0.00    +0.000 HD
BRANCH  22  26
ATOM     26  C   UNL     1      47.082   2.851   6.204  0.00  0.00    +0.000 C 
ATOM     27  N   UNL     1      48.407   2.540   6.318  0.00  0.00    +0.000 N 
ATOM     28  O   UNL     1      46.568   2.937   5.098  0.00  0.00    +0.000 OA
ATOM     29  H   UNL     1      48.931   2.457   7.173  0.00  0.00    +0.000 HD
ATOM     30  H   UNL     1      48.911   2.408   5.448  0.00  0.00    +0.000 HD
ENDBRANCH  22  26
ENDBRANCH   1  18
TORSDOF 4
ENDMDL
MODEL 4
REMARK VINA RESULT:    -6.736      2.100      3.418
REMARK INTER + INTRA:          -8.906
REMARK INTER:                  -8.891
REMARK INTRA:                  -0.015
REMARK UNBOUND:                -0.594
REMARK  Name = 
REMARK  5 active torsions:
REMARK  status: ('A' for Active; 'I' for Inactive)
REMARK    1  A    between atoms: C_1  and  O_2
REMARK    2  A    between atoms: O_2  and  C_3
REMARK    3  A    between atoms: C_5  and  C_6
REMARK    4  A    between atoms: C_6  and  N_7
REMARK    5  A    between atoms: C_11  and  C_12
REMARK                            x       y       z     vdW  Elec       q    Type
REMARK                         _______ _______ _______ _____ _____    ______ ____
ROOT
ATOM      1  C   UNL     1      43.564   5.672  11.208  0.00  0.00    +0.000 C 
ATOM      2  C   UNL     1      42.284   5.498  12.023  0.00  0.00    +0.000 C 
ATOM      3  C   UNL     1      43.445   4.607  12.292  0.00  0.00    +0.000 C 
ENDROOT
BRANCH   1   6
ATOM      4  C   UNL     1      44.465   9.300  11.594  0.00  0.00    +0.000 A 
ATOM      5  C   UNL     1      43.817   8.200  11.094  0.00  0.00    +0.000 A 
ATOM      6  C   UNL     1      44.302   6.974  11.516  0.00  0.00    +0.000 A 
ATOM      7  N   UNL     1      45.391   6.894  12.300  0.00  0.00    +0.000 NA
ATOM      8  C   UNL     1      45.968   8.017  12.730  0.00  0.00    +0.000 A 
ATOM      9  N   UNL     1      47.089   7.905  13.496  0.00  0.00    +0.000 N 
ATOM     10  C   UNL     1      47.547   8.996  14.343  0.00  0.00    +0.000 C 
ATOM     11  C   UNL     1      49.081   9.021  14.297  0.00  0.00    +0.000 C 
ATOM     12  O   UNL     1      49.648   7.743  14.654  0.00  0.00    +0.000 OA
ATOM     13  C   UNL     1      49.180   6.717  13.758  0.00  0.00    +0.000 C 
ATOM     14  C   UNL     1      47.653   6.594  13.793  0.00  0.00    +0.000 C 
ATOM     15  N   UNL     1      45.519   9.236  12.414  0.00  0.00    +0.000 NA
BRANCH   4  17
ATOM     16  C   UNL     1      42.799  10.432  10.408  0.00  0.00    +0.000 C 
ATOM     17  O   UNL     1      43.958  10.535  11.233  0.00  0.00    +0.000 OA
ENDBRANCH   4  17
ENDBRANCH   1   6
BRANCH   1  18
ATOM     18  N   UNL     1      43.631   5.233   9.800  0.00  0.00    +0.000 N 
ATOM     19  C   UNL     1      44.532   4.262   9.332  0.00  0.00    +0.000 A 
ATOM     20  C   UNL     1      45.029   3.233  10.125  0.00  0.00    +0.000 A 
ATOM     21  C   UNL     1      45.787   2.211   9.553  0.00  0.00    +0.000 A 
ATOM     22  C   UNL     1      46.066   2.235   8.191  0.00  0.00    +0.000 A 
ATOM     23  C   UNL     1      45.577   3.322   7.479  0.00  0.00    +0.000 A 
ATOM     24  N   UNL     1      44.820   4.318   8.014  0.00  0.00    +0.000 NA
ATOM     25  H   UNL     1      43.544   5.931   9.067  0.00  0.00    +0.000 HD
BRANCH  22  26
ATOM     26  C   UNL     1      46.830   1.107   7.602  0.00  0.00    +0.000 C 
ATOM     27  N   UNL     1      47.852   1.379   6.738  0.00  0.00    +0.000 N 
ATOM     28  O   UNL     1      46.550  -0.052   7.871  0.00  0.00    +0.000 OA
ATOM     29  H   UNL     1      48.156   2.290   6.439  0.00  0.00    +0.000 HD
ATOM     30  H   UNL     1      48.327   0.575   6.342  0.00  0.00    +0.000 HD
ENDBRANCH  22  26
ENDBRANCH   1  18
TORSDOF 4
ENDMDL
