MODEL 1
REMARK VINA RESULT:    -8.234      0.000      0.000
REMARK INTER + INTRA:         -11.371
REMARK INTER:                 -10.641
REMARK INTRA:                  -0.730
REMARK UNBOUND:                -0.730
REMARK  Name = 
REMARK  6 active torsions:
REMARK  status: ('A' for Active; 'I' for Inactive)
REMARK    1  A    between atoms: C_1  and  O_2
REMARK    2  A    between atoms: O_2  and  C_3
REMARK    3  A    between atoms: C_5  and  N_6
REMARK    4  A    between atoms: N_14  and  C_15
REMARK    5  A    between atoms: C_15  and  C_16
REMARK    6  A    between atoms: C_19  and  C_20
REMARK                            x       y       z     vdW  Elec       q    Type
REMARK                         _______ _______ _______ _____ _____    ______ ____
ROOT
ATOM      1  C   UNL     1      46.379   7.217  12.499  0.00  0.00    +0.000 A 
ATOM      2  C   UNL     1      47.128   6.809  13.570  0.00  0.00    +0.000 A 
ATOM      3  C   UNL     1      46.940   5.514  14.006  0.00  0.00    +0.000 A 
ATOM      4  N   UNL     1      46.012   4.737  13.409  0.00  0.00    +0.000 NA
ATOM      5  C   UNL     1      45.343   5.210  12.350  0.00  0.00    +0.000 A 
ATOM      6  N   UNL     1      44.388   4.380  11.779  0.00  0.00    +0.000 N 
ATOM      7  N   UNL     1      45.504   6.431  11.859  0.00  0.00    +0.000 NA
ATOM      8  H   UNL     1      43.581   4.429  12.394  0.00  0.00    +0.000 HD
ENDROOT
BRANCH   3   9
ATOM      9  N   UNL     1      47.654   4.999  15.068  0.00  0.00    +0.000 N 
ATOM     10  C   UNL     1      47.446   3.648  15.598  0.00  0.00    +0.000 C 
ATOM     11  C   UNL     1      47.132   3.692  17.112  0.00  0.00    +0.000 C 
ATOM     12  N   UNL     1      48.121   4.450  17.904  0.00  0.00    +0.000 NA
ATOM     13  C   UNL     1      48.220   5.819  17.347  0.00  0.00    +0.000 C 
ATOM     14  C   UNL     1      48.556   5.860  15.840  0.00  0.00    +0.000 C 
ATOM     15  H   UNL     1      49.028   3.998  17.795  0.00  0.00    +0.000 HD
ENDBRANCH   3   9
BRANCH   1  17
ATOM     16  C   UNL     1      45.301   9.260  12.228  0.00  0.00    +0.000 C 
ATOM     17  O   UNL     1      46.513   8.529  12.087  0.00  0.00    +0.000 OA
ENDBRANCH   1  17
BRANCH   6  18
ATOM     18  C   UNL     1      44.019   4.738  10.410  0.00  0.00    +0.000 C 
BRANCH  18  19
ATOM     19  C   UNL     1      44.886   3.952   9.442  0.00  0.00    +0.000 A 
ATOM     20  C   UNL     1      44.895   2.558   9.524  0.00  0.00    +0.000 A 
ATOM     21  C   UNL     1      45.686   1.829   8.642  0.00  0.00    +0.000 A 
ATOM     22  C   UNL     1      46.455   2.502   7.698  0.00  0.00    +0.000 A 
ATOM     23  C   UNL     1      46.403   3.891   7.686  0.00  0.00    +0.000 A 
ATOM     24  N   UNL     1      45.629   4.629   8.530  0.00  0.00    +0.000 NA
BRANCH  22  25
ATOM     25  C   UNL     1      47.342   1.791   6.753  0.00  0.00    +0.000 C 
ATOM     26  N   UNL     1      48.370   2.514   6.190  0.00  0.00    +0.000 N 
ATOM     27  O   UNL     1      47.180   0.611   6.496  0.00  0.00    +0.000 OA
ATOM     28  H   UNL     1      48.636   3.439   6.493  0.00  0.00    +0.000 HD
ATOM     29  H   UNL     1      48.998   2.013   5.580  0.00  0.00    +0.000 HD
ENDBRANCH  22  25
ENDBRANCH  18  19
ENDBRANCH   6  18
TORSDOF 5
ENDMDL
MODEL 2
REMARK VINA RESULT:    -7.737      2.225      3.561
REMARK INTER + INTRA:         -10.729
REMARK INTER:                 -10.191
REMARK INTRA:                  -0.538
REMARK UNBOUND:                -0.730
REMARK  Name = 
REMARK  6 active torsions:
REMARK  status: ('A' for Active; 'I' for Inactive)
REMARK    1  A    between atoms: C_1  and  O_2
REMARK    2  A    between atoms: O_2  and  C_3
REMARK    3  A    between atoms: C_5  and  N_6
REMARK    4  A    between atoms: N_14  and  C_15
REMARK    5  A    between atoms: C_15  and  C_16
REMARK    6  A    between atoms: C_19  and  C_20
REMARK                            x       y       z     vdW  Elec       q    Type
REMARK                         _______ _______ _______ _____ _____    ______ ____
ROOT
ATOM      1  C   UNL     1      46.927   5.161  13.254  0.00  0.00    +0.000 A 
ATOM      2  C   UNL     1      47.357   6.348  13.786  0.00  0.00    +0.000 A 
ATOM      3  C   UNL     1      46.937   7.502  13.159  0.00  0.00    +0.000 A 
ATOM      4  N   UNL     1      46.182   7.419  12.045  0.00  0.00    +0.000 NA
ATOM      5  C   UNL     1      45.785   6.217  11.609  0.00  0.00    +0.000 A 
ATOM      6  N   UNL     1      45.022   6.181  10.450  0.00  0.00    +0.000 N 
ATOM      7  N   UNL     1      46.122   5.072  12.188  0.00  0.00    +0.000 NA
ATOM      8  H   UNL     1      45.679   6.313   9.687  0.00  0.00    +0.000 HD
ENDROOT
BRANCH   3   9
ATOM      9  N   UNL     1      47.303   8.749  13.623  0.00  0.00    +0.000 N 
ATOM     10  C   UNL     1      47.285   9.954  12.789  0.00  0.00    +0.000 C 
ATOM     11  C   UNL     1      48.672  10.642  12.785  0.00  0.00    +0.000 C 
ATOM     12  N   UNL     1      49.207  10.911  14.134  0.00  0.00    +0.000 NA
ATOM     13  C   UNL     1      49.255   9.635  14.884  0.00  0.00    +0.000 C 
ATOM     14  C   UNL     1      47.900   8.897  14.955  0.00  0.00    +0.000 C 
ATOM     15  H   UNL     1      48.560  11.536  14.613  0.00  0.00    +0.000 HD
ENDBRANCH   3   9
BRANCH   1  17
ATOM     16  C   UNL     1      47.239   4.011  15.251  0.00  0.00    +0.000 C 
ATOM     17  O   UNL     1      47.385   3.995  13.836  0.00  0.00    +0.000 OA
ENDBRANCH   1  17
BRANCH   6  18
ATOM     18  C   UNL     1      44.259   4.946  10.268  0.00  0.00    +0.000 C 
BRANCH  18  19
ATOM     19  C   UNL     1      45.033   4.017   9.350  0.00  0.00    +0.000 A 
ATOM     20  C   UNL     1      44.978   2.640   9.580  0.00  0.00    +0.000 A 
ATOM     21  C   UNL     1      45.683   1.780   8.746  0.00  0.00    +0.000 A 
ATOM     22  C   UNL     1      46.434   2.308   7.699  0.00  0.00    +0.000 A 
ATOM     23  C   UNL     1      46.450   3.689   7.541  0.00  0.00    +0.000 A 
ATOM     24  N   UNL     1      45.760   4.552   8.337  0.00  0.00    +0.000 NA
BRANCH  22  25
ATOM     25  C   UNL     1      47.233   1.454   6.795  0.00  0.00    +0.000 C 
ATOM     26  N   UNL     1      48.319   2.034   6.179  0.00  0.00    +0.000 N 
ATOM     27  O   UNL     1      46.951   0.282   6.616  0.00  0.00    +0.000 OA
ATOM     28  H   UNL     1      48.680   2.945   6.420  0.00  0.00    +0.000 HD
ATOM     29  H   UNL     1      48.886   1.436   5.597  0.00  0.00    +0.000 HD
ENDBRANCH  22  25
ENDBRANCH  18  19
ENDBRANCH   6  18
TORSDOF 5
ENDMDL
MODEL 3
REMARK VINA RESULT:    -7.552      3.455      7.822
REMARK INTER + INTRA:         -10.490
REMARK INTER:                  -9.861
REMARK INTRA:                  -0.629
REMARK UNBOUND:                -0.730
REMARK  Name = 
REMARK  6 active torsions:
REMARK  status: ('A' for Active; 'I' for Inactive)
REMARK    1  A    between atoms: C_1  and  O_2
REMARK    2  A    between atoms: O_2  and  C_3
REMARK    3  A    between atoms: C_5  and  N_6
REMARK    4  A    between atoms: N_14  and  C_15
REMARK    5  A    between atoms: C_15  and  C_16
REMARK    6  A    between atoms: C_19  and  C_20
REMARK                            x       y       z     vdW  Elec       q    Type
REMARK                         _______ _______ _______ _____ _____    ______ ____
ROOT
ATOM      1  C   UNL     1      47.898   6.270  13.428  0.00  0.00    +0.000 A 
ATOM      2  C   UNL     1      46.972   6.086  12.435  0.00  0.00    +0.000 A 
ATOM      3  C   UNL     1      46.014   5.117  12.647  0.00  0.00    +0.000 A 
ATOM      4  N   UNL     1      46.057   4.370  13.770  0.00  0.00    +0.000 NA
ATOM      5  C   UNL     1      46.982   4.637  14.700  0.00  0.00    +0.000 A 
ATOM      6  N   UNL     1      46.996   3.833  15.831  0.00  0.00    +0.000 N 
ATOM      7  N   UNL     1      47.907   5.579  14.574  0.00  0.00    +0.000 NA
ATOM      8  H   UNL     1      47.440   2.965  15.544  0.00  0.00    +0.000 HD
ENDROOT
BRANCH   3   9
ATOM      9  N   UNL     1      45.028   4.861  11.717  0.00  0.00    +0.000 N 
ATOM     10  C   UNL     1      43.865   4.012  11.990  0.00  0.00    +0.000 C 
ATOM     11  C   UNL     1      43.759   2.870  10.950  0.00  0.00    +0.000 C 
ATOM     12  N   UNL     1      43.788   3.335   9.550  0.00  0.00    +0.000 NA
ATOM     13  C   UNL     1      45.023   4.124   9.341  0.00  0.00    +0.000 C 
ATOM     14  C   UNL     1      45.190   5.302  10.327  0.00  0.00    +0.000 C 
ATOM     15  H   UNL     1      42.990   3.952   9.404  0.00  0.00    +0.000 HD
ENDBRANCH   3   9
BRANCH   1  17
ATOM     16  C   UNL     1      48.886   7.685  11.869  0.00  0.00    +0.000 C 
ATOM     17  O   UNL     1      48.897   7.197  13.206  0.00  0.00    +0.000 OA
ENDBRANCH   1  17
BRANCH   6  18
ATOM     18  C   UNL     1      47.693   4.416  16.977  0.00  0.00    +0.000 C 
BRANCH  18  19
ATOM     19  C   UNL     1      49.001   3.674  17.191  0.00  0.00    +0.000 A 
ATOM     20  C   UNL     1      50.042   4.320  17.861  0.00  0.00    +0.000 A 
ATOM     21  C   UNL     1      51.244   3.650  18.062  0.00  0.00    +0.000 A 
ATOM     22  C   UNL     1      51.388   2.350  17.588  0.00  0.00    +0.000 A 
ATOM     23  C   UNL     1      50.312   1.778  16.919  0.00  0.00    +0.000 A 
ATOM     24  N   UNL     1      49.121   2.407  16.719  0.00  0.00    +0.000 NA
BRANCH  22  25
ATOM     25  C   UNL     1      52.648   1.591  17.738  0.00  0.00    +0.000 C 
ATOM     26  N   UNL     1      52.544   0.255  18.051  0.00  0.00    +0.000 N 
ATOM     27  O   UNL     1      53.732   2.124  17.575  0.00  0.00    +0.000 OA
ATOM     28  H   UNL     1      51.676  -0.259  18.036  0.00  0.00    +0.000 HD
ATOM     29  H   UNL     1      53.406  -0.268  18.109  0.00  0.00    +0.000 HD
ENDBRANCH  22  25
ENDBRANCH  18  19
ENDBRANCH   6  18
TORSDOF 5
ENDMDL
MODEL 4
REMARK VINA RESULT:    -6.406      3.343      5.429
REMARK INTER + INTRA:          -9.008
REMARK INTER:                  -8.413
REMARK INTRA:                  -0.595
REMARK UNBOUND:                -0.730
REMARK  Name = 
REMARK  6 active torsions:
REMARK  status: ('A' for Active; 'I' for Inactive)
REMARK    1  A    between atoms: C_1  and  O_2
REMARK    2  A    between atoms: O_2  and  C_3
REMARK    3  A    between atoms: C_5  and  N_6
REMARK    4  A    between atoms: N_14  and  C_15
REMARK    5  A    between atoms: C_15  and  C_16
REMARK    6  A    between atoms: C_19  and  C_20
REMARK                            x       y       z     vdW  Elec       q    Type
REMARK                         _______ _______ _______ _____ _____    ______ ____
ROOT
ATOM      1  C   UNL     1      51.073   7.214  15.864  0.00  0.00    +0.000 A 
ATOM      2  C   UNL     1      51.523   6.227  16.700  0.00  0.00    +0.000 A 
ATOM      3  C   UNL     1      50.655   5.187  16.962  0.00  0.00    +0.000 A 
ATOM      4  N   UNL     1      49.411   5.209  16.441  0.00  0.00    +0.000 NA
ATOM      5  C   UNL     1      49.064   6.201  15.611  0.00  0.00    +0.000 A 
ATOM      6  N   UNL     1      47.770   6.190  15.112  0.00  0.00    +0.000 N 
ATOM      7  N   UNL     1      49.864   7.210  15.290  0.00  0.00    +0.000 NA
ATOM      8  H   UNL     1      47.182   6.528  15.869  0.00  0.00    +0.000 HD
ENDROOT
BRANCH   3   9
ATOM      9  N   UNL     1      51.014   4.135  17.779  0.00  0.00    +0.000 N 
ATOM     10  C   UNL     1      52.141   4.192  18.715  0.00  0.00    +0.000 C 
ATOM     11  C   UNL     1      53.133   3.033  18.454  0.00  0.00    +0.000 C 
ATOM     12  N   UNL     1      52.500   1.700  18.432  0.00  0.00    +0.000 NA
ATOM     13  C   UNL     1      51.422   1.708  17.416  0.00  0.00    +0.000 C 
ATOM     14  C   UNL     1      50.374   2.824  17.622  0.00  0.00    +0.000 C 
ATOM     15  H   UNL     1      52.074   1.536  19.343  0.00  0.00    +0.000 HD
ENDBRANCH   3   9
BRANCH   1  17
ATOM     16  C   UNL     1      53.157   7.891  15.084  0.00  0.00    +0.000 C 
ATOM     17  O   UNL     1      51.909   8.291  15.638  0.00  0.00    +0.000 OA
ENDBRANCH   1  17
BRANCH   6  18
ATOM     18  C   UNL     1      47.580   6.998  13.908  0.00  0.00    +0.000 C 
BRANCH  18  19
ATOM     19  C   UNL     1      46.631   6.272  12.970  0.00  0.00    +0.000 A 
ATOM     20  C   UNL     1      46.604   6.638  11.622  0.00  0.00    +0.000 A 
ATOM     21  C   UNL     1      45.739   5.981  10.754  0.00  0.00    +0.000 A 
ATOM     22  C   UNL     1      44.914   4.974  11.245  0.00  0.00    +0.000 A 
ATOM     23  C   UNL     1      44.989   4.674  12.601  0.00  0.00    +0.000 A 
ATOM     24  N   UNL     1      45.835   5.294  13.470  0.00  0.00    +0.000 NA
BRANCH  22  25
ATOM     25  C   UNL     1      43.949   4.257  10.386  0.00  0.00    +0.000 C 
ATOM     26  N   UNL     1      44.043   4.461   9.028  0.00  0.00    +0.000 N 
ATOM     27  O   UNL     1      43.116   3.503  10.859  0.00  0.00    +0.000 OA
ATOM     28  H   UNL     1      44.811   4.943   8.585  0.00  0.00    +0.000 HD
ATOM     29  H   UNL     1      43.410   3.935   8.443  0.00  0.00    +0.000 HD
ENDBRANCH  22  25
ENDBRANCH  18  19
ENDBRANCH   6  18
TORSDOF 5
ENDMDL
MODEL 5
REMARK VINA RESULT:    -6.384      2.773      7.871
REMARK INTER + INTRA:          -8.981
REMARK INTER:                  -8.392
REMARK INTRA:                  -0.589
REMARK UNBOUND:                -0.730
REMARK  Name = 
REMARK  6 active torsions:
REMARK  status: ('A' for Active; 'I' for Inactive)
REMARK    1  A    between atoms: C_1  and  O_2
REMARK    2  A    between atoms: O_2  and  C_3
REMARK    3  A    between atoms: C_5  and  N_6
REMARK    4  A    between atoms: N_14  and  C_15
REMARK    5  A    between atoms: C_15  and  C_16
REMARK    6  A    between atoms: C_19  and  C_20
REMARK                            x       y       z     vdW  Elec       q    Type
REMARK                         _______ _______ _______ _____ _____    ______ ____
ROOT
ATOM      1  C   UNL     1      45.349   6.494  12.442  0.00  0.00    +0.000 A 
ATOM      2  C   UNL     1      45.033   5.973  11.216  0.00  0.00    +0.000 A 
ATOM      3  C   UNL     1      45.292   4.632  11.021  0.00  0.00    +0.000 A 
ATOM      4  N   UNL     1      45.879   3.916  12.003  0.00  0.00    +0.000 NA
ATOM      5  C   UNL     1      46.128   4.501  13.181  0.00  0.00    +0.000 A 
ATOM      6  N   UNL     1      46.746   3.729  14.155  0.00  0.00    +0.000 N 
ATOM      7  N   UNL     1      45.870   5.775  13.445  0.00  0.00    +0.000 NA
ATOM      8  H   UNL     1      47.727   3.691  13.892  0.00  0.00    +0.000 HD
ENDROOT
BRANCH   3   9
ATOM      9  N   UNL     1      44.999   4.006   9.827  0.00  0.00    +0.000 N 
ATOM     10  C   UNL     1      44.480   2.638   9.742  0.00  0.00    +0.000 C 
ATOM     11  C   UNL     1      45.381   1.761   8.840  0.00  0.00    +0.000 C 
ATOM     12  N   UNL     1      45.633   2.340   7.506  0.00  0.00    +0.000 NA
ATOM     13  C   UNL     1      46.218   3.689   7.682  0.00  0.00    +0.000 C 
ATOM     14  C   UNL     1      45.363   4.636   8.553  0.00  0.00    +0.000 C 
ATOM     15  H   UNL     1      44.737   2.444   7.031  0.00  0.00    +0.000 HD
ENDBRANCH   3   9
BRANCH   1  17
ATOM     16  C   UNL     1      46.280   8.474  13.228  0.00  0.00    +0.000 C 
ATOM     17  O   UNL     1      45.149   7.847  12.633  0.00  0.00    +0.000 OA
ENDBRANCH   1  17
BRANCH   6  18
ATOM     18  C   UNL     1      46.596   4.242  15.517  0.00  0.00    +0.000 C 
BRANCH  18  19
ATOM     19  C   UNL     1      47.900   4.040  16.269  0.00  0.00    +0.000 A 
ATOM     20  C   UNL     1      48.587   5.160  16.742  0.00  0.00    +0.000 A 
ATOM     21  C   UNL     1      49.782   4.987  17.431  0.00  0.00    +0.000 A 
ATOM     22  C   UNL     1      50.273   3.700  17.633  0.00  0.00    +0.000 A 
ATOM     23  C   UNL     1      49.540   2.636  17.121  0.00  0.00    +0.000 A 
ATOM     24  N   UNL     1      48.361   2.777  16.453  0.00  0.00    +0.000 NA
BRANCH  22  25
ATOM     25  C   UNL     1      51.552   3.445  18.328  0.00  0.00    +0.000 C 
ATOM     26  N   UNL     1      52.203   2.268  18.037  0.00  0.00    +0.000 N 
ATOM     27  O   UNL     1      52.019   4.252  19.114  0.00  0.00    +0.000 OA
ATOM     28  H   UNL     1      51.939   1.654  17.281  0.00  0.00    +0.000 HD
ATOM     29  H   UNL     1      53.097   2.119  18.481  0.00  0.00    +0.000 HD
ENDBRANCH  22  25
ENDBRANCH  18  19
ENDBRANCH   6  18
TORSDOF 5
ENDMDL
MODEL 6
REMARK VINA RESULT:    -6.079      3.325      6.055
REMARK INTER + INTRA:          -8.586
REMARK INTER:                  -8.036
REMARK INTRA:                  -0.551
REMARK UNBOUND:                -0.730
REMARK  Name = 
REMARK  6 active torsions:
REMARK  status: ('A' for Active; 'I' for Inactive)
REMARK    1  A    between atoms: C_1  and  O_2
REMARK    2  A    between atoms: O_2  and  C_3
REMARK    3  A    between atoms: C_5  and  N_6
REMARK    4  A    between atoms: N_14  and  C_15
REMARK    5  A    between atoms: C_15  and  C_16
REMARK    6  A    between atoms: C_19  and  C_20
REMARK                            x       y       z     vdW  Elec       q    Type
REMARK                         _______ _______ _______ _____ _____    ______ ____
ROOT
ATOM      1  C   UNL     1      50.092   4.282  17.799  0.00  0.00    +0.000 A 
ATOM      2  C   UNL     1      50.092   5.252  18.765  0.00  0.00    +0.000 A 
ATOM      3  C   UNL     1      49.176   6.274  18.625  0.00  0.00    +0.000 A 
ATOM      4  N   UNL     1      48.372   6.304  17.543  0.00  0.00    +0.000 NA
ATOM      5  C   UNL     1      48.420   5.299  16.660  0.00  0.00    +0.000 A 
ATOM      6  N   UNL     1      47.585   5.382  15.555  0.00  0.00    +0.000 N 
ATOM      7  N   UNL     1      49.251   4.270  16.756  0.00  0.00    +0.000 NA
ATOM      8  H   UNL     1      48.030   6.044  14.925  0.00  0.00    +0.000 HD
ENDROOT
BRANCH   3   9
ATOM      9  N   UNL     1      49.085   7.293  19.550  0.00  0.00    +0.000 N 
ATOM     10  C   UNL     1      47.909   7.506  20.399  0.00  0.00    +0.000 C 
ATOM     11  C   UNL     1      47.362   8.945  20.232  0.00  0.00    +0.000 C 
ATOM     12  N   UNL     1      48.380   9.995  20.425  0.00  0.00    +0.000 NA
ATOM     13  C   UNL     1      49.498   9.745  19.486  0.00  0.00    +0.000 C 
ATOM     14  C   UNL     1      50.116   8.335  19.607  0.00  0.00    +0.000 C 
ATOM     15  H   UNL     1      48.742   9.916  21.374  0.00  0.00    +0.000 HD
ENDBRANCH   3   9
BRANCH   1  17
ATOM     16  C   UNL     1      50.617   2.081  17.262  0.00  0.00    +0.000 C 
ATOM     17  O   UNL     1      51.042   3.283  17.893  0.00  0.00    +0.000 OA
ENDBRANCH   1  17
BRANCH   6  18
ATOM     18  C   UNL     1      47.347   4.106  14.881  0.00  0.00    +0.000 C 
BRANCH  18  19
ATOM     19  C   UNL     1      46.381   4.327  13.730  0.00  0.00    +0.000 A 
ATOM     20  C   UNL     1      46.063   5.636  13.358  0.00  0.00    +0.000 A 
ATOM     21  C   UNL     1      45.179   5.850  12.305  0.00  0.00    +0.000 A 
ATOM     22  C   UNL     1      44.626   4.756  11.646  0.00  0.00    +0.000 A 
ATOM     23  C   UNL     1      44.981   3.485  12.081  0.00  0.00    +0.000 A 
ATOM     24  N   UNL     1      45.852   3.248  13.101  0.00  0.00    +0.000 NA
BRANCH  22  25
ATOM     25  C   UNL     1      43.656   4.911  10.541  0.00  0.00    +0.000 C 
ATOM     26  N   UNL     1      44.017   4.408   9.311  0.00  0.00    +0.000 N 
ATOM     27  O   UNL     1      42.575   5.446  10.716  0.00  0.00    +0.000 OA
ATOM     28  H   UNL     1      44.824   3.821   9.161  0.00  0.00    +0.000 HD
ATOM     29  H   UNL     1      43.334   4.477   8.572  0.00  0.00    +0.000 HD
ENDBRANCH  22  25
ENDBRANCH  18  19
ENDBRANCH   6  18
TORSDOF 5
ENDMDL
MODEL 7
REMARK VINA RESULT:    -5.872      3.145      4.580
REMARK INTER + INTRA:          -8.318
REMARK INTER:                  -7.694
REMARK INTRA:                  -0.623
REMARK UNBOUND:                -0.730
REMARK  Name = 
REMARK  6 active torsions:
REMARK  status: ('A' for Active; 'I' for Inactive)
REMARK    1  A    between atoms: C_1  and  O_2
REMARK    2  A    between atoms: O_2  and  C_3
REMARK    3  A    between atoms: C_5  and  N_6
REMARK    4  A    between atoms: N_14  and  C_15
REMARK    5  A    between atoms: C_15  and  C_16
REMARK    6  A    between atoms: C_19  and  C_20
REMARK                            x       y       z     vdW  Elec       q    Type
REMARK                         _______ _______ _______ _____ _____    ______ ____
ROOT
ATOM      1  C   UNL     1      50.850   7.771  14.605  0.00  0.00    +0.000 A 
ATOM      2  C   UNL     1      51.211   7.210  15.802  0.00  0.00    +0.000 A 
ATOM      3  C   UNL     1      50.233   6.525  16.492  0.00  0.00    +0.000 A 
ATOM      4  N   UNL     1      48.978   6.479  15.999  0.00  0.00    +0.000 NA
ATOM      5  C   UNL     1      48.719   7.032  14.808  0.00  0.00    +0.000 A 
ATOM      6  N   UNL     1      47.410   6.973  14.350  0.00  0.00    +0.000 N 
ATOM      7  N   UNL     1      49.623   7.673  14.078  0.00  0.00    +0.000 NA
ATOM      8  H   UNL     1      46.908   7.690  14.866  0.00  0.00    +0.000 HD
ENDROOT
BRANCH   3   9
ATOM      9  N   UNL     1      50.496   5.912  17.699  0.00  0.00    +0.000 N 
ATOM     10  C   UNL     1      50.755   4.475  17.832  0.00  0.00    +0.000 C 
ATOM     11  C   UNL     1      49.778   3.831  18.846  0.00  0.00    +0.000 C 
ATOM     12  N   UNL     1      49.745   4.511  20.156  0.00  0.00    +0.000 NA
ATOM     13  C   UNL     1      49.411   5.937  19.938  0.00  0.00    +0.000 C 
ATOM     14  C   UNL     1      50.358   6.660  18.954  0.00  0.00    +0.000 C 
ATOM     15  H   UNL     1      50.679   4.463  20.561  0.00  0.00    +0.000 HD
ENDBRANCH   3   9
BRANCH   1  17
ATOM     16  C   UNL     1      51.411   9.868  13.773  0.00  0.00    +0.000 C 
ATOM     17  O   UNL     1      51.802   8.509  13.931  0.00  0.00    +0.000 OA
ENDBRANCH   1  17
BRANCH   6  18
ATOM     18  C   UNL     1      47.265   7.175  12.909  0.00  0.00    +0.000 C 
BRANCH  18  19
ATOM     19  C   UNL     1      46.431   6.045  12.332  0.00  0.00    +0.000 A 
ATOM     20  C   UNL     1      46.038   6.111  10.993  0.00  0.00    +0.000 A 
ATOM     21  C   UNL     1      45.274   5.082  10.455  0.00  0.00    +0.000 A 
ATOM     22  C   UNL     1      44.912   4.007  11.261  0.00  0.00    +0.000 A 
ATOM     23  C   UNL     1      45.329   4.018  12.587  0.00  0.00    +0.000 A 
ATOM     24  N   UNL     1      46.088   5.007  13.136  0.00  0.00    +0.000 NA
BRANCH  22  25
ATOM     25  C   UNL     1      44.074   2.896  10.763  0.00  0.00    +0.000 C 
ATOM     26  N   UNL     1      44.544   2.190   9.679  0.00  0.00    +0.000 N 
ATOM     27  O   UNL     1      43.019   2.606  11.301  0.00  0.00    +0.000 OA
ATOM     28  H   UNL     1      45.477   2.290   9.307  0.00  0.00    +0.000 HD
ATOM     29  H   UNL     1      43.990   1.405   9.371  0.00  0.00    +0.000 HD
ENDBRANCH  22  25
ENDBRANCH  18  19
ENDBRANCH   6  18
TORSDOF 5
ENDMDL
MODEL 8
REMARK VINA RESULT:    -5.690      4.135      6.328
REMARK INTER + INTRA:          -8.084
REMARK INTER:                  -7.466
REMARK INTRA:                  -0.618
REMARK UNBOUND:                -0.730
REMARK  Name = 
REMARK  6 active torsions:
REMARK  status: ('A' for Active; 'I' for Inactive)
REMARK    1  A    between atoms: C_1  and  O_2
REMARK    2  A    between atoms: O_2  and  C_3
REMARK    3  A    between atoms: C_5  and  N_6
REMARK    4  A    between atoms: N_14  and  C_15
REMARK    5  A    between atoms: C_15  and  C_16
REMARK    6  A    between atoms: C_19  and  C_20
REMARK                            x       y       z     vdW  Elec       q    Type
REMARK                         _______ _______ _______ _____ _____    ______ ____
ROOT
ATOM      1  C   UNL     1      49.145   5.130  16.920  0.00  0.00    +0.000 A 
ATOM      2  C   UNL     1      48.866   5.804  18.079  0.00  0.00    +0.000 A 
ATOM      3  C   UNL     1      48.554   7.143  17.964  0.00  0.00    +0.000 A 
ATOM      4  N   UNL     1      48.586   7.733  16.751  0.00  0.00    +0.000 NA
ATOM      5  C   UNL     1      48.842   6.991  15.666  0.00  0.00    +0.000 A 
ATOM      6  N   UNL     1      48.879   7.645  14.443  0.00  0.00    +0.000 N 
ATOM      7  N   UNL     1      49.113   5.693  15.705  0.00  0.00    +0.000 NA
ATOM      8  H   UNL     1      49.778   8.118  14.413  0.00  0.00    +0.000 HD
ENDROOT
BRANCH   3   9
ATOM      9  N   UNL     1      48.244   7.910  19.068  0.00  0.00    +0.000 N 
ATOM     10  C   UNL     1      47.286   9.018  19.034  0.00  0.00    +0.000 C 
ATOM     11  C   UNL     1      47.938  10.326  19.542  0.00  0.00    +0.000 C 
ATOM     12  N   UNL     1      48.586  10.196  20.862  0.00  0.00    +0.000 NA
ATOM     13  C   UNL     1      49.584   9.104  20.790  0.00  0.00    +0.000 C 
ATOM     14  C   UNL     1      49.004   7.754  20.313  0.00  0.00    +0.000 C 
ATOM     15  H   UNL     1      47.874   9.929  21.540  0.00  0.00    +0.000 HD
ENDBRANCH   3   9
BRANCH   1  17
ATOM     16  C   UNL     1      48.391   2.946  17.184  0.00  0.00    +0.000 C 
ATOM     17  O   UNL     1      49.516   3.804  17.024  0.00  0.00    +0.000 OA
ENDBRANCH   1  17
BRANCH   6  18
ATOM     18  C   UNL     1      48.718   6.767  13.284  0.00  0.00    +0.000 C 
BRANCH  18  19
ATOM     19  C   UNL     1      47.243   6.452  13.104  0.00  0.00    +0.000 A 
ATOM     20  C   UNL     1      46.364   7.492  12.794  0.00  0.00    +0.000 A 
ATOM     21  C   UNL     1      45.011   7.215  12.627  0.00  0.00    +0.000 A 
ATOM     22  C   UNL     1      44.559   5.908  12.776  0.00  0.00    +0.000 A 
ATOM     23  C   UNL     1      45.492   4.929  13.098  0.00  0.00    +0.000 A 
ATOM     24  N   UNL     1      46.823   5.171  13.255  0.00  0.00    +0.000 NA
BRANCH  22  25
ATOM     25  C   UNL     1      43.131   5.548  12.645  0.00  0.00    +0.000 C 
ATOM     26  N   UNL     1      42.385   6.257  11.731  0.00  0.00    +0.000 N 
ATOM     27  O   UNL     1      42.640   4.649  13.306  0.00  0.00    +0.000 OA
ATOM     28  H   UNL     1      42.782   6.892  11.055  0.00  0.00    +0.000 HD
ATOM     29  H   UNL     1      41.422   5.979  11.614  0.00  0.00    +0.000 HD
ENDBRANCH  22  25
ENDBRANCH  18  19
ENDBRANCH   6  18
TORSDOF 5
ENDMDL
