MODEL 1
REMARK VINA RESULT:    -7.462      0.000      0.000
REMARK INTER + INTRA:         -10.380
REMARK INTER:                 -10.079
REMARK INTRA:                  -0.301
REMARK UNBOUND:                -0.301
REMARK  Name = 
REMARK  9 active torsions:
REMARK  status: ('A' for Active; 'I' for Inactive)
REMARK    1  A    between atoms: C_1  and  C_2
REMARK    2  A    between atoms: C_2  and  C_3
REMARK    3  A    between atoms: C_2  and  C_4
REMARK    4  A    between atoms: C_2  and  C_5
REMARK    5  A    between atoms: C_7  and  C_8
REMARK    6  A    between atoms: C_13  and  N_14
REMARK    7  A    between atoms: N_14  and  C_15
REMARK    8  A    between atoms: C_15  and  C_16
REMARK    9  A    between atoms: C_19  and  C_20
REMARK                            x       y       z     vdW  Elec       q    Type
REMARK                         _______ _______ _______ _____ _____    ______ ____
ROOT
ATOM      1  C   UNL     1      46.240   6.153  12.697  0.00  0.00    +0.000 A 
ATOM      2  C   UNL     1      46.923   5.657  13.840  0.00  0.00    +0.000 A 
ATOM      3  C   UNL     1      46.762   4.355  14.303  0.00  0.00    +0.000 A 
ATOM      4  C   UNL     1      45.894   3.562  13.587  0.00  0.00    +0.000 A 
ATOM      5  N   UNL     1      45.233   3.972  12.469  0.00  0.00    +0.000 NA
ATOM      6  C   UNL     1      45.407   5.244  12.029  0.00  0.00    +0.000 A 
ENDROOT
BRANCH   3   7
ATOM      7  C   UNL     1      47.517   3.930  15.510  0.00  0.00    +0.000 C 
ATOM      8  N   UNL     1      47.457   4.695  16.639  0.00  0.00    +0.000 N 
ATOM      9  O   UNL     1      48.190   2.903  15.510  0.00  0.00    +0.000 OA
ATOM     10  H   UNL     1      46.941   5.553  16.748  0.00  0.00    +0.000 HD
ATOM     11  H   UNL     1      47.986   4.361  17.435  0.00  0.00    +0.000 HD
ENDBRANCH   3   7
BRANCH   1  13
ATOM     12  C   UNL     1      47.705   7.714  11.354  0.00  0.00    +0.000 C 
ATOM     13  C   UNL     1      46.496   7.631  12.325  0.00  0.00    +0.000 C 
ATOM     14  C   UNL     1      46.777   8.399  13.644  0.00  0.00    +0.000 C 
ATOM     15  C   UNL     1      45.374   8.424  11.609  0.00  0.00    +0.000 C 
ENDBRANCH   1  13
BRANCH   6  16
ATOM     16  N   UNL     1      44.700   5.638  10.899  0.00  0.00    +0.000 N 
ATOM     17  H   UNL     1      44.124   6.439  11.136  0.00  0.00    +0.000 HD
BRANCH  16  18
ATOM     18  C   UNL     1      43.942   4.634  10.178  0.00  0.00    +0.000 C 
BRANCH  18  19
ATOM     19  C   UNL     1      44.883   3.975   9.186  0.00  0.00    +0.000 A 
ATOM     20  C   UNL     1      44.990   2.574   9.140  0.00  0.00    +0.000 A 
ATOM     21  C   UNL     1      45.890   1.953   8.267  0.00  0.00    +0.000 A 
ATOM     22  C   UNL     1      46.710   2.722   7.436  0.00  0.00    +0.000 A 
ATOM     23  C   UNL     1      46.617   4.118   7.486  0.00  0.00    +0.000 A 
ATOM     24  C   UNL     1      45.715   4.741   8.355  0.00  0.00    +0.000 A 
BRANCH  22  25
ATOM     25  C   UNL     1      47.645   2.085   6.545  0.00  0.00    +0.000 C 
ATOM     26  N   UNL     1      48.399   1.571   5.825  0.00  0.00    +0.000 NA
ENDBRANCH  22  25
ENDBRANCH  18  19
ENDBRANCH  16  18
ENDBRANCH   6  16
TORSDOF 6
ENDMDL
MODEL 2
REMARK VINA RESULT:    -6.734      3.075      7.281
REMARK INTER + INTRA:          -9.397
REMARK INTER:                  -8.998
REMARK INTRA:                  -0.398
REMARK UNBOUND:                -0.301
REMARK  Name = 
REMARK  9 active torsions:
REMARK  status: ('A' for Active; 'I' for Inactive)
REMARK    1  A    between atoms: C_1  and  C_2
REMARK    2  A    between atoms: C_2  and  C_3
REMARK    3  A    between atoms: C_2  and  C_4
REMARK    4  A    between atoms: C_2  and  C_5
REMARK    5  A    between atoms: C_7  and  C_8
REMARK    6  A    between atoms: C_13  and  N_14
REMARK    7  A    between atoms: N_14  and  C_15
REMARK    8  A    between atoms: C_15  and  C_16
REMARK    9  A    between atoms: C_19  and  C_20
REMARK                            x       y       z     vdW  Elec       q    Type
REMARK                         _______ _______ _______ _____ _____    ______ ____
ROOT
ATOM      1  C   UNL     1      47.020   6.057  13.106  0.00  0.00    +0.000 A 
ATOM      2  C   UNL     1      46.354   5.915  11.859  0.00  0.00    +0.000 A 
ATOM      3  C   UNL     1      45.480   4.867  11.591  0.00  0.00    +0.000 A 
ATOM      4  C   UNL     1      45.293   3.962  12.611  0.00  0.00    +0.000 A 
ATOM      5  N   UNL     1      45.880   4.060  13.835  0.00  0.00    +0.000 NA
ATOM      6  C   UNL     1      46.725   5.092  14.080  0.00  0.00    +0.000 A 
ENDROOT
BRANCH   3   7
ATOM      7  C   UNL     1      44.835   4.803  10.255  0.00  0.00    +0.000 C 
ATOM      8  N   UNL     1      45.538   5.199   9.154  0.00  0.00    +0.000 N 
ATOM      9  O   UNL     1      43.684   4.397  10.124  0.00  0.00    +0.000 OA
ATOM     10  H   UNL     1      46.481   5.550   9.146  0.00  0.00    +0.000 HD
ATOM     11  H   UNL     1      45.055   5.133   8.266  0.00  0.00    +0.000 HD
ENDBRANCH   3   7
BRANCH   1  13
ATOM     12  C   UNL     1      47.225   8.464  13.851  0.00  0.00    +0.000 C 
ATOM     13  C   UNL     1      47.988   7.256  13.243  0.00  0.00    +0.000 C 
ATOM     14  C   UNL     1      48.524   7.582  11.823  0.00  0.00    +0.000 C 
ATOM     15  C   UNL     1      49.241   7.102  14.139  0.00  0.00    +0.000 C 
ENDBRANCH   1  13
BRANCH   6  16
ATOM     16  N   UNL     1      47.327   5.151  15.332  0.00  0.00    +0.000 N 
ATOM     17  H   UNL     1      48.308   5.382  15.214  0.00  0.00    +0.000 HD
BRANCH  16  18
ATOM     18  C   UNL     1      47.151   4.027  16.232  0.00  0.00    +0.000 C 
BRANCH  18  19
ATOM     19  C   UNL     1      48.525   3.630  16.742  0.00  0.00    +0.000 A 
ATOM     20  C   UNL     1      49.383   4.602  17.286  0.00  0.00    +0.000 A 
ATOM     21  C   UNL     1      50.672   4.261  17.713  0.00  0.00    +0.000 A 
ATOM     22  C   UNL     1      51.129   2.946  17.590  0.00  0.00    +0.000 A 
ATOM     23  C   UNL     1      50.285   1.977  17.038  0.00  0.00    +0.000 A 
ATOM     24  C   UNL     1      48.995   2.314  16.614  0.00  0.00    +0.000 A 
BRANCH  22  25
ATOM     25  C   UNL     1      52.459   2.596  18.019  0.00  0.00    +0.000 C 
ATOM     26  N   UNL     1      53.533   2.314  18.364  0.00  0.00    +0.000 NA
ENDBRANCH  22  25
ENDBRANCH  18  19
ENDBRANCH  16  18
ENDBRANCH   6  16
TORSDOF 6
ENDMDL
MODEL 3
REMARK VINA RESULT:    -5.988      4.372      6.445
REMARK INTER + INTRA:          -8.390
REMARK INTER:                  -7.795
REMARK INTRA:                  -0.595
REMARK UNBOUND:                -0.301
REMARK  Name = 
REMARK  9 active torsions:
REMARK  status: ('A' for Active; 'I' for Inactive)
REMARK    1  A    between atoms: C_1  and  C_2
REMARK    2  A    between atoms: C_2  and  C_3
REMARK    3  A    between atoms: C_2  and  C_4
REMARK    4  A    between atoms: C_2  and  C_5
REMARK    5  A    between atoms: C_7  and  C_8
REMARK    6  A    between atoms: C_13  and  N_14
REMARK    7  A    between atoms: N_14  and  C_15
REMARK    8  A    between atoms: C_15  and  C_16
REMARK    9  A    between atoms: C_19  and  C_20
REMARK                            x       y       z     vdW  Elec       q    Type
REMARK                         _______ _______ _______ _____ _____    ______ ____
ROOT
ATOM      1  C   UNL     1      49.090   3.965  17.377  0.00  0.00    +0.000 A 
ATOM      2  C   UNL     1      50.307   3.417  17.863  0.00  0.00    +0.000 A 
ATOM      3  C   UNL     1      50.828   2.215  17.395  0.00  0.00    +0.000 A 
ATOM      4  C   UNL     1      50.092   1.576  16.423  0.00  0.00    +0.000 A 
ATOM      5  N   UNL     1      48.935   2.064  15.898  0.00  0.00    +0.000 NA
ATOM      6  C   UNL     1      48.445   3.241  16.363  0.00  0.00    +0.000 A 
ENDROOT
BRANCH   3   7
ATOM      7  C   UNL     1      52.106   1.722  17.969  0.00  0.00    +0.000 C 
ATOM      8  N   UNL     1      52.264   0.385  18.197  0.00  0.00    +0.000 N 
ATOM      9  O   UNL     1      53.022   2.493  18.238  0.00  0.00    +0.000 OA
ATOM     10  H   UNL     1      51.581  -0.333  18.018  0.00  0.00    +0.000 HD
ATOM     11  H   UNL     1      53.154   0.099  18.587  0.00  0.00    +0.000 HD
ENDBRANCH   3   7
BRANCH   1  13
ATOM     12  C   UNL     1      48.809   6.448  16.999  0.00  0.00    +0.000 C 
ATOM     13  C   UNL     1      48.622   5.291  18.019  0.00  0.00    +0.000 C 
ATOM     14  C   UNL     1      49.478   5.516  19.293  0.00  0.00    +0.000 C 
ATOM     15  C   UNL     1      47.148   5.417  18.476  0.00  0.00    +0.000 C 
ENDBRANCH   1  13
BRANCH   6  16
ATOM     16  N   UNL     1      47.249   3.701  15.823  0.00  0.00    +0.000 N 
ATOM     17  H   UNL     1      46.478   3.301  16.347  0.00  0.00    +0.000 HD
BRANCH  16  18
ATOM     18  C   UNL     1      47.045   3.568  14.394  0.00  0.00    +0.000 C 
BRANCH  18  19
ATOM     19  C   UNL     1      46.594   4.919  13.868  0.00  0.00    +0.000 A 
ATOM     20  C   UNL     1      45.276   5.094  13.411  0.00  0.00    +0.000 A 
ATOM     21  C   UNL     1      44.860   6.318  12.877  0.00  0.00    +0.000 A 
ATOM     22  C   UNL     1      45.758   7.384  12.777  0.00  0.00    +0.000 A 
ATOM     23  C   UNL     1      47.074   7.214  13.220  0.00  0.00    +0.000 A 
ATOM     24  C   UNL     1      47.492   5.992  13.758  0.00  0.00    +0.000 A 
BRANCH  22  25
ATOM     25  C   UNL     1      45.334   8.642  12.217  0.00  0.00    +0.000 C 
ATOM     26  N   UNL     1      44.992   9.657  11.765  0.00  0.00    +0.000 NA
ENDBRANCH  22  25
ENDBRANCH  18  19
ENDBRANCH  16  18
ENDBRANCH   6  16
TORSDOF 6
ENDMDL
MODEL 4
REMARK VINA RESULT:    -5.975      3.028      7.752
REMARK INTER + INTRA:          -8.371
REMARK INTER:                  -8.131
REMARK INTRA:                  -0.240
REMARK UNBOUND:                -0.301
REMARK  Name = 
REMARK  9 active torsions:
REMARK  status: ('A' for Active; 'I' for Inactive)
REMARK    1  A    between atoms: C_1  and  C_2
REMARK    2  A    between atoms: C_2  and  C_3
REMARK    3  A    between atoms: C_2  and  C_4
REMARK    4  A    between atoms: C_2  and  C_5
REMARK    5  A    between atoms: C_7  and  C_8
REMARK    6  A    between atoms: C_13  and  N_14
REMARK    7  A    between atoms: N_14  and  C_15
REMARK    8  A    between atoms: C_15  and  C_16
REMARK    9  A    between atoms: C_19  and  C_20
REMARK                            x       y       z     vdW  Elec       q    Type
REMARK                         _______ _______ _______ _____ _____    ______ ____
ROOT
ATOM      1  C   UNL     1      46.255   5.864  12.557  0.00  0.00    +0.000 A 
ATOM      2  C   UNL     1      45.546   5.404  11.415  0.00  0.00    +0.000 A 
ATOM      3  C   UNL     1      45.061   4.105  11.307  0.00  0.00    +0.000 A 
ATOM      4  C   UNL     1      45.308   3.277  12.379  0.00  0.00    +0.000 A 
ATOM      5  N   UNL     1      45.956   3.667  13.510  0.00  0.00    +0.000 NA
ATOM      6  C   UNL     1      46.418   4.940  13.600  0.00  0.00    +0.000 A 
ENDROOT
BRANCH   3   7
ATOM      7  C   UNL     1      44.335   3.716  10.071  0.00  0.00    +0.000 C 
ATOM      8  N   UNL     1      43.856   4.691   9.243  0.00  0.00    +0.000 N 
ATOM      9  O   UNL     1      44.163   2.537   9.779  0.00  0.00    +0.000 OA
ATOM     10  H   UNL     1      43.937   5.684   9.386  0.00  0.00    +0.000 HD
ATOM     11  H   UNL     1      43.371   4.375   8.412  0.00  0.00    +0.000 HD
ENDBRANCH   3   7
BRANCH   1  13
ATOM     12  C   UNL     1      45.665   8.230  11.891  0.00  0.00    +0.000 C 
ATOM     13  C   UNL     1      46.761   7.324  12.516  0.00  0.00    +0.000 C 
ATOM     14  C   UNL     1      48.061   7.341  11.668  0.00  0.00    +0.000 C 
ATOM     15  C   UNL     1      47.122   8.024  13.850  0.00  0.00    +0.000 C 
ENDBRANCH   1  13
BRANCH   6  16
ATOM     16  N   UNL     1      47.096   5.301  14.759  0.00  0.00    +0.000 N 
ATOM     17  H   UNL     1      47.977   5.733  14.501  0.00  0.00    +0.000 HD
BRANCH  16  18
ATOM     18  C   UNL     1      47.278   4.297  15.789  0.00  0.00    +0.000 C 
BRANCH  18  19
ATOM     19  C   UNL     1      48.235   4.868  16.820  0.00  0.00    +0.000 A 
ATOM     20  C   UNL     1      48.902   6.080  16.568  0.00  0.00    +0.000 A 
ATOM     21  C   UNL     1      49.825   6.593  17.486  0.00  0.00    +0.000 A 
ATOM     22  C   UNL     1      50.108   5.896  18.664  0.00  0.00    +0.000 A 
ATOM     23  C   UNL     1      49.456   4.684  18.916  0.00  0.00    +0.000 A 
ATOM     24  C   UNL     1      48.530   4.171  18.002  0.00  0.00    +0.000 A 
BRANCH  22  25
ATOM     25  C   UNL     1      51.066   6.418  19.605  0.00  0.00    +0.000 C 
ATOM     26  N   UNL     1      51.838   6.840  20.365  0.00  0.00    +0.000 NA
ENDBRANCH  22  25
ENDBRANCH  18  19
ENDBRANCH  16  18
ENDBRANCH   6  16
TORSDOF 6
ENDMDL
MODEL 5
REMARK VINA RESULT:    -5.974      2.332      3.340
REMARK INTER + INTRA:          -8.370
REMARK INTER:                  -8.118
REMARK INTRA:                  -0.252
REMARK UNBOUND:                -0.301
REMARK  Name = 
REMARK  9 active torsions:
REMARK  status: ('A' for Active; 'I' for Inactive)
REMARK    1  A    between atoms: C_1  and  C_2
REMARK    2  A    between atoms: C_2  and  C_3
REMARK    3  A    between atoms: C_2  and  C_4
REMARK    4  A    between atoms: C_2  and  C_5
REMARK    5  A    between atoms: C_7  and  C_8
REMARK    6  A    between atoms: C_13  and  N_14
REMARK    7  A    between atoms: N_14  and  C_15
REMARK    8  A    between atoms: C_15  and  C_16
REMARK    9  A    between atoms: C_19  and  C_20
REMARK                            x       y       z     vdW  Elec       q    Type
REMARK                         _______ _______ _______ _____ _____    ______ ____
ROOT
ATOM      1  C   UNL     1      48.334   5.972  15.435  0.00  0.00    +0.000 A 
ATOM      2  C   UNL     1      48.956   5.483  16.615  0.00  0.00    +0.000 A 
ATOM      3  C   UNL     1      48.485   4.370  17.304  0.00  0.00    +0.000 A 
ATOM      4  C   UNL     1      47.368   3.762  16.777  0.00  0.00    +0.000 A 
ATOM      5  N   UNL     1      46.745   4.167  15.636  0.00  0.00    +0.000 NA
ATOM      6  C   UNL     1      47.223   5.251  14.974  0.00  0.00    +0.000 A 
ENDROOT
BRANCH   3   7
ATOM      7  C   UNL     1      49.201   3.938  18.531  0.00  0.00    +0.000 C 
ATOM      8  N   UNL     1      48.506   3.314  19.526  0.00  0.00    +0.000 N 
ATOM      9  O   UNL     1      50.407   4.127  18.663  0.00  0.00    +0.000 OA
ATOM     10  H   UNL     1      47.519   3.112  19.525  0.00  0.00    +0.000 HD
ATOM     11  H   UNL     1      49.040   3.036  20.341  0.00  0.00    +0.000 HD
ENDBRANCH   3   7
BRANCH   1  13
ATOM     12  C   UNL     1      49.092   7.027  13.266  0.00  0.00    +0.000 C 
ATOM     13  C   UNL     1      48.953   7.238  14.799  0.00  0.00    +0.000 C 
ATOM     14  C   UNL     1      50.336   7.463  15.467  0.00  0.00    +0.000 C 
ATOM     15  C   UNL     1      48.200   8.584  14.934  0.00  0.00    +0.000 C 
ENDBRANCH   1  13
BRANCH   6  16
ATOM     16  N   UNL     1      46.551   5.653  13.825  0.00  0.00    +0.000 N 
ATOM     17  H   UNL     1      46.462   6.664  13.835  0.00  0.00    +0.000 HD
BRANCH  16  18
ATOM     18  C   UNL     1      45.289   5.013  13.508  0.00  0.00    +0.000 C 
BRANCH  18  19
ATOM     19  C   UNL     1      45.298   4.696  12.023  0.00  0.00    +0.000 A 
ATOM     20  C   UNL     1      44.990   3.399  11.577  0.00  0.00    +0.000 A 
ATOM     21  C   UNL     1      45.043   3.078  10.217  0.00  0.00    +0.000 A 
ATOM     22  C   UNL     1      45.420   4.044   9.280  0.00  0.00    +0.000 A 
ATOM     23  C   UNL     1      45.740   5.334   9.718  0.00  0.00    +0.000 A 
ATOM     24  C   UNL     1      45.683   5.658  11.077  0.00  0.00    +0.000 A 
BRANCH  22  25
ATOM     25  C   UNL     1      45.486   3.712   7.880  0.00  0.00    +0.000 C 
ATOM     26  N   UNL     1      45.538   3.444   6.749  0.00  0.00    +0.000 NA
ENDBRANCH  22  25
ENDBRANCH  18  19
ENDBRANCH  16  18
ENDBRANCH   6  16
TORSDOF 6
ENDMDL
MODEL 6
REMARK VINA RESULT:    -5.867      2.334      6.623
REMARK INTER + INTRA:          -8.226
REMARK INTER:                  -7.867
REMARK INTRA:                  -0.359
REMARK UNBOUND:                -0.301
REMARK  Name = 
REMARK  9 active torsions:
REMARK  status: ('A' for Active; 'I' for Inactive)
REMARK    1  A    between atoms: C_1  and  C_2
REMARK    2  A    between atoms: C_2  and  C_3
REMARK    3  A    between atoms: C_2  and  C_4
REMARK    4  A    between atoms: C_2  and  C_5
REMARK    5  A    between atoms: C_7  and  C_8
REMARK    6  A    between atoms: C_13  and  N_14
REMARK    7  A    between atoms: N_14  and  C_15
REMARK    8  A    between atoms: C_15  and  C_16
REMARK    9  A    between atoms: C_19  and  C_20
REMARK                            x       y       z     vdW  Elec       q    Type
REMARK                         _______ _______ _______ _____ _____    ______ ____
ROOT
ATOM      1  C   UNL     1      44.931   3.635  10.271  0.00  0.00    +0.000 A 
ATOM      2  C   UNL     1      45.383   2.542   9.484  0.00  0.00    +0.000 A 
ATOM      3  C   UNL     1      46.091   2.713   8.299  0.00  0.00    +0.000 A 
ATOM      4  C   UNL     1      46.333   4.016   7.923  0.00  0.00    +0.000 A 
ATOM      5  N   UNL     1      45.950   5.102   8.648  0.00  0.00    +0.000 NA
ATOM      6  C   UNL     1      45.265   4.915   9.805  0.00  0.00    +0.000 A 
ENDROOT
BRANCH   3   7
ATOM      7  C   UNL     1      46.518   1.508   7.544  0.00  0.00    +0.000 C 
ATOM      8  N   UNL     1      47.023   1.652   6.284  0.00  0.00    +0.000 N 
ATOM      9  O   UNL     1      46.428   0.386   8.034  0.00  0.00    +0.000 OA
ATOM     10  H   UNL     1      47.138   2.520   5.786  0.00  0.00    +0.000 HD
ATOM     11  H   UNL     1      47.303   0.801   5.812  0.00  0.00    +0.000 HD
ENDBRANCH   3   7
BRANCH   1  13
ATOM     12  C   UNL     1      43.011   4.347  11.753  0.00  0.00    +0.000 C 
ATOM     13  C   UNL     1      44.127   3.286  11.544  0.00  0.00    +0.000 C 
ATOM     14  C   UNL     1      45.124   3.273  12.733  0.00  0.00    +0.000 C 
ATOM     15  C   UNL     1      43.382   1.930  11.607  0.00  0.00    +0.000 C 
ENDBRANCH   1  13
BRANCH   6  16
ATOM     16  N   UNL     1      44.868   6.045  10.510  0.00  0.00    +0.000 N 
ATOM     17  H   UNL     1      43.936   6.310  10.207  0.00  0.00    +0.000 HD
BRANCH  16  18
ATOM     18  C   UNL     1      45.761   7.187  10.537  0.00  0.00    +0.000 C 
BRANCH  18  19
ATOM     19  C   UNL     1      46.650   7.043  11.759  0.00  0.00    +0.000 A 
ATOM     20  C   UNL     1      47.988   7.473  11.712  0.00  0.00    +0.000 A 
ATOM     21  C   UNL     1      48.834   7.301  12.813  0.00  0.00    +0.000 A 
ATOM     22  C   UNL     1      48.362   6.683  13.974  0.00  0.00    +0.000 A 
ATOM     23  C   UNL     1      47.035   6.242  14.023  0.00  0.00    +0.000 A 
ATOM     24  C   UNL     1      46.185   6.417  12.926  0.00  0.00    +0.000 A 
BRANCH  22  25
ATOM     25  C   UNL     1      49.235   6.495  15.104  0.00  0.00    +0.000 C 
ATOM     26  N   UNL     1      49.940   6.343  16.016  0.00  0.00    +0.000 NA
ENDBRANCH  22  25
ENDBRANCH  18  19
ENDBRANCH  16  18
ENDBRANCH   6  16
TORSDOF 6
ENDMDL
MODEL 7
REMARK VINA RESULT:    -5.475      3.412      6.005
REMARK INTER + INTRA:          -7.697
REMARK INTER:                  -7.197
REMARK INTRA:                  -0.500
REMARK UNBOUND:                -0.301
REMARK  Name = 
REMARK  9 active torsions:
REMARK  status: ('A' for Active; 'I' for Inactive)
REMARK    1  A    between atoms: C_1  and  C_2
REMARK    2  A    between atoms: C_2  and  C_3
REMARK    3  A    between atoms: C_2  and  C_4
REMARK    4  A    between atoms: C_2  and  C_5
REMARK    5  A    between atoms: C_7  and  C_8
REMARK    6  A    between atoms: C_13  and  N_14
REMARK    7  A    between atoms: N_14  and  C_15
REMARK    8  A    between atoms: C_15  and  C_16
REMARK    9  A    between atoms: C_19  and  C_20
REMARK                            x       y       z     vdW  Elec       q    Type
REMARK                         _______ _______ _______ _____ _____    ______ ____
ROOT
ATOM      1  C   UNL     1      49.230   5.319  17.268  0.00  0.00    +0.000 A 
ATOM      2  C   UNL     1      50.506   5.173  17.875  0.00  0.00    +0.000 A 
ATOM      3  C   UNL     1      51.653   5.774  17.364  0.00  0.00    +0.000 A 
ATOM      4  C   UNL     1      51.483   6.524  16.222  0.00  0.00    +0.000 A 
ATOM      5  N   UNL     1      50.283   6.724  15.612  0.00  0.00    +0.000 NA
ATOM      6  C   UNL     1      49.175   6.135  16.128  0.00  0.00    +0.000 A 
ENDROOT
BRANCH   3   7
ATOM      7  C   UNL     1      52.943   5.559  18.068  0.00  0.00    +0.000 C 
ATOM      8  N   UNL     1      53.286   6.384  19.099  0.00  0.00    +0.000 N 
ATOM      9  O   UNL     1      53.701   4.651  17.741  0.00  0.00    +0.000 OA
ATOM     10  H   UNL     1      52.744   7.158  19.446  0.00  0.00    +0.000 HD
ATOM     11  H   UNL     1      54.174   6.195  19.548  0.00  0.00    +0.000 HD
ENDBRANCH   3   7
BRANCH   1  13
ATOM     12  C   UNL     1      47.110   5.589  18.617  0.00  0.00    +0.000 C 
ATOM     13  C   UNL     1      48.056   4.565  17.933  0.00  0.00    +0.000 C 
ATOM     14  C   UNL     1      48.665   3.579  18.966  0.00  0.00    +0.000 C 
ATOM     15  C   UNL     1      47.119   3.712  17.043  0.00  0.00    +0.000 C 
ENDBRANCH   1  13
BRANCH   6  16
ATOM     16  N   UNL     1      47.968   6.338  15.467  0.00  0.00    +0.000 N 
ATOM     17  H   UNL     1      47.403   5.500  15.552  0.00  0.00    +0.000 HD
BRANCH  16  18
ATOM     18  C   UNL     1      48.007   6.817  14.099  0.00  0.00    +0.000 C 
BRANCH  18  19
ATOM     19  C   UNL     1      47.035   5.975  13.292  0.00  0.00    +0.000 A 
ATOM     20  C   UNL     1      46.743   4.659  13.692  0.00  0.00    +0.000 A 
ATOM     21  C   UNL     1      45.889   3.852  12.931  0.00  0.00    +0.000 A 
ATOM     22  C   UNL     1      45.325   4.343  11.750  0.00  0.00    +0.000 A 
ATOM     23  C   UNL     1      45.622   5.647  11.340  0.00  0.00    +0.000 A 
ATOM     24  C   UNL     1      46.471   6.457  12.101  0.00  0.00    +0.000 A 
BRANCH  22  25
ATOM     25  C   UNL     1      44.455   3.510  10.960  0.00  0.00    +0.000 C 
ATOM     26  N   UNL     1      43.753   2.838  10.321  0.00  0.00    +0.000 NA
ENDBRANCH  22  25
ENDBRANCH  18  19
ENDBRANCH  16  18
ENDBRANCH   6  16
TORSDOF 6
ENDMDL
MODEL 8
REMARK VINA RESULT:    -5.468      3.947      7.854
REMARK INTER + INTRA:          -7.686
REMARK INTER:                  -7.432
REMARK INTRA:                  -0.254
REMARK UNBOUND:                -0.301
REMARK  Name = 
REMARK  9 active torsions:
REMARK  status: ('A' for Active; 'I' for Inactive)
REMARK    1  A    between atoms: C_1  and  C_2
REMARK    2  A    between atoms: C_2  and  C_3
REMARK    3  A    between atoms: C_2  and  C_4
REMARK    4  A    between atoms: C_2  and  C_5
REMARK    5  A    between atoms: C_7  and  C_8
REMARK    6  A    between atoms: C_13  and  N_14
REMARK    7  A    between atoms: N_14  and  C_15
REMARK    8  A    between atoms: C_15  and  C_16
REMARK    9  A    between atoms: C_19  and  C_20
REMARK                            x       y       z     vdW  Elec       q    Type
REMARK                         _______ _______ _______ _____ _____    ______ ____
ROOT
ATOM      1  C   UNL     1      44.730   6.297  12.157  0.00  0.00    +0.000 A 
ATOM      2  C   UNL     1      44.049   7.304  11.422  0.00  0.00    +0.000 A 
ATOM      3  C   UNL     1      44.379   8.652  11.515  0.00  0.00    +0.000 A 
ATOM      4  C   UNL     1      45.412   8.963  12.370  0.00  0.00    +0.000 A 
ATOM      5  N   UNL     1      46.119   8.041  13.079  0.00  0.00    +0.000 NA
ATOM      6  C   UNL     1      45.787   6.730  12.971  0.00  0.00    +0.000 A 
ENDROOT
BRANCH   3   7
ATOM      7  C   UNL     1      43.606   9.631  10.709  0.00  0.00    +0.000 C 
ATOM      8  N   UNL     1      42.258   9.734  10.896  0.00  0.00    +0.000 N 
ATOM      9  O   UNL     1      44.159  10.351   9.882  0.00  0.00    +0.000 OA
ATOM     10  H   UNL     1      41.705   9.194  11.541  0.00  0.00    +0.000 HD
ATOM     11  H   UNL     1      41.776  10.418  10.324  0.00  0.00    +0.000 HD
ENDBRANCH   3   7
BRANCH   1  13
ATOM     12  C   UNL     1      43.656   4.679  10.539  0.00  0.00    +0.000 C 
ATOM     13  C   UNL     1      44.227   4.846  11.974  0.00  0.00    +0.000 C 
ATOM     14  C   UNL     1      43.138   4.594  13.050  0.00  0.00    +0.000 C 
ATOM     15  C   UNL     1      45.239   3.683  12.122  0.00  0.00    +0.000 C 
ENDBRANCH   1  13
BRANCH   6  16
ATOM     16  N   UNL     1      46.513   5.815  13.726  0.00  0.00    +0.000 N 
ATOM     17  H   UNL     1      45.975   5.571  14.551  0.00  0.00    +0.000 HD
BRANCH  16  18
ATOM     18  C   UNL     1      47.885   6.140  14.064  0.00  0.00    +0.000 C 
BRANCH  18  19
ATOM     19  C   UNL     1      48.116   5.707  15.501  0.00  0.00    +0.000 A 
ATOM     20  C   UNL     1      47.479   4.559  16.003  0.00  0.00    +0.000 A 
ATOM     21  C   UNL     1      47.641   4.175  17.339  0.00  0.00    +0.000 A 
ATOM     22  C   UNL     1      48.432   4.941  18.199  0.00  0.00    +0.000 A 
ATOM     23  C   UNL     1      49.061   6.092  17.710  0.00  0.00    +0.000 A 
ATOM     24  C   UNL     1      48.903   6.475  16.373  0.00  0.00    +0.000 A 
BRANCH  22  25
ATOM     25  C   UNL     1      48.592   4.554  19.578  0.00  0.00    +0.000 C 
ATOM     26  N   UNL     1      48.721   4.240  20.690  0.00  0.00    +0.000 NA
ENDBRANCH  22  25
ENDBRANCH  18  19
ENDBRANCH  16  18
ENDBRANCH   6  16
TORSDOF 6
ENDMDL
MODEL 9
REMARK VINA RESULT:    -5.291      3.678      7.427
REMARK INTER + INTRA:          -7.448
REMARK INTER:                  -7.367
REMARK INTRA:                  -0.081
REMARK UNBOUND:                -0.301
REMARK  Name = 
REMARK  9 active torsions:
REMARK  status: ('A' for Active; 'I' for Inactive)
REMARK    1  A    between atoms: C_1  and  C_2
REMARK    2  A    between atoms: C_2  and  C_3
REMARK    3  A    between atoms: C_2  and  C_4
REMARK    4  A    between atoms: C_2  and  C_5
REMARK    5  A    between atoms: C_7  and  C_8
REMARK    6  A    between atoms: C_13  and  N_14
REMARK    7  A    between atoms: N_14  and  C_15
REMARK    8  A    between atoms: C_15  and  C_16
REMARK    9  A    between atoms: C_19  and  C_20
REMARK                            x       y       z     vdW  Elec       q    Type
REMARK                         _______ _______ _______ _____ _____    ______ ____
ROOT
ATOM      1  C   UNL     1      45.263   6.228  12.537  0.00  0.00    +0.000 A 
ATOM      2  C   UNL     1      44.875   7.537  12.143  0.00  0.00    +0.000 A 
ATOM      3  C   UNL     1      45.606   8.670  12.484  0.00  0.00    +0.000 A 
ATOM      4  C   UNL     1      46.740   8.454  13.234  0.00  0.00    +0.000 A 
ATOM      5  N   UNL     1      47.177   7.224  13.618  0.00  0.00    +0.000 NA
ATOM      6  C   UNL     1      46.454   6.128  13.272  0.00  0.00    +0.000 A 
ENDROOT
BRANCH   3   7
ATOM      7  C   UNL     1      45.117   9.996  12.027  0.00  0.00    +0.000 C 
ATOM      8  N   UNL     1      43.788  10.289  12.128  0.00  0.00    +0.000 N 
ATOM      9  O   UNL     1      45.887  10.833  11.566  0.00  0.00    +0.000 OA
ATOM     10  H   UNL     1      43.071   9.678  12.486  0.00  0.00    +0.000 HD
ATOM     11  H   UNL     1      43.505  11.206  11.806  0.00  0.00    +0.000 HD
ENDBRANCH   3   7
BRANCH   1  13
ATOM     12  C   UNL     1      45.175   3.952  11.441  0.00  0.00    +0.000 C 
ATOM     13  C   UNL     1      44.330   5.071  12.111  0.00  0.00    +0.000 C 
ATOM     14  C   UNL     1      43.285   5.657  11.126  0.00  0.00    +0.000 C 
ATOM     15  C   UNL     1      43.513   4.334  13.200  0.00  0.00    +0.000 C 
ENDBRANCH   1  13
BRANCH   6  16
ATOM     16  N   UNL     1      46.914   4.889  13.699  0.00  0.00    +0.000 N 
ATOM     17  H   UNL     1      46.777   4.214  12.955  0.00  0.00    +0.000 HD
BRANCH  16  18
ATOM     18  C   UNL     1      46.438   4.380  14.971  0.00  0.00    +0.000 C 
BRANCH  18  19
ATOM     19  C   UNL     1      47.633   4.283  15.902  0.00  0.00    +0.000 A 
ATOM     20  C   UNL     1      48.352   5.440  16.250  0.00  0.00    +0.000 A 
ATOM     21  C   UNL     1      49.486   5.361  17.065  0.00  0.00    +0.000 A 
ATOM     22  C   UNL     1      49.930   4.122  17.535  0.00  0.00    +0.000 A 
ATOM     23  C   UNL     1      49.227   2.965  17.182  0.00  0.00    +0.000 A 
ATOM     24  C   UNL     1      48.090   3.042  16.371  0.00  0.00    +0.000 A 
BRANCH  22  25
ATOM     25  C   UNL     1      51.104   4.037  18.365  0.00  0.00    +0.000 C 
ATOM     26  N   UNL     1      52.052   3.969  19.035  0.00  0.00    +0.000 NA
ENDBRANCH  22  25
ENDBRANCH  18  19
ENDBRANCH  16  18
ENDBRANCH   6  16
TORSDOF 6
ENDMDL
