MODEL 1
REMARK VINA RESULT:    -6.917      0.000      0.000
REMARK INTER + INTRA:          -8.992
REMARK INTER:                  -8.535
REMARK INTRA:                  -0.457
REMARK UNBOUND:                -0.457
REMARK  Name = 
REMARK  7 active torsions:
REMARK  status: ('A' for Active; 'I' for Inactive)
REMARK    1  A    between atoms: C_1  and  C_2
REMARK    2  A    between atoms: C_2  and  C_3
REMARK    3  A    between atoms: C_2  and  C_4
REMARK    4  A    between atoms: C_2  and  C_5
REMARK    5  A    between atoms: N_7  and  C_8
REMARK    6  A    between atoms: C_8  and  C_9
REMARK    7  A    between atoms: C_18  and  C_19
REMARK                            x       y       z     vdW  Elec       q    Type
REMARK                         _______ _______ _______ _____ _____    ______ ____
ROOT
ATOM      1  C   UNL     1      46.057   6.939  11.898  0.00  0.00    +0.000 A 
ATOM      2  C   UNL     1      45.306   6.503  10.815  0.00  0.00    +0.000 A 
ATOM      3  N   UNL     1      45.075   5.153  10.939  0.00  0.00    +0.000 N 
ATOM      4  C   UNL     1      45.654   4.693  12.096  0.00  0.00    +0.000 A 
ATOM      5  N   UNL     1      45.645   3.414  12.526  0.00  0.00    +0.000 NA
ATOM      6  C   UNL     1      46.297   3.245  13.711  0.00  0.00    +0.000 A 
ATOM      7  C   UNL     1      46.910   4.247  14.461  0.00  0.00    +0.000 A 
ATOM      8  C   UNL     1      46.886   5.544  13.958  0.00  0.00    +0.000 A 
ATOM      9  C   UNL     1      46.248   5.782  12.726  0.00  0.00    +0.000 A 
ENDROOT
BRANCH   7  10
ATOM     10  C   UNL     1      47.562   3.897  15.745  0.00  0.00    +0.000 C 
ATOM     11  N   UNL     1      47.314   4.675  16.847  0.00  0.00    +0.000 N 
ATOM     12  O   UNL     1      48.302   2.929  15.834  0.00  0.00    +0.000 OA
ATOM     13  H   UNL     1      46.717   5.487  16.876  0.00  0.00    +0.000 HD
ATOM     14  H   UNL     1      47.771   4.408  17.707  0.00  0.00    +0.000 HD
ENDBRANCH   7  10
BRANCH   1  16
ATOM     15  C   UNL     1      46.587   8.692  13.661  0.00  0.00    +0.000 C 
ATOM     16  C   UNL     1      46.598   8.346  12.158  0.00  0.00    +0.000 C 
ATOM     17  C   UNL     1      45.721   9.394  11.437  0.00  0.00    +0.000 C 
ATOM     18  C   UNL     1      48.054   8.477  11.665  0.00  0.00    +0.000 C 
ENDBRANCH   1  16
BRANCH   3  19
ATOM     19  C   UNL     1      44.281   4.354  10.014  0.00  0.00    +0.000 C 
BRANCH  19  20
ATOM     20  C   UNL     1      45.131   3.519   9.111  0.00  0.00    +0.000 A 
ATOM     21  C   UNL     1      45.212   2.145   9.223  0.00  0.00    +0.000 A 
ATOM     22  N   UNL     1      45.972   1.369   8.422  0.00  0.00    +0.000 NA
ATOM     23  C   UNL     1      46.667   2.013   7.474  0.00  0.00    +0.000 A 
ATOM     24  N   UNL     1      46.655   3.336   7.253  0.00  0.00    +0.000 NA
ATOM     25  C   UNL     1      45.879   4.060   8.083  0.00  0.00    +0.000 A 
ENDBRANCH  19  20
ENDBRANCH   3  19
TORSDOF 4
ENDMDL
MODEL 2
REMARK VINA RESULT:    -6.878      2.576      6.240
REMARK INTER + INTRA:          -8.944
REMARK INTER:                  -8.347
REMARK INTRA:                  -0.597
REMARK UNBOUND:                -0.457
REMARK  Name = 
REMARK  7 active torsions:
REMARK  status: ('A' for Active; 'I' for Inactive)
REMARK    1  A    between atoms: C_1  and  C_2
REMARK    2  A    between atoms: C_2  and  C_3
REMARK    3  A    between atoms: C_2  and  C_4
REMARK    4  A    between atoms: C_2  and  C_5
REMARK    5  A    between atoms: N_7  and  C_8
REMARK    6  A    between atoms: C_8  and  C_9
REMARK    7  A    between atoms: C_18  and  C_19
REMARK                            x       y       z     vdW  Elec       q    Type
REMARK                         _______ _______ _______ _____ _____    ______ ____
ROOT
ATOM      1  C   UNL     1      48.059   6.614  13.722  0.00  0.00    +0.000 A 
ATOM      2  C   UNL     1      48.213   6.078  14.994  0.00  0.00    +0.000 A 
ATOM      3  N   UNL     1      47.300   5.066  15.171  0.00  0.00    +0.000 N 
ATOM      4  C   UNL     1      46.552   4.917  14.030  0.00  0.00    +0.000 A 
ATOM      5  N   UNL     1      45.548   4.031  13.856  0.00  0.00    +0.000 NA
ATOM      6  C   UNL     1      44.981   4.105  12.618  0.00  0.00    +0.000 A 
ATOM      7  C   UNL     1      45.363   4.964  11.590  0.00  0.00    +0.000 A 
ATOM      8  C   UNL     1      46.403   5.854  11.837  0.00  0.00    +0.000 A 
ATOM      9  C   UNL     1      47.016   5.846  13.103  0.00  0.00    +0.000 A 
ENDROOT
BRANCH   7  10
ATOM     10  C   UNL     1      44.652   4.903  10.290  0.00  0.00    +0.000 C 
ATOM     11  N   UNL     1      45.367   5.086   9.135  0.00  0.00    +0.000 N 
ATOM     12  O   UNL     1      43.451   4.682  10.238  0.00  0.00    +0.000 OA
ATOM     13  H   UNL     1      46.358   5.266   9.074  0.00  0.00    +0.000 HD
ATOM     14  H   UNL     1      44.854   5.035   8.266  0.00  0.00    +0.000 HD
ENDBRANCH   7  10
BRANCH   1  16
ATOM     15  C   UNL     1      49.523   7.389  11.795  0.00  0.00    +0.000 C 
ATOM     16  C   UNL     1      48.814   7.792  13.105  0.00  0.00    +0.000 C 
ATOM     17  C   UNL     1      49.899   8.298  14.081  0.00  0.00    +0.000 C 
ATOM     18  C   UNL     1      47.851   8.950  12.771  0.00  0.00    +0.000 C 
ENDBRANCH   1  16
BRANCH   3  19
ATOM     19  C   UNL     1      47.193   4.237  16.367  0.00  0.00    +0.000 C 
BRANCH  19  20
ATOM     20  C   UNL     1      48.461   3.504  16.664  0.00  0.00    +0.000 A 
ATOM     21  C   UNL     1      49.431   4.003  17.511  0.00  0.00    +0.000 A 
ATOM     22  N   UNL     1      50.584   3.361  17.795  0.00  0.00    +0.000 NA
ATOM     23  C   UNL     1      50.751   2.172  17.201  0.00  0.00    +0.000 A 
ATOM     24  N   UNL     1      49.876   1.573  16.378  0.00  0.00    +0.000 NA
ATOM     25  C   UNL     1      48.744   2.261  16.131  0.00  0.00    +0.000 A 
ENDBRANCH  19  20
ENDBRANCH   3  19
TORSDOF 4
ENDMDL
MODEL 3
REMARK VINA RESULT:    -6.590      2.723      3.983
REMARK INTER + INTRA:          -8.588
REMARK INTER:                  -7.906
REMARK INTRA:                  -0.682
REMARK UNBOUND:                -0.457
REMARK  Name = 
REMARK  7 active torsions:
REMARK  status: ('A' for Active; 'I' for Inactive)
REMARK    1  A    between atoms: C_1  and  C_2
REMARK    2  A    between atoms: C_2  and  C_3
REMARK    3  A    between atoms: C_2  and  C_4
REMARK    4  A    between atoms: C_2  and  C_5
REMARK    5  A    between atoms: N_7  and  C_8
REMARK    6  A    between atoms: C_8  and  C_9
REMARK    7  A    between atoms: C_18  and  C_19
REMARK                            x       y       z     vdW  Elec       q    Type
REMARK                         _______ _______ _______ _____ _____    ______ ____
ROOT
ATOM      1  C   UNL     1      48.076   6.452  14.210  0.00  0.00    +0.000 A 
ATOM      2  C   UNL     1      47.364   5.801  13.211  0.00  0.00    +0.000 A 
ATOM      3  N   UNL     1      46.925   4.588  13.688  0.00  0.00    +0.000 N 
ATOM      4  C   UNL     1      47.326   4.433  14.991  0.00  0.00    +0.000 A 
ATOM      5  N   UNL     1      47.090   3.353  15.765  0.00  0.00    +0.000 NA
ATOM      6  C   UNL     1      47.605   3.475  17.021  0.00  0.00    +0.000 A 
ATOM      7  C   UNL     1      48.294   4.577  17.523  0.00  0.00    +0.000 A 
ATOM      8  C   UNL     1      48.507   5.655  16.670  0.00  0.00    +0.000 A 
ATOM      9  C   UNL     1      48.020   5.584  15.352  0.00  0.00    +0.000 A 
ENDROOT
BRANCH   7  10
ATOM     10  C   UNL     1      48.774   4.557  18.926  0.00  0.00    +0.000 C 
ATOM     11  N   UNL     1      48.419   3.507  19.732  0.00  0.00    +0.000 N 
ATOM     12  O   UNL     1      49.484   5.451  19.362  0.00  0.00    +0.000 OA
ATOM     13  H   UNL     1      47.844   2.722  19.464  0.00  0.00    +0.000 HD
ATOM     14  H   UNL     1      48.764   3.522  20.682  0.00  0.00    +0.000 HD
ENDBRANCH   7  10
BRANCH   1  16
ATOM     15  C   UNL     1      50.281   7.677  14.524  0.00  0.00    +0.000 C 
ATOM     16  C   UNL     1      48.796   7.797  14.121  0.00  0.00    +0.000 C 
ATOM     17  C   UNL     1      48.139   8.817  15.078  0.00  0.00    +0.000 C 
ATOM     18  C   UNL     1      48.753   8.352  12.682  0.00  0.00    +0.000 C 
ENDBRANCH   1  16
BRANCH   3  19
ATOM     19  C   UNL     1      46.102   3.645  12.938  0.00  0.00    +0.000 C 
BRANCH  19  20
ATOM     20  C   UNL     1      44.823   4.257  12.467  0.00  0.00    +0.000 A 
ATOM     21  C   UNL     1      43.797   4.596  13.327  0.00  0.00    +0.000 A 
ATOM     22  N   UNL     1      42.632   5.149  12.927  0.00  0.00    +0.000 NA
ATOM     23  C   UNL     1      42.512   5.367  11.611  0.00  0.00    +0.000 A 
ATOM     24  N   UNL     1      43.442   5.102  10.681  0.00  0.00    +0.000 NA
ATOM     25  C   UNL     1      44.583   4.551  11.138  0.00  0.00    +0.000 A 
ENDBRANCH  19  20
ENDBRANCH   3  19
TORSDOF 4
ENDMDL
MODEL 4
REMARK VINA RESULT:    -6.317      2.498      6.654
REMARK INTER + INTRA:          -8.252
REMARK INTER:                  -7.794
REMARK INTRA:                  -0.458
REMARK UNBOUND:                -0.457
REMARK  Name = 
REMARK  7 active torsions:
REMARK  status: ('A' for Active; 'I' for Inactive)
REMARK    1  A    between atoms: C_1  and  C_2
REMARK    2  A    between atoms: C_2  and  C_3
REMARK    3  A    between atoms: C_2  and  C_4
REMARK    4  A    between atoms: C_2  and  C_5
REMARK    5  A    between atoms: N_7  and  C_8
REMARK    6  A    between atoms: C_8  and  C_9
REMARK    7  A    between atoms: C_18  and  C_19
REMARK                            x       y       z     vdW  Elec       q    Type
REMARK                         _______ _______ _______ _____ _____    ______ ____
ROOT
ATOM      1  C   UNL     1      47.713   6.662  13.596  0.00  0.00    +0.000 A 
ATOM      2  C   UNL     1      48.061   6.004  14.768  0.00  0.00    +0.000 A 
ATOM      3  N   UNL     1      47.370   4.817  14.842  0.00  0.00    +0.000 N 
ATOM      4  C   UNL     1      46.579   4.675  13.730  0.00  0.00    +0.000 A 
ATOM      5  N   UNL     1      45.749   3.641  13.480  0.00  0.00    +0.000 NA
ATOM      6  C   UNL     1      45.087   3.763  12.295  0.00  0.00    +0.000 A 
ATOM      7  C   UNL     1      45.221   4.808  11.383  0.00  0.00    +0.000 A 
ATOM      8  C   UNL     1      46.091   5.845  11.704  0.00  0.00    +0.000 A 
ATOM      9  C   UNL     1      46.789   5.791  12.925  0.00  0.00    +0.000 A 
ENDROOT
BRANCH   7  10
ATOM     10  C   UNL     1      44.439   4.779  10.124  0.00  0.00    +0.000 C 
ATOM     11  N   UNL     1      45.108   4.737   8.929  0.00  0.00    +0.000 N 
ATOM     12  O   UNL     1      43.217   4.782  10.141  0.00  0.00    +0.000 OA
ATOM     13  H   UNL     1      46.110   4.726   8.811  0.00  0.00    +0.000 HD
ATOM     14  H   UNL     1      44.546   4.715   8.090  0.00  0.00    +0.000 HD
ENDBRANCH   7  10
BRANCH   1  16
ATOM     15  C   UNL     1      49.129   8.701  14.140  0.00  0.00    +0.000 C 
ATOM     16  C   UNL     1      48.184   8.035  13.117  0.00  0.00    +0.000 C 
ATOM     17  C   UNL     1      46.974   8.976  12.926  0.00  0.00    +0.000 C 
ATOM     18  C   UNL     1      48.954   7.921  11.785  0.00  0.00    +0.000 C 
ENDBRANCH   1  16
BRANCH   3  19
ATOM     19  C   UNL     1      47.512   3.835  15.911  0.00  0.00    +0.000 C 
BRANCH  19  20
ATOM     20  C   UNL     1      48.018   4.443  17.178  0.00  0.00    +0.000 A 
ATOM     21  C   UNL     1      47.185   5.043  18.103  0.00  0.00    +0.000 A 
ATOM     22  N   UNL     1      47.618   5.600  19.254  0.00  0.00    +0.000 NA
ATOM     23  C   UNL     1      48.938   5.540  19.471  0.00  0.00    +0.000 A 
ATOM     24  N   UNL     1      49.844   4.969  18.662  0.00  0.00    +0.000 NA
ATOM     25  C   UNL     1      49.355   4.429  17.529  0.00  0.00    +0.000 A 
ENDBRANCH  19  20
ENDBRANCH   3  19
TORSDOF 4
ENDMDL
MODEL 5
REMARK VINA RESULT:    -6.069      3.395      6.775
REMARK INTER + INTRA:          -7.945
REMARK INTER:                  -7.680
REMARK INTRA:                  -0.264
REMARK UNBOUND:                -0.457
REMARK  Name = 
REMARK  7 active torsions:
REMARK  status: ('A' for Active; 'I' for Inactive)
REMARK    1  A    between atoms: C_1  and  C_2
REMARK    2  A    between atoms: C_2  and  C_3
REMARK    3  A    between atoms: C_2  and  C_4
REMARK    4  A    between atoms: C_2  and  C_5
REMARK    5  A    between atoms: N_7  and  C_8
REMARK    6  A    between atoms: C_8  and  C_9
REMARK    7  A    between atoms: C_18  and  C_19
REMARK                            x       y       z     vdW  Elec       q    Type
REMARK                         _______ _______ _______ _____ _____    ______ ____
ROOT
ATOM      1  C   UNL     1      44.934   5.317  12.147  0.00  0.00    +0.000 A 
ATOM      2  C   UNL     1      46.012   4.749  12.814  0.00  0.00    +0.000 A 
ATOM      3  N   UNL     1      46.884   5.743  13.189  0.00  0.00    +0.000 N 
ATOM      4  C   UNL     1      46.394   6.961  12.790  0.00  0.00    +0.000 A 
ATOM      5  N   UNL     1      47.000   8.153  12.973  0.00  0.00    +0.000 NA
ATOM      6  C   UNL     1      46.281   9.199  12.475  0.00  0.00    +0.000 A 
ATOM      7  C   UNL     1      45.037   9.117  11.852  0.00  0.00    +0.000 A 
ATOM      8  C   UNL     1      44.470   7.857  11.692  0.00  0.00    +0.000 A 
ATOM      9  C   UNL     1      45.172   6.732  12.164  0.00  0.00    +0.000 A 
ENDROOT
BRANCH   7  10
ATOM     10  C   UNL     1      44.377  10.359  11.383  0.00  0.00    +0.000 C 
ATOM     11  N   UNL     1      43.284  10.826  12.067  0.00  0.00    +0.000 N 
ATOM     12  O   UNL     1      44.798  10.969  10.412  0.00  0.00    +0.000 OA
ATOM     13  H   UNL     1      42.867  10.399  12.880  0.00  0.00    +0.000 HD
ATOM     14  H   UNL     1      42.859  11.676  11.723  0.00  0.00    +0.000 HD
ENDBRANCH   7  10
BRANCH   1  16
ATOM     15  C   UNL     1      43.616   3.148  12.010  0.00  0.00    +0.000 C 
ATOM     16  C   UNL     1      43.749   4.599  11.501  0.00  0.00    +0.000 C 
ATOM     17  C   UNL     1      43.936   4.535   9.969  0.00  0.00    +0.000 C 
ATOM     18  C   UNL     1      42.424   5.323  11.821  0.00  0.00    +0.000 C 
ENDBRANCH   1  16
BRANCH   3  19
ATOM     19  C   UNL     1      48.110   5.533  13.952  0.00  0.00    +0.000 C 
BRANCH  19  20
ATOM     20  C   UNL     1      47.837   5.191  15.381  0.00  0.00    +0.000 A 
ATOM     21  C   UNL     1      47.090   4.091  15.756  0.00  0.00    +0.000 A 
ATOM     22  N   UNL     1      46.829   3.762  17.039  0.00  0.00    +0.000 NA
ATOM     23  C   UNL     1      47.349   4.575  17.967  0.00  0.00    +0.000 A 
ATOM     24  N   UNL     1      48.105   5.658  17.731  0.00  0.00    +0.000 NA
ATOM     25  C   UNL     1      48.332   5.938  16.432  0.00  0.00    +0.000 A 
ENDBRANCH  19  20
ENDBRANCH   3  19
TORSDOF 4
ENDMDL
MODEL 6
REMARK VINA RESULT:    -5.761      3.742      7.339
REMARK INTER + INTRA:          -7.566
REMARK INTER:                  -6.857
REMARK INTRA:                  -0.708
REMARK UNBOUND:                -0.457
REMARK  Name = 
REMARK  7 active torsions:
REMARK  status: ('A' for Active; 'I' for Inactive)
REMARK    1  A    between atoms: C_1  and  C_2
REMARK    2  A    between atoms: C_2  and  C_3
REMARK    3  A    between atoms: C_2  and  C_4
REMARK    4  A    between atoms: C_2  and  C_5
REMARK    5  A    between atoms: N_7  and  C_8
REMARK    6  A    between atoms: C_8  and  C_9
REMARK    7  A    between atoms: C_18  and  C_19
REMARK                            x       y       z     vdW  Elec       q    Type
REMARK                         _______ _______ _______ _____ _____    ______ ____
ROOT
ATOM      1  C   UNL     1      45.704   5.783  12.375  0.00  0.00    +0.000 A 
ATOM      2  C   UNL     1      46.955   5.634  12.959  0.00  0.00    +0.000 A 
ATOM      3  N   UNL     1      47.549   6.868  13.075  0.00  0.00    +0.000 N 
ATOM      4  C   UNL     1      46.704   7.834  12.587  0.00  0.00    +0.000 A 
ATOM      5  N   UNL     1      46.970   9.155  12.524  0.00  0.00    +0.000 NA
ATOM      6  C   UNL     1      45.945   9.881  11.994  0.00  0.00    +0.000 A 
ATOM      7  C   UNL     1      44.719   9.377  11.563  0.00  0.00    +0.000 A 
ATOM      8  C   UNL     1      44.512   8.004  11.652  0.00  0.00    +0.000 A 
ATOM      9  C   UNL     1      45.540   7.195  12.170  0.00  0.00    +0.000 A 
ENDROOT
BRANCH   7  10
ATOM     10  C   UNL     1      43.699  10.308  11.026  0.00  0.00    +0.000 C 
ATOM     11  N   UNL     1      42.858  10.945  11.902  0.00  0.00    +0.000 N 
ATOM     12  O   UNL     1      43.607  10.520   9.826  0.00  0.00    +0.000 OA
ATOM     13  H   UNL     1      42.859  10.841  12.906  0.00  0.00    +0.000 HD
ATOM     14  H   UNL     1      42.175  11.576  11.505  0.00  0.00    +0.000 HD
ENDBRANCH   7  10
BRANCH   1  16
ATOM     15  C   UNL     1      44.355   4.726  10.498  0.00  0.00    +0.000 C 
ATOM     16  C   UNL     1      44.709   4.685  12.000  0.00  0.00    +0.000 C 
ATOM     17  C   UNL     1      43.393   4.867  12.789  0.00  0.00    +0.000 C 
ATOM     18  C   UNL     1      45.291   3.288  12.298  0.00  0.00    +0.000 C 
ENDBRANCH   1  16
BRANCH   3  19
ATOM     19  C   UNL     1      48.851   7.114  13.685  0.00  0.00    +0.000 C 
BRANCH  19  20
ATOM     20  C   UNL     1      48.756   7.330  15.160  0.00  0.00    +0.000 A 
ATOM     21  C   UNL     1      48.539   8.574  15.720  0.00  0.00    +0.000 A 
ATOM     22  N   UNL     1      48.449   8.796  17.048  0.00  0.00    +0.000 NA
ATOM     23  C   UNL     1      48.580   7.716  17.830  0.00  0.00    +0.000 A 
ATOM     24  N   UNL     1      48.772   6.457  17.407  0.00  0.00    +0.000 NA
ATOM     25  C   UNL     1      48.853   6.296  16.072  0.00  0.00    +0.000 A 
ENDBRANCH  19  20
ENDBRANCH   3  19
TORSDOF 4
ENDMDL
MODEL 7
REMARK VINA RESULT:    -5.752      3.013      5.341
REMARK INTER + INTRA:          -7.555
REMARK INTER:                  -6.970
REMARK INTRA:                  -0.585
REMARK UNBOUND:                -0.457
REMARK  Name = 
REMARK  7 active torsions:
REMARK  status: ('A' for Active; 'I' for Inactive)
REMARK    1  A    between atoms: C_1  and  C_2
REMARK    2  A    between atoms: C_2  and  C_3
REMARK    3  A    between atoms: C_2  and  C_4
REMARK    4  A    between atoms: C_2  and  C_5
REMARK    5  A    between atoms: N_7  and  C_8
REMARK    6  A    between atoms: C_8  and  C_9
REMARK    7  A    between atoms: C_18  and  C_19
REMARK                            x       y       z     vdW  Elec       q    Type
REMARK                         _______ _______ _______ _____ _____    ______ ____
ROOT
ATOM      1  C   UNL     1      47.662   4.549  15.784  0.00  0.00    +0.000 A 
ATOM      2  C   UNL     1      46.975   3.696  14.929  0.00  0.00    +0.000 A 
ATOM      3  N   UNL     1      46.787   4.324  13.720  0.00  0.00    +0.000 N 
ATOM      4  C   UNL     1      47.351   5.575  13.759  0.00  0.00    +0.000 A 
ATOM      5  N   UNL     1      47.338   6.477  12.755  0.00  0.00    +0.000 NA
ATOM      6  C   UNL     1      47.978   7.638  13.073  0.00  0.00    +0.000 A 
ATOM      7  C   UNL     1      48.617   7.920  14.279  0.00  0.00    +0.000 A 
ATOM      8  C   UNL     1      48.590   6.947  15.273  0.00  0.00    +0.000 A 
ATOM      9  C   UNL     1      47.925   5.734  15.017  0.00  0.00    +0.000 A 
ENDROOT
BRANCH   7  10
ATOM     10  C   UNL     1      49.286   9.230  14.457  0.00  0.00    +0.000 C 
ATOM     11  N   UNL     1      48.524  10.327  14.767  0.00  0.00    +0.000 N 
ATOM     12  O   UNL     1      50.498   9.340  14.343  0.00  0.00    +0.000 OA
ATOM     13  H   UNL     1      47.522  10.337  14.888  0.00  0.00    +0.000 HD
ATOM     14  H   UNL     1      49.011  11.204  14.885  0.00  0.00    +0.000 HD
ENDBRANCH   7  10
BRANCH   1  16
ATOM     15  C   UNL     1      47.593   2.907  17.722  0.00  0.00    +0.000 C 
ATOM     16  C   UNL     1      48.043   4.303  17.244  0.00  0.00    +0.000 C 
ATOM     17  C   UNL     1      47.359   5.346  18.155  0.00  0.00    +0.000 C 
ATOM     18  C   UNL     1      49.572   4.386  17.436  0.00  0.00    +0.000 C 
ENDBRANCH   1  16
BRANCH   3  19
ATOM     19  C   UNL     1      46.145   3.722  12.558  0.00  0.00    +0.000 C 
BRANCH  19  20
ATOM     20  C   UNL     1      44.812   4.331  12.267  0.00  0.00    +0.000 A 
ATOM     21  C   UNL     1      44.421   4.698  10.993  0.00  0.00    +0.000 A 
ATOM     22  N   UNL     1      43.224   5.250  10.705  0.00  0.00    +0.000 NA
ATOM     23  C   UNL     1      42.398   5.430  11.744  0.00  0.00    +0.000 A 
ATOM     24  N   UNL     1      42.653   5.096  13.018  0.00  0.00    +0.000 NA
ATOM     25  C   UNL     1      43.863   4.549  13.247  0.00  0.00    +0.000 A 
ENDBRANCH  19  20
ENDBRANCH   3  19
TORSDOF 4
ENDMDL
MODEL 8
REMARK VINA RESULT:    -5.741      3.134      5.409
REMARK INTER + INTRA:          -7.540
REMARK INTER:                  -7.150
REMARK INTRA:                  -0.390
REMARK UNBOUND:                -0.457
REMARK  Name = 
REMARK  7 active torsions:
REMARK  status: ('A' for Active; 'I' for Inactive)
REMARK    1  A    between atoms: C_1  and  C_2
REMARK    2  A    between atoms: C_2  and  C_3
REMARK    3  A    between atoms: C_2  and  C_4
REMARK    4  A    between atoms: C_2  and  C_5
REMARK    5  A    between atoms: N_7  and  C_8
REMARK    6  A    between atoms: C_8  and  C_9
REMARK    7  A    between atoms: C_18  and  C_19
REMARK                            x       y       z     vdW  Elec       q    Type
REMARK                         _______ _______ _______ _____ _____    ______ ____
ROOT
ATOM      1  C   UNL     1      46.225   5.780  12.546  0.00  0.00    +0.000 A 
ATOM      2  C   UNL     1      46.740   7.014  12.169  0.00  0.00    +0.000 A 
ATOM      3  N   UNL     1      47.624   7.446  13.130  0.00  0.00    +0.000 N 
ATOM      4  C   UNL     1      47.710   6.511  14.131  0.00  0.00    +0.000 A 
ATOM      5  N   UNL     1      48.466   6.614  15.243  0.00  0.00    +0.000 NA
ATOM      6  C   UNL     1      48.357   5.532  16.065  0.00  0.00    +0.000 A 
ATOM      7  C   UNL     1      47.583   4.397  15.830  0.00  0.00    +0.000 A 
ATOM      8  C   UNL     1      46.825   4.356  14.665  0.00  0.00    +0.000 A 
ATOM      9  C   UNL     1      46.874   5.453  13.784  0.00  0.00    +0.000 A 
ENDROOT
BRANCH   7  10
ATOM     10  C   UNL     1      47.592   3.294  16.820  0.00  0.00    +0.000 C 
ATOM     11  N   UNL     1      48.766   2.626  17.057  0.00  0.00    +0.000 N 
ATOM     12  O   UNL     1      46.578   2.984  17.428  0.00  0.00    +0.000 OA
ATOM     13  H   UNL     1      49.652   2.811  16.612  0.00  0.00    +0.000 HD
ATOM     14  H   UNL     1      48.738   1.882  17.740  0.00  0.00    +0.000 HD
ENDBRANCH   7  10
BRANCH   1  16
ATOM     15  C   UNL     1      45.374   3.434  12.063  0.00  0.00    +0.000 C 
ATOM     16  C   UNL     1      45.171   4.944  11.820  0.00  0.00    +0.000 C 
ATOM     17  C   UNL     1      45.261   5.183  10.296  0.00  0.00    +0.000 C 
ATOM     18  C   UNL     1      43.751   5.303  12.307  0.00  0.00    +0.000 C 
ENDBRANCH   1  16
BRANCH   3  19
ATOM     19  C   UNL     1      48.397   8.681  13.057  0.00  0.00    +0.000 C 
BRANCH  19  20
ATOM     20  C   UNL     1      49.782   8.454  12.545  0.00  0.00    +0.000 A 
ATOM     21  C   UNL     1      50.909   8.730  13.295  0.00  0.00    +0.000 A 
ATOM     22  N   UNL     1      52.170   8.534  12.855  0.00  0.00    +0.000 NA
ATOM     23  C   UNL     1      52.287   8.038  11.616  0.00  0.00    +0.000 A 
ATOM     24  N   UNL     1      51.272   7.712  10.801  0.00  0.00    +0.000 NA
ATOM     25  C   UNL     1      50.036   7.928  11.293  0.00  0.00    +0.000 A 
ENDBRANCH  19  20
ENDBRANCH   3  19
TORSDOF 4
ENDMDL
MODEL 9
REMARK VINA RESULT:    -5.683      3.204      6.263
REMARK INTER + INTRA:          -7.469
REMARK INTER:                  -6.955
REMARK INTRA:                  -0.514
REMARK UNBOUND:                -0.457
REMARK  Name = 
REMARK  7 active torsions:
REMARK  status: ('A' for Active; 'I' for Inactive)
REMARK    1  A    between atoms: C_1  and  C_2
REMARK    2  A    between atoms: C_2  and  C_3
REMARK    3  A    between atoms: C_2  and  C_4
REMARK    4  A    between atoms: C_2  and  C_5
REMARK    5  A    between atoms: N_7  and  C_8
REMARK    6  A    between atoms: C_8  and  C_9
REMARK    7  A    between atoms: C_18  and  C_19
REMARK                            x       y       z     vdW  Elec       q    Type
REMARK                         _______ _______ _______ _____ _____    ______ ____
ROOT
ATOM      1  C   UNL     1      48.095   5.443  15.572  0.00  0.00    +0.000 A 
ATOM      2  C   UNL     1      48.747   6.650  15.357  0.00  0.00    +0.000 A 
ATOM      3  N   UNL     1      48.364   7.158  14.138  0.00  0.00    +0.000 N 
ATOM      4  C   UNL     1      47.460   6.310  13.549  0.00  0.00    +0.000 A 
ATOM      5  N   UNL     1      46.890   6.483  12.338  0.00  0.00    +0.000 NA
ATOM      6  C   UNL     1      46.026   5.481  12.007  0.00  0.00    +0.000 A 
ATOM      7  C   UNL     1      45.705   4.380  12.798  0.00  0.00    +0.000 A 
ATOM      8  C   UNL     1      46.331   4.260  14.034  0.00  0.00    +0.000 A 
ATOM      9  C   UNL     1      47.252   5.249  14.426  0.00  0.00    +0.000 A 
ENDROOT
BRANCH   7  10
ATOM     10  C   UNL     1      44.726   3.386  12.296  0.00  0.00    +0.000 C 
ATOM     11  N   UNL     1      44.933   2.814  11.067  0.00  0.00    +0.000 N 
ATOM     12  O   UNL     1      43.753   3.067  12.963  0.00  0.00    +0.000 OA
ATOM     13  H   UNL     1      45.706   3.006  10.447  0.00  0.00    +0.000 HD
ATOM     14  H   UNL     1      44.249   2.139  10.756  0.00  0.00    +0.000 HD
ENDBRANCH   7  10
BRANCH   1  16
ATOM     15  C   UNL     1      48.140   3.017  16.329  0.00  0.00    +0.000 C 
ATOM     16  C   UNL     1      48.250   4.495  16.761  0.00  0.00    +0.000 C 
ATOM     17  C   UNL     1      47.136   4.756  17.799  0.00  0.00    +0.000 C 
ATOM     18  C   UNL     1      49.625   4.677  17.436  0.00  0.00    +0.000 C 
ENDBRANCH   1  16
BRANCH   3  19
ATOM     19  C   UNL     1      48.806   8.436  13.590  0.00  0.00    +0.000 C 
BRANCH  19  20
ATOM     20  C   UNL     1      50.080   8.313  12.818  0.00  0.00    +0.000 A 
ATOM     21  C   UNL     1      50.127   7.813  11.531  0.00  0.00    +0.000 A 
ATOM     22  N   UNL     1      51.264   7.691  10.814  0.00  0.00    +0.000 NA
ATOM     23  C   UNL     1      52.386   8.094  11.425  0.00  0.00    +0.000 A 
ATOM     24  N   UNL     1      52.466   8.614  12.659  0.00  0.00    +0.000 NA
ATOM     25  C   UNL     1      51.300   8.712  13.328  0.00  0.00    +0.000 A 
ENDBRANCH  19  20
ENDBRANCH   3  19
TORSDOF 4
ENDMDL
