MODEL 1
REMARK VINA RESULT:    -6.335      0.000      0.000
REMARK INTER + INTRA:          -8.634
REMARK INTER:                  -7.817
REMARK INTRA:                  -0.817
REMARK UNBOUND:                -0.817
REMARK  Name = 
REMARK  7 active torsions:
REMARK  status: ('A' for Active; 'I' for Inactive)
REMARK    1  A    between atoms: C_1  and  C_2
REMARK    2  A    between atoms: C_2  and  C_3
REMARK    3  A    between atoms: C_2  and  C_4
REMARK    4  A    between atoms: C_2  and  C_5
REMARK    5  A    between atoms: C_10  and  C_11
REMARK    6  A    between atoms: N_16  and  C_17
REMARK    7  A    between atoms: C_17  and  C_18
REMARK                            x       y       z     vdW  Elec       q    Type
REMARK                         _______ _______ _______ _____ _____    ______ ____
ROOT
ATOM      1  C   UNL     1      47.992   6.542  14.318  0.00  0.00    +0.000 A 
ATOM      2  N   UNL     1      47.678   5.283  14.582  0.00  0.00    +0.000 NA
ATOM      3  C   UNL     1      46.841   4.862  13.610  0.00  0.00    +0.000 A 
ATOM      4  N   UNL     1      46.245   3.655  13.585  0.00  0.00    +0.000 NA
ATOM      5  C   UNL     1      45.414   3.464  12.537  0.00  0.00    +0.000 A 
ATOM      6  C   UNL     1      45.160   4.382  11.518  0.00  0.00    +0.000 A 
ATOM      7  C   UNL     1      45.799   5.630  11.559  0.00  0.00    +0.000 A 
ATOM      8  C   UNL     1      46.652   5.845  12.655  0.00  0.00    +0.000 A 
ATOM      9  N   UNL     1      47.444   6.908  13.086  0.00  0.00    +0.000 N 
ENDROOT
BRANCH   6  10
ATOM     10  C   UNL     1      44.219   3.957  10.449  0.00  0.00    +0.000 C 
ATOM     11  N   UNL     1      44.199   4.648   9.267  0.00  0.00    +0.000 N 
ATOM     12  O   UNL     1      43.467   3.004  10.605  0.00  0.00    +0.000 OA
ATOM     13  H   UNL     1      44.742   5.467   9.060  0.00  0.00    +0.000 HD
ATOM     14  H   UNL     1      43.530   4.334   8.574  0.00  0.00    +0.000 HD
ENDBRANCH   6  10
BRANCH   1  16
ATOM     15  C   UNL     1      50.307   7.368  14.771  0.00  0.00    +0.000 C 
ATOM     16  C   UNL     1      48.867   7.316  15.308  0.00  0.00    +0.000 C 
ATOM     17  C   UNL     1      48.892   6.517  16.646  0.00  0.00    +0.000 C 
ATOM     18  C   UNL     1      48.389   8.724  15.669  0.00  0.00    +0.000 C 
ENDBRANCH   1  16
BRANCH   9  19
ATOM     19  C   UNL     1      47.431   8.202  12.413  0.00  0.00    +0.000 C 
BRANCH  19  20
ATOM     20  C   UNL     1      48.721   8.693  11.795  0.00  0.00    +0.000 A 
ATOM     21  C   UNL     1      49.127  10.026  11.762  0.00  0.00    +0.000 A 
ATOM     22  C   UNL     1      50.438  10.332  11.387  0.00  0.00    +0.000 A 
ATOM     23  C   UNL     1      51.312   9.311  11.035  0.00  0.00    +0.000 A 
ATOM     24  C   UNL     1      50.827   8.019  11.044  0.00  0.00    +0.000 A 
ATOM     25  N   UNL     1      49.568   7.694  11.419  0.00  0.00    +0.000 NA
ENDBRANCH  19  20
ENDBRANCH   9  19
TORSDOF 4
ENDMDL
MODEL 2
REMARK VINA RESULT:    -6.163      1.840      4.397
REMARK INTER + INTRA:          -8.421
REMARK INTER:                  -7.743
REMARK INTRA:                  -0.678
REMARK UNBOUND:                -0.817
REMARK  Name = 
REMARK  7 active torsions:
REMARK  status: ('A' for Active; 'I' for Inactive)
REMARK    1  A    between atoms: C_1  and  C_2
REMARK    2  A    between atoms: C_2  and  C_3
REMARK    3  A    between atoms: C_2  and  C_4
REMARK    4  A    between atoms: C_2  and  C_5
REMARK    5  A    between atoms: C_10  and  C_11
REMARK    6  A    between atoms: N_16  and  C_17
REMARK    7  A    between atoms: C_17  and  C_18
REMARK                            x       y       z     vdW  Elec       q    Type
REMARK                         _______ _______ _______ _____ _____    ______ ____
ROOT
ATOM      1  C   UNL     1      46.487   7.832  12.337  0.00  0.00    +0.000 A 
ATOM      2  N   UNL     1      45.315   7.947  11.731  0.00  0.00    +0.000 NA
ATOM      3  C   UNL     1      44.843   6.699  11.524  0.00  0.00    +0.000 A 
ATOM      4  N   UNL     1      43.707   6.413  10.859  0.00  0.00    +0.000 NA
ATOM      5  C   UNL     1      43.449   5.092  10.737  0.00  0.00    +0.000 A 
ATOM      6  C   UNL     1      44.233   4.057  11.247  0.00  0.00    +0.000 A 
ATOM      7  C   UNL     1      45.406   4.378  11.945  0.00  0.00    +0.000 A 
ATOM      8  C   UNL     1      45.692   5.749  12.061  0.00  0.00    +0.000 A 
ATOM      9  N   UNL     1      46.724   6.489  12.637  0.00  0.00    +0.000 N 
ENDROOT
BRANCH   6  10
ATOM     10  C   UNL     1      43.752   2.670  11.009  0.00  0.00    +0.000 C 
ATOM     11  N   UNL     1      44.265   1.960   9.958  0.00  0.00    +0.000 N 
ATOM     12  O   UNL     1      42.911   2.155  11.735  0.00  0.00    +0.000 OA
ATOM     13  H   UNL     1      44.922   2.308   9.283  0.00  0.00    +0.000 HD
ATOM     14  H   UNL     1      43.897   1.026   9.824  0.00  0.00    +0.000 HD
ENDBRANCH   6  10
BRANCH   1  16
ATOM     15  C   UNL     1      46.519  10.323  12.133  0.00  0.00    +0.000 C 
ATOM     16  C   UNL     1      47.307   9.095  12.620  0.00  0.00    +0.000 C 
ATOM     17  C   UNL     1      48.616   9.011  11.779  0.00  0.00    +0.000 C 
ATOM     18  C   UNL     1      47.752   9.296  14.070  0.00  0.00    +0.000 C 
ENDBRANCH   1  16
BRANCH   9  19
ATOM     19  C   UNL     1      47.903   5.851  13.210  0.00  0.00    +0.000 C 
BRANCH  19  20
ATOM     20  C   UNL     1      47.860   5.462  14.672  0.00  0.00    +0.000 A 
ATOM     21  C   UNL     1      47.109   4.409  15.190  0.00  0.00    +0.000 A 
ATOM     22  C   UNL     1      47.334   3.991  16.505  0.00  0.00    +0.000 A 
ATOM     23  C   UNL     1      48.285   4.639  17.283  0.00  0.00    +0.000 A 
ATOM     24  C   UNL     1      48.958   5.704  16.719  0.00  0.00    +0.000 A 
ATOM     25  N   UNL     1      48.771   6.118  15.444  0.00  0.00    +0.000 NA
ENDBRANCH  19  20
ENDBRANCH   9  19
TORSDOF 4
ENDMDL
MODEL 3
REMARK VINA RESULT:    -6.089      3.061      5.662
REMARK INTER + INTRA:          -8.331
REMARK INTER:                  -7.599
REMARK INTRA:                  -0.732
REMARK UNBOUND:                -0.817
REMARK  Name = 
REMARK  7 active torsions:
REMARK  status: ('A' for Active; 'I' for Inactive)
REMARK    1  A    between atoms: C_1  and  C_2
REMARK    2  A    between atoms: C_2  and  C_3
REMARK    3  A    between atoms: C_2  and  C_4
REMARK    4  A    between atoms: C_2  and  C_5
REMARK    5  A    between atoms: C_10  and  C_11
REMARK    6  A    between atoms: N_16  and  C_17
REMARK    7  A    between atoms: C_17  and  C_18
REMARK                            x       y       z     vdW  Elec       q    Type
REMARK                         _______ _______ _______ _____ _____    ______ ____
ROOT
ATOM      1  C   UNL     1      45.239   4.666  12.476  0.00  0.00    +0.000 A 
ATOM      2  N   UNL     1      45.332   3.970  13.599  0.00  0.00    +0.000 NA
ATOM      3  C   UNL     1      46.327   4.515  14.332  0.00  0.00    +0.000 A 
ATOM      4  N   UNL     1      46.768   4.025  15.506  0.00  0.00    +0.000 NA
ATOM      5  C   UNL     1      47.802   4.709  16.044  0.00  0.00    +0.000 A 
ATOM      6  C   UNL     1      48.400   5.846  15.500  0.00  0.00    +0.000 A 
ATOM      7  C   UNL     1      47.918   6.345  14.281  0.00  0.00    +0.000 A 
ATOM      8  C   UNL     1      46.855   5.629  13.705  0.00  0.00    +0.000 A 
ATOM      9  N   UNL     1      46.109   5.757  12.533  0.00  0.00    +0.000 N 
ENDROOT
BRANCH   6  10
ATOM     10  C   UNL     1      49.518   6.451  16.270  0.00  0.00    +0.000 C 
ATOM     11  N   UNL     1      49.276   7.564  17.030  0.00  0.00    +0.000 N 
ATOM     12  O   UNL     1      50.644   5.973  16.239  0.00  0.00    +0.000 OA
ATOM     13  H   UNL     1      48.401   8.054  17.086  0.00  0.00    +0.000 HD
ATOM     14  H   UNL     1      50.070   7.953  17.524  0.00  0.00    +0.000 HD
ENDBRANCH   6  10
BRANCH   1  16
ATOM     15  C   UNL     1      43.127   5.267  11.283  0.00  0.00    +0.000 C 
ATOM     16  C   UNL     1      44.244   4.217  11.402  0.00  0.00    +0.000 C 
ATOM     17  C   UNL     1      43.591   2.886  11.884  0.00  0.00    +0.000 C 
ATOM     18  C   UNL     1      44.834   3.918  10.022  0.00  0.00    +0.000 C 
ENDBRANCH   1  16
BRANCH   9  19
ATOM     19  C   UNL     1      46.434   6.750  11.517  0.00  0.00    +0.000 C 
BRANCH  19  20
ATOM     20  C   UNL     1      46.025   8.185  11.770  0.00  0.00    +0.000 A 
ATOM     21  C   UNL     1      46.902   9.209  12.122  0.00  0.00    +0.000 A 
ATOM     22  C   UNL     1      46.454  10.533  12.090  0.00  0.00    +0.000 A 
ATOM     23  C   UNL     1      45.142  10.810  11.729  0.00  0.00    +0.000 A 
ATOM     24  C   UNL     1      44.317   9.743  11.440  0.00  0.00    +0.000 A 
ATOM     25  N   UNL     1      44.729   8.454  11.445  0.00  0.00    +0.000 NA
ENDBRANCH  19  20
ENDBRANCH   9  19
TORSDOF 4
ENDMDL
MODEL 4
REMARK VINA RESULT:    -5.940      2.824      6.302
REMARK INTER + INTRA:          -8.147
REMARK INTER:                  -7.718
REMARK INTRA:                  -0.429
REMARK UNBOUND:                -0.817
REMARK  Name = 
REMARK  7 active torsions:
REMARK  status: ('A' for Active; 'I' for Inactive)
REMARK    1  A    between atoms: C_1  and  C_2
REMARK    2  A    between atoms: C_2  and  C_3
REMARK    3  A    between atoms: C_2  and  C_4
REMARK    4  A    between atoms: C_2  and  C_5
REMARK    5  A    between atoms: C_10  and  C_11
REMARK    6  A    between atoms: N_16  and  C_17
REMARK    7  A    between atoms: C_17  and  C_18
REMARK                            x       y       z     vdW  Elec       q    Type
REMARK                         _______ _______ _______ _____ _____    ______ ____
ROOT
ATOM      1  C   UNL     1      44.773   5.180  12.285  0.00  0.00    +0.000 A 
ATOM      2  N   UNL     1      45.418   5.421  13.416  0.00  0.00    +0.000 NA
ATOM      3  C   UNL     1      46.576   6.038  13.099  0.00  0.00    +0.000 A 
ATOM      4  N   UNL     1      47.534   6.368  13.986  0.00  0.00    +0.000 NA
ATOM      5  C   UNL     1      48.628   6.943  13.439  0.00  0.00    +0.000 A 
ATOM      6  C   UNL     1      48.813   7.222  12.085  0.00  0.00    +0.000 A 
ATOM      7  C   UNL     1      47.798   6.878  11.180  0.00  0.00    +0.000 A 
ATOM      8  C   UNL     1      46.664   6.264  11.738  0.00  0.00    +0.000 A 
ATOM      9  N   UNL     1      45.470   5.760  11.222  0.00  0.00    +0.000 N 
ENDROOT
BRANCH   6  10
ATOM     10  C   UNL     1      50.092   7.875  11.702  0.00  0.00    +0.000 C 
ATOM     11  N   UNL     1      50.437   9.059  12.296  0.00  0.00    +0.000 N 
ATOM     12  O   UNL     1      50.838   7.374  10.871  0.00  0.00    +0.000 OA
ATOM     13  H   UNL     1      49.875   9.569  12.953  0.00  0.00    +0.000 HD
ATOM     14  H   UNL     1      51.309   9.477  11.993  0.00  0.00    +0.000 HD
ENDBRANCH   6  10
BRANCH   1  16
ATOM     15  C   UNL     1      42.358   5.235  11.646  0.00  0.00    +0.000 C 
ATOM     16  C   UNL     1      43.455   4.401  12.329  0.00  0.00    +0.000 C 
ATOM     17  C   UNL     1      43.054   4.229  13.825  0.00  0.00    +0.000 C 
ATOM     18  C   UNL     1      43.488   2.990  11.738  0.00  0.00    +0.000 C 
ENDBRANCH   1  16
BRANCH   9  19
ATOM     19  C   UNL     1      45.217   5.692   9.788  0.00  0.00    +0.000 C 
BRANCH  19  20
ATOM     20  C   UNL     1      45.727   4.484   9.032  0.00  0.00    +0.000 A 
ATOM     21  C   UNL     1      45.352   3.169   9.296  0.00  0.00    +0.000 A 
ATOM     22  C   UNL     1      45.694   2.165   8.384  0.00  0.00    +0.000 A 
ATOM     23  C   UNL     1      46.416   2.486   7.242  0.00  0.00    +0.000 A 
ATOM     24  C   UNL     1      46.796   3.802   7.071  0.00  0.00    +0.000 A 
ATOM     25  N   UNL     1      46.463   4.795   7.929  0.00  0.00    +0.000 NA
ENDBRANCH  19  20
ENDBRANCH   9  19
TORSDOF 4
ENDMDL
MODEL 5
REMARK VINA RESULT:    -5.844      2.638      5.828
REMARK INTER + INTRA:          -8.028
REMARK INTER:                  -7.319
REMARK INTRA:                  -0.709
REMARK UNBOUND:                -0.817
REMARK  Name = 
REMARK  7 active torsions:
REMARK  status: ('A' for Active; 'I' for Inactive)
REMARK    1  A    between atoms: C_1  and  C_2
REMARK    2  A    between atoms: C_2  and  C_3
REMARK    3  A    between atoms: C_2  and  C_4
REMARK    4  A    between atoms: C_2  and  C_5
REMARK    5  A    between atoms: C_10  and  C_11
REMARK    6  A    between atoms: N_16  and  C_17
REMARK    7  A    between atoms: C_17  and  C_18
REMARK                            x       y       z     vdW  Elec       q    Type
REMARK                         _______ _______ _______ _____ _____    ______ ____
ROOT
ATOM      1  C   UNL     1      48.180   7.446  13.726  0.00  0.00    +0.000 A 
ATOM      2  N   UNL     1      48.667   7.758  14.917  0.00  0.00    +0.000 NA
ATOM      3  C   UNL     1      48.450   6.703  15.732  0.00  0.00    +0.000 A 
ATOM      4  N   UNL     1      48.738   6.681  17.047  0.00  0.00    +0.000 NA
ATOM      5  C   UNL     1      48.396   5.535  17.675  0.00  0.00    +0.000 A 
ATOM      6  C   UNL     1      47.811   4.419  17.076  0.00  0.00    +0.000 A 
ATOM      7  C   UNL     1      47.528   4.460  15.703  0.00  0.00    +0.000 A 
ATOM      8  C   UNL     1      47.864   5.656  15.045  0.00  0.00    +0.000 A 
ATOM      9  N   UNL     1      47.745   6.119  13.735  0.00  0.00    +0.000 N 
ENDROOT
BRANCH   6  10
ATOM     10  C   UNL     1      47.532   3.253  17.954  0.00  0.00    +0.000 C 
ATOM     11  N   UNL     1      48.290   3.072  19.080  0.00  0.00    +0.000 N 
ATOM     12  O   UNL     1      46.640   2.457  17.692  0.00  0.00    +0.000 OA
ATOM     13  H   UNL     1      49.070   3.642  19.357  0.00  0.00    +0.000 HD
ATOM     14  H   UNL     1      48.076   2.256  19.640  0.00  0.00    +0.000 HD
ENDBRANCH   6  10
BRANCH   1  16
ATOM     15  C   UNL     1      48.928   7.910  11.387  0.00  0.00    +0.000 C 
ATOM     16  C   UNL     1      48.207   8.497  12.612  0.00  0.00    +0.000 C 
ATOM     17  C   UNL     1      49.047   9.707  13.119  0.00  0.00    +0.000 C 
ATOM     18  C   UNL     1      46.851   9.073  12.198  0.00  0.00    +0.000 C 
ENDBRANCH   1  16
BRANCH   9  19
ATOM     19  C   UNL     1      47.055   5.352  12.705  0.00  0.00    +0.000 C 
BRANCH  19  20
ATOM     20  C   UNL     1      45.549   5.476  12.615  0.00  0.00    +0.000 A 
ATOM     21  C   UNL     1      44.875   6.315  11.731  0.00  0.00    +0.000 A 
ATOM     22  C   UNL     1      43.494   6.168  11.568  0.00  0.00    +0.000 A 
ATOM     23  C   UNL     1      42.811   5.205  12.299  0.00  0.00    +0.000 A 
ATOM     24  C   UNL     1      43.537   4.442  13.192  0.00  0.00    +0.000 A 
ATOM     25  N   UNL     1      44.875   4.552  13.356  0.00  0.00    +0.000 NA
ENDBRANCH  19  20
ENDBRANCH   9  19
TORSDOF 4
ENDMDL
MODEL 6
REMARK VINA RESULT:    -5.669      1.663      4.293
REMARK INTER + INTRA:          -7.813
REMARK INTER:                  -7.029
REMARK INTRA:                  -0.783
REMARK UNBOUND:                -0.817
REMARK  Name = 
REMARK  7 active torsions:
REMARK  status: ('A' for Active; 'I' for Inactive)
REMARK    1  A    between atoms: C_1  and  C_2
REMARK    2  A    between atoms: C_2  and  C_3
REMARK    3  A    between atoms: C_2  and  C_4
REMARK    4  A    between atoms: C_2  and  C_5
REMARK    5  A    between atoms: C_10  and  C_11
REMARK    6  A    between atoms: N_16  and  C_17
REMARK    7  A    between atoms: C_17  and  C_18
REMARK                            x       y       z     vdW  Elec       q    Type
REMARK                         _______ _______ _______ _____ _____    ______ ____
ROOT
ATOM      1  C   UNL     1      47.415   9.037  12.402  0.00  0.00    +0.000 A 
ATOM      2  N   UNL     1      46.190   9.016  11.900  0.00  0.00    +0.000 NA
ATOM      3  C   UNL     1      45.697   7.774  12.087  0.00  0.00    +0.000 A 
ATOM      4  N   UNL     1      44.502   7.349  11.634  0.00  0.00    +0.000 NA
ATOM      5  C   UNL     1      44.231   6.053  11.902  0.00  0.00    +0.000 A 
ATOM      6  C   UNL     1      45.058   5.173  12.600  0.00  0.00    +0.000 A 
ATOM      7  C   UNL     1      46.295   5.638  13.071  0.00  0.00    +0.000 A 
ATOM      8  C   UNL     1      46.593   6.981  12.781  0.00  0.00    +0.000 A 
ATOM      9  N   UNL     1      47.678   7.819  13.034  0.00  0.00    +0.000 N 
ENDROOT
BRANCH   6  10
ATOM     10  C   UNL     1      44.554   3.789  12.795  0.00  0.00    +0.000 C 
ATOM     11  N   UNL     1      45.371   2.734  12.488  0.00  0.00    +0.000 N 
ATOM     12  O   UNL     1      43.428   3.576  13.226  0.00  0.00    +0.000 OA
ATOM     13  H   UNL     1      46.290   2.804  12.089  0.00  0.00    +0.000 HD
ATOM     14  H   UNL     1      44.981   1.809  12.621  0.00  0.00    +0.000 HD
ENDBRANCH   6  10
BRANCH   1  16
ATOM     15  C   UNL     1      47.454  11.355  11.470  0.00  0.00    +0.000 C 
ATOM     16  C   UNL     1      48.261  10.305  12.252  0.00  0.00    +0.000 C 
ATOM     17  C   UNL     1      49.514   9.944  11.400  0.00  0.00    +0.000 C 
ATOM     18  C   UNL     1      48.797  10.913  13.550  0.00  0.00    +0.000 C 
ENDBRANCH   1  16
BRANCH   9  19
ATOM     19  C   UNL     1      48.906   7.328  13.647  0.00  0.00    +0.000 C 
BRANCH  19  20
ATOM     20  C   UNL     1      48.936   7.171  15.152  0.00  0.00    +0.000 A 
ATOM     21  C   UNL     1      48.843   8.224  16.059  0.00  0.00    +0.000 A 
ATOM     22  C   UNL     1      48.636   7.943  17.413  0.00  0.00    +0.000 A 
ATOM     23  C   UNL     1      48.546   6.624  17.838  0.00  0.00    +0.000 A 
ATOM     24  C   UNL     1      48.696   5.632  16.891  0.00  0.00    +0.000 A 
ATOM     25  N   UNL     1      48.879   5.877  15.573  0.00  0.00    +0.000 NA
ENDBRANCH  19  20
ENDBRANCH   9  19
TORSDOF 4
ENDMDL
MODEL 7
REMARK VINA RESULT:    -5.635      1.316      1.774
REMARK INTER + INTRA:          -7.770
REMARK INTER:                  -6.960
REMARK INTRA:                  -0.810
REMARK UNBOUND:                -0.817
REMARK  Name = 
REMARK  7 active torsions:
REMARK  status: ('A' for Active; 'I' for Inactive)
REMARK    1  A    between atoms: C_1  and  C_2
REMARK    2  A    between atoms: C_2  and  C_3
REMARK    3  A    between atoms: C_2  and  C_4
REMARK    4  A    between atoms: C_2  and  C_5
REMARK    5  A    between atoms: C_10  and  C_11
REMARK    6  A    between atoms: N_16  and  C_17
REMARK    7  A    between atoms: C_17  and  C_18
REMARK                            x       y       z     vdW  Elec       q    Type
REMARK                         _______ _______ _______ _____ _____    ______ ____
ROOT
ATOM      1  C   UNL     1      48.243   5.645  15.623  0.00  0.00    +0.000 A 
ATOM      2  N   UNL     1      47.785   4.431  15.354  0.00  0.00    +0.000 NA
ATOM      3  C   UNL     1      47.051   4.517  14.225  0.00  0.00    +0.000 A 
ATOM      4  N   UNL     1      46.358   3.496  13.684  0.00  0.00    +0.000 NA
ATOM      5  C   UNL     1      45.660   3.820  12.573  0.00  0.00    +0.000 A 
ATOM      6  C   UNL     1      45.628   5.076  11.967  0.00  0.00    +0.000 A 
ATOM      7  C   UNL     1      46.364   6.123  12.542  0.00  0.00    +0.000 A 
ATOM      8  C   UNL     1      47.079   5.799  13.708  0.00  0.00    +0.000 A 
ATOM      9  N   UNL     1      47.898   6.511  14.583  0.00  0.00    +0.000 N 
ENDROOT
BRANCH   6  10
ATOM     10  C   UNL     1      44.804   5.208  10.738  0.00  0.00    +0.000 C 
ATOM     11  N   UNL     1      45.422   5.492   9.550  0.00  0.00    +0.000 N 
ATOM     12  O   UNL     1      43.588   5.066  10.768  0.00  0.00    +0.000 OA
ATOM     13  H   UNL     1      46.403   5.669   9.430  0.00  0.00    +0.000 HD
ATOM     14  H   UNL     1      44.820   5.589   8.741  0.00  0.00    +0.000 HD
ENDBRANCH   6  10
BRANCH   1  16
ATOM     15  C   UNL     1      50.482   6.268  16.540  0.00  0.00    +0.000 C 
ATOM     16  C   UNL     1      49.043   5.871  16.909  0.00  0.00    +0.000 C 
ATOM     17  C   UNL     1      49.110   4.515  17.674  0.00  0.00    +0.000 C 
ATOM     18  C   UNL     1      48.455   6.881  17.898  0.00  0.00    +0.000 C 
ENDBRANCH   1  16
BRANCH   9  19
ATOM     19  C   UNL     1      48.091   7.951  14.461  0.00  0.00    +0.000 C 
BRANCH  19  20
ATOM     20  C   UNL     1      49.127   8.448  13.476  0.00  0.00    +0.000 A 
ATOM     21  C   UNL     1      50.478   8.107  13.508  0.00  0.00    +0.000 A 
ATOM     22  C   UNL     1      51.289   8.425  12.415  0.00  0.00    +0.000 A 
ATOM     23  C   UNL     1      50.747   9.091  11.324  0.00  0.00    +0.000 A 
ATOM     24  C   UNL     1      49.413   9.440  11.382  0.00  0.00    +0.000 A 
ATOM     25  N   UNL     1      48.602   9.129  12.420  0.00  0.00    +0.000 NA
ENDBRANCH  19  20
ENDBRANCH   9  19
TORSDOF 4
ENDMDL
MODEL 8
REMARK VINA RESULT:    -5.625      2.746      5.214
REMARK INTER + INTRA:          -7.758
REMARK INTER:                  -6.998
REMARK INTRA:                  -0.760
REMARK UNBOUND:                -0.817
REMARK  Name = 
REMARK  7 active torsions:
REMARK  status: ('A' for Active; 'I' for Inactive)
REMARK    1  A    between atoms: C_1  and  C_2
REMARK    2  A    between atoms: C_2  and  C_3
REMARK    3  A    between atoms: C_2  and  C_4
REMARK    4  A    between atoms: C_2  and  C_5
REMARK    5  A    between atoms: C_10  and  C_11
REMARK    6  A    between atoms: N_16  and  C_17
REMARK    7  A    between atoms: C_17  and  C_18
REMARK                            x       y       z     vdW  Elec       q    Type
REMARK                         _______ _______ _______ _____ _____    ______ ____
ROOT
ATOM      1  C   UNL     1      45.753   4.722  12.377  0.00  0.00    +0.000 A 
ATOM      2  N   UNL     1      46.086   3.580  12.959  0.00  0.00    +0.000 NA
ATOM      3  C   UNL     1      46.801   3.881  14.064  0.00  0.00    +0.000 A 
ATOM      4  N   UNL     1      47.381   2.972  14.871  0.00  0.00    +0.000 NA
ATOM      5  C   UNL     1      48.083   3.503  15.896  0.00  0.00    +0.000 A 
ATOM      6  C   UNL     1      48.224   4.863  16.172  0.00  0.00    +0.000 A 
ATOM      7  C   UNL     1      47.604   5.792  15.324  0.00  0.00    +0.000 A 
ATOM      8  C   UNL     1      46.886   5.250  14.244  0.00  0.00    +0.000 A 
ATOM      9  N   UNL     1      46.158   5.788  13.184  0.00  0.00    +0.000 N 
ENDROOT
BRANCH   6  10
ATOM     10  C   UNL     1      49.031   5.226  17.366  0.00  0.00    +0.000 C 
ATOM     11  N   UNL     1      49.700   6.421  17.378  0.00  0.00    +0.000 N 
ATOM     12  O   UNL     1      49.107   4.481  18.334  0.00  0.00    +0.000 OA
ATOM     13  H   UNL     1      49.736   7.077  16.619  0.00  0.00    +0.000 HD
ATOM     14  H   UNL     1      50.251   6.620  18.205  0.00  0.00    +0.000 HD
ENDBRANCH   6  10
BRANCH   1  16
ATOM     15  C   UNL     1      43.582   5.231  11.250  0.00  0.00    +0.000 C 
ATOM     16  C   UNL     1      45.006   4.687  11.041  0.00  0.00    +0.000 C 
ATOM     17  C   UNL     1      44.881   3.197  10.604  0.00  0.00    +0.000 C 
ATOM     18  C   UNL     1      45.680   5.412   9.875  0.00  0.00    +0.000 C 
ENDBRANCH   1  16
BRANCH   9  19
ATOM     19  C   UNL     1      46.103   7.224  12.936  0.00  0.00    +0.000 C 
BRANCH  19  20
ATOM     20  C   UNL     1      47.398   7.941  12.625  0.00  0.00    +0.000 A 
ATOM     21  C   UNL     1      48.381   7.463  11.761  0.00  0.00    +0.000 A 
ATOM     22  C   UNL     1      49.415   8.316  11.363  0.00  0.00    +0.000 A 
ATOM     23  C   UNL     1      49.461   9.618  11.845  0.00  0.00    +0.000 A 
ATOM     24  C   UNL     1      48.480  10.008  12.735  0.00  0.00    +0.000 A 
ATOM     25  N   UNL     1      47.460   9.208  13.123  0.00  0.00    +0.000 NA
ENDBRANCH  19  20
ENDBRANCH   9  19
TORSDOF 4
ENDMDL
MODEL 9
REMARK VINA RESULT:    -5.444      3.518      5.762
REMARK INTER + INTRA:          -7.534
REMARK INTER:                  -6.858
REMARK INTRA:                  -0.676
REMARK UNBOUND:                -0.817
REMARK  Name = 
REMARK  7 active torsions:
REMARK  status: ('A' for Active; 'I' for Inactive)
REMARK    1  A    between atoms: C_1  and  C_2
REMARK    2  A    between atoms: C_2  and  C_3
REMARK    3  A    between atoms: C_2  and  C_4
REMARK    4  A    between atoms: C_2  and  C_5
REMARK    5  A    between atoms: C_10  and  C_11
REMARK    6  A    between atoms: N_16  and  C_17
REMARK    7  A    between atoms: C_17  and  C_18
REMARK                            x       y       z     vdW  Elec       q    Type
REMARK                         _______ _______ _______ _____ _____    ______ ____
ROOT
ATOM      1  C   UNL     1      47.227   8.582  12.579  0.00  0.00    +0.000 A 
ATOM      2  N   UNL     1      47.136   9.868  12.276  0.00  0.00    +0.000 NA
ATOM      3  C   UNL     1      45.882  10.091  11.829  0.00  0.00    +0.000 A 
ATOM      4  N   UNL     1      45.439  11.270  11.351  0.00  0.00    +0.000 NA
ATOM      5  C   UNL     1      44.158  11.253  10.921  0.00  0.00    +0.000 A 
ATOM      6  C   UNL     1      43.300  10.154  10.955  0.00  0.00    +0.000 A 
ATOM      7  C   UNL     1      43.779   8.938  11.466  0.00  0.00    +0.000 A 
ATOM      8  C   UNL     1      45.115   8.942  11.900  0.00  0.00    +0.000 A 
ATOM      9  N   UNL     1      45.972   7.984  12.440  0.00  0.00    +0.000 N 
ENDROOT
BRANCH   6  10
ATOM     10  C   UNL     1      41.920  10.362  10.442  0.00  0.00    +0.000 C 
ATOM     11  N   UNL     1      40.877   9.731  11.065  0.00  0.00    +0.000 N 
ATOM     12  O   UNL     1      41.702  11.085   9.479  0.00  0.00    +0.000 OA
ATOM     13  H   UNL     1      40.958   9.087  11.831  0.00  0.00    +0.000 HD
ATOM     14  H   UNL     1      39.957   9.888  10.672  0.00  0.00    +0.000 HD
ENDBRANCH   6  10
BRANCH   1  16
ATOM     15  C   UNL     1      48.582   7.907  14.567  0.00  0.00    +0.000 C 
ATOM     16  C   UNL     1      48.575   8.017  13.033  0.00  0.00    +0.000 C 
ATOM     17  C   UNL     1      49.680   9.039  12.629  0.00  0.00    +0.000 C 
ATOM     18  C   UNL     1      48.990   6.683  12.408  0.00  0.00    +0.000 C 
ENDBRANCH   1  16
BRANCH   9  19
ATOM     19  C   UNL     1      45.583   6.584  12.566  0.00  0.00    +0.000 C 
BRANCH  19  20
ATOM     20  C   UNL     1      45.165   5.847  11.312  0.00  0.00    +0.000 A 
ATOM     21  C   UNL     1      45.931   5.763  10.151  0.00  0.00    +0.000 A 
ATOM     22  C   UNL     1      45.558   4.859   9.151  0.00  0.00    +0.000 A 
ATOM     23  C   UNL     1      44.425   4.074   9.317  0.00  0.00    +0.000 A 
ATOM     24  C   UNL     1      43.688   4.246  10.471  0.00  0.00    +0.000 A 
ATOM     25  N   UNL     1      44.036   5.100  11.461  0.00  0.00    +0.000 NA
ENDBRANCH  19  20
ENDBRANCH   9  19
TORSDOF 4
ENDMDL
