MODEL 1
REMARK VINA RESULT:    -7.723      0.000      0.000
REMARK INTER + INTRA:         -12.190
REMARK INTER:                 -11.109
REMARK INTRA:                  -1.081
REMARK UNBOUND:                -1.081
REMARK  Name = 
REMARK  8 active torsions:
REMARK  status: ('A' for Active; 'I' for Inactive)
REMARK    1  A    between atoms: N_1  and  C_2
REMARK    2  A    between atoms: C_2  and  C_3
REMARK    3  A    between atoms: C_2  and  C_18
REMARK    4  A    between atoms: C_3  and  C_4
REMARK    5  A    between atoms: C_7  and  C_8
REMARK    6  A    between atoms: C_8  and  C_9
REMARK    7  A    between atoms: C_9  and  N_10
REMARK    8  A    between atoms: N_10  and  C_11
REMARK                            x       y       z     vdW  Elec       q    Type
REMARK                         _______ _______ _______ _____ _____    ______ ____
ROOT
ATOM      1  C   UNL     1      47.337   7.323  13.671  0.00  0.00    +0.000 C 
ENDROOT
BRANCH   1   2
ATOM      2  C   UNL     1      46.420   6.564  12.745  0.00  0.00    +0.000 A 
ATOM      3  C   UNL     1      45.346   5.848  13.268  0.00  0.00    +0.000 A 
ATOM      4  C   UNL     1      44.521   5.110  12.429  0.00  0.00    +0.000 A 
ATOM      5  C   UNL     1      44.707   5.099  11.034  0.00  0.00    +0.000 A 
ATOM      6  C   UNL     1      45.786   5.825  10.511  0.00  0.00    +0.000 A 
ATOM      7  C   UNL     1      46.628   6.553  11.358  0.00  0.00    +0.000 A 
BRANCH   5   8
ATOM      8  C   UNL     1      43.806   4.293  10.109  0.00  0.00    +0.000 C 
BRANCH   8   9
ATOM      9  C   UNL     1      44.142   2.796  10.170  0.00  0.00    +0.000 C 
BRANCH   9  10
ATOM     10  N   UNL     1      44.366   2.102   8.900  0.00  0.00    +0.000 NA
ATOM     11  H   UNL     1      43.807   2.532   8.165  0.00  0.00    +0.000 HD
BRANCH  10  12
ATOM     12  C   UNL     1      45.759   2.262   8.526  0.00  0.00    +0.000 C 
ATOM     13  C   UNL     1      46.004   3.144   7.304  0.00  0.00    +0.000 C 
ATOM     14  C   UNL     1      47.372   2.703   6.847  0.00  0.00    +0.000 C 
ATOM     15  C   UNL     1      47.439   1.239   7.259  0.00  0.00    +0.000 C 
ATOM     16  N   UNL     1      46.243   0.976   8.071  0.00  0.00    +0.000 NA
ATOM     17  H   UNL     1      46.473   0.403   8.880  0.00  0.00    +0.000 HD
ENDBRANCH  10  12
ENDBRANCH   9  10
ENDBRANCH   8   9
ENDBRANCH   5   8
ENDBRANCH   1   2
BRANCH   1  18
ATOM     18  C   UNL     1      48.558   6.505  14.179  0.00  0.00    +0.000 C 
BRANCH  18  19
ATOM     19  C   UNL     1      48.581   6.401  15.686  0.00  0.00    +0.000 A 
ATOM     20  C   UNL     1      48.927   7.451  16.523  0.00  0.00    +0.000 A 
ATOM     21  S   UNL     1      48.986   7.002  18.171  0.00  0.00    +0.000 S 
ATOM     22  C   UNL     1      48.543   5.397  17.813  0.00  0.00    +0.000 A 
ATOM     23  N   UNL     1      48.477   4.442  18.778  0.00  0.00    +0.000 NA
ATOM     24  C   UNL     1      48.171   3.266  18.338  0.00  0.00    +0.000 A 
ATOM     25  N   UNL     1      47.877   2.963  17.034  0.00  0.00    +0.000 N 
ATOM     26  C   UNL     1      47.802   3.922  16.050  0.00  0.00    +0.000 A 
ATOM     27  O   UNL     1      47.330   3.675  14.947  0.00  0.00    +0.000 OA
ATOM     28  C   UNL     1      48.279   5.228  16.468  0.00  0.00    +0.000 A 
ATOM     29  H   UNL     1      47.579   2.038  16.769  0.00  0.00    +0.000 HD
ENDBRANCH  18  19
BRANCH  18  30
ATOM     30  N   UNL     1      49.850   7.028  13.745  0.00  0.00    +0.000 NA
ATOM     31  H   UNL     1      50.295   6.370  13.110  0.00  0.00    +0.000 HD
ATOM     32  H   UNL     1      50.460   7.119  14.562  0.00  0.00    +0.000 HD
ENDBRANCH  18  30
ENDBRANCH   1  18
TORSDOF 8
ENDMDL
MODEL 2
REMARK VINA RESULT:    -7.558      2.040      2.741
REMARK INTER + INTRA:         -11.954
REMARK INTER:                 -11.107
REMARK INTRA:                  -0.846
REMARK UNBOUND:                -1.081
REMARK  Name = 
REMARK  8 active torsions:
REMARK  status: ('A' for Active; 'I' for Inactive)
REMARK    1  A    between atoms: N_1  and  C_2
REMARK    2  A    between atoms: C_2  and  C_3
REMARK    3  A    between atoms: C_2  and  C_18
REMARK    4  A    between atoms: C_3  and  C_4
REMARK    5  A    between atoms: C_7  and  C_8
REMARK    6  A    between atoms: C_8  and  C_9
REMARK    7  A    between atoms: C_9  and  N_10
REMARK    8  A    between atoms: N_10  and  C_11
REMARK                            x       y       z     vdW  Elec       q    Type
REMARK                         _______ _______ _______ _____ _____    ______ ____
ROOT
ATOM      1  C   UNL     1      47.687   3.825  15.052  0.00  0.00    +0.000 C 
ENDROOT
BRANCH   1   2
ATOM      2  C   UNL     1      46.710   4.170  13.956  0.00  0.00    +0.000 A 
ATOM      3  C   UNL     1      46.153   3.155  13.181  0.00  0.00    +0.000 A 
ATOM      4  C   UNL     1      45.286   3.463  12.141  0.00  0.00    +0.000 A 
ATOM      5  C   UNL     1      44.906   4.790  11.865  0.00  0.00    +0.000 A 
ATOM      6  C   UNL     1      45.466   5.808  12.650  0.00  0.00    +0.000 A 
ATOM      7  C   UNL     1      46.353   5.499  13.686  0.00  0.00    +0.000 A 
BRANCH   5   8
ATOM      8  C   UNL     1      43.956   5.135  10.727  0.00  0.00    +0.000 C 
BRANCH   8   9
ATOM      9  C   UNL     1      44.209   4.243   9.502  0.00  0.00    +0.000 C 
BRANCH   9  10
ATOM     10  N   UNL     1      45.163   4.726   8.501  0.00  0.00    +0.000 NA
ATOM     11  H   UNL     1      45.985   5.114   8.962  0.00  0.00    +0.000 HD
BRANCH  10  12
ATOM     12  C   UNL     1      45.611   3.598   7.707  0.00  0.00    +0.000 C 
ATOM     13  C   UNL     1      45.865   2.314   8.493  0.00  0.00    +0.000 C 
ATOM     14  C   UNL     1      46.787   1.544   7.581  0.00  0.00    +0.000 C 
ATOM     15  C   UNL     1      47.558   2.631   6.843  0.00  0.00    +0.000 C 
ATOM     16  N   UNL     1      46.931   3.909   7.205  0.00  0.00    +0.000 NA
ATOM     17  H   UNL     1      46.843   4.512   6.389  0.00  0.00    +0.000 HD
ENDBRANCH  10  12
ENDBRANCH   9  10
ENDBRANCH   8   9
ENDBRANCH   5   8
ENDBRANCH   1   2
BRANCH   1  18
ATOM     18  C   UNL     1      47.222   4.230  16.478  0.00  0.00    +0.000 C 
BRANCH  18  19
ATOM     19  C   UNL     1      48.362   4.762  17.316  0.00  0.00    +0.000 A 
ATOM     20  C   UNL     1      48.382   6.034  17.865  0.00  0.00    +0.000 A 
ATOM     21  S   UNL     1      49.853   6.400  18.654  0.00  0.00    +0.000 S 
ATOM     22  C   UNL     1      50.498   4.865  18.292  0.00  0.00    +0.000 A 
ATOM     23  N   UNL     1      51.775   4.531  18.620  0.00  0.00    +0.000 NA
ATOM     24  C   UNL     1      52.127   3.348  18.237  0.00  0.00    +0.000 A 
ATOM     25  N   UNL     1      51.312   2.450  17.599  0.00  0.00    +0.000 N 
ATOM     26  C   UNL     1      49.979   2.696  17.367  0.00  0.00    +0.000 A 
ATOM     27  O   UNL     1      49.217   1.810  16.998  0.00  0.00    +0.000 OA
ATOM     28  C   UNL     1      49.578   4.063  17.648  0.00  0.00    +0.000 A 
ATOM     29  H   UNL     1      51.630   1.518  17.388  0.00  0.00    +0.000 HD
ENDBRANCH  18  19
BRANCH  18  30
ATOM     30  N   UNL     1      46.579   3.153  17.227  0.00  0.00    +0.000 NA
ATOM     31  H   UNL     1      45.792   2.785  16.699  0.00  0.00    +0.000 HD
ATOM     32  H   UNL     1      46.207   3.535  18.100  0.00  0.00    +0.000 HD
ENDBRANCH  18  30
ENDBRANCH   1  18
TORSDOF 8
ENDMDL
MODEL 3
REMARK VINA RESULT:    -7.054      1.614      2.192
REMARK INTER + INTRA:         -11.228
REMARK INTER:                  -9.946
REMARK INTRA:                  -1.282
REMARK UNBOUND:                -1.081
REMARK  Name = 
REMARK  8 active torsions:
REMARK  status: ('A' for Active; 'I' for Inactive)
REMARK    1  A    between atoms: N_1  and  C_2
REMARK    2  A    between atoms: C_2  and  C_3
REMARK    3  A    between atoms: C_2  and  C_18
REMARK    4  A    between atoms: C_3  and  C_4
REMARK    5  A    between atoms: C_7  and  C_8
REMARK    6  A    between atoms: C_8  and  C_9
REMARK    7  A    between atoms: C_9  and  N_10
REMARK    8  A    between atoms: N_10  and  C_11
REMARK                            x       y       z     vdW  Elec       q    Type
REMARK                         _______ _______ _______ _____ _____    ______ ____
ROOT
ATOM      1  C   UNL     1      48.631   7.514  13.285  0.00  0.00    +0.000 C 
ENDROOT
BRANCH   1   2
ATOM      2  C   UNL     1      47.320   6.780  13.157  0.00  0.00    +0.000 A 
ATOM      3  C   UNL     1      46.167   7.479  12.805  0.00  0.00    +0.000 A 
ATOM      4  C   UNL     1      44.946   6.822  12.726  0.00  0.00    +0.000 A 
ATOM      5  C   UNL     1      44.837   5.436  12.949  0.00  0.00    +0.000 A 
ATOM      6  C   UNL     1      46.001   4.736  13.298  0.00  0.00    +0.000 A 
ATOM      7  C   UNL     1      47.227   5.401  13.395  0.00  0.00    +0.000 A 
BRANCH   5   8
ATOM      8  C   UNL     1      43.503   4.710  12.864  0.00  0.00    +0.000 C 
BRANCH   8   9
ATOM      9  C   UNL     1      43.696   3.237  12.472  0.00  0.00    +0.000 C 
BRANCH   9  10
ATOM     10  N   UNL     1      43.384   2.860  11.091  0.00  0.00    +0.000 NA
ATOM     11  H   UNL     1      42.668   3.479  10.714  0.00  0.00    +0.000 HD
BRANCH  10  12
ATOM     12  C   UNL     1      44.575   3.043  10.283  0.00  0.00    +0.000 C 
ATOM     13  C   UNL     1      44.458   4.102   9.189  0.00  0.00    +0.000 C 
ATOM     14  C   UNL     1      45.551   3.706   8.227  0.00  0.00    +0.000 C 
ATOM     15  C   UNL     1      45.640   2.193   8.381  0.00  0.00    +0.000 C 
ATOM     16  N   UNL     1      44.774   1.835   9.512  0.00  0.00    +0.000 NA
ATOM     17  H   UNL     1      45.220   1.135  10.102  0.00  0.00    +0.000 HD
ENDBRANCH  10  12
ENDBRANCH   9  10
ENDBRANCH   8   9
ENDBRANCH   5   8
ENDBRANCH   1   2
BRANCH   1  18
ATOM     18  C   UNL     1      49.492   7.084  14.505  0.00  0.00    +0.000 C 
BRANCH  18  19
ATOM     19  C   UNL     1      48.922   7.595  15.808  0.00  0.00    +0.000 A 
ATOM     20  C   UNL     1      48.616   8.927  16.042  0.00  0.00    +0.000 A 
ATOM     21  S   UNL     1      48.107   9.225  17.646  0.00  0.00    +0.000 S 
ATOM     22  C   UNL     1      48.273   7.584  18.068  0.00  0.00    +0.000 A 
ATOM     23  N   UNL     1      48.063   7.147  19.338  0.00  0.00    +0.000 NA
ATOM     24  C   UNL     1      48.272   5.883  19.505  0.00  0.00    +0.000 A 
ATOM     25  N   UNL     1      48.626   5.004  18.515  0.00  0.00    +0.000 N 
ATOM     26  C   UNL     1      48.719   5.377  17.194  0.00  0.00    +0.000 A 
ATOM     27  O   UNL     1      48.820   4.547  16.299  0.00  0.00    +0.000 OA
ATOM     28  C   UNL     1      48.635   6.811  16.983  0.00  0.00    +0.000 A 
ATOM     29  H   UNL     1      48.708   4.018  18.700  0.00  0.00    +0.000 HD
ENDBRANCH  18  19
BRANCH  18  30
ATOM     30  N   UNL     1      50.888   7.506  14.430  0.00  0.00    +0.000 NA
ATOM     31  H   UNL     1      51.500   6.714  14.611  0.00  0.00    +0.000 HD
ATOM     32  H   UNL     1      51.064   8.198  15.163  0.00  0.00    +0.000 HD
ENDBRANCH  18  30
ENDBRANCH   1  18
TORSDOF 8
ENDMDL
MODEL 4
REMARK VINA RESULT:    -6.818      2.980      4.230
REMARK INTER + INTRA:         -10.889
REMARK INTER:                  -9.939
REMARK INTRA:                  -0.950
REMARK UNBOUND:                -1.081
REMARK  Name = 
REMARK  8 active torsions:
REMARK  status: ('A' for Active; 'I' for Inactive)
REMARK    1  A    between atoms: N_1  and  C_2
REMARK    2  A    between atoms: C_2  and  C_3
REMARK    3  A    between atoms: C_2  and  C_18
REMARK    4  A    between atoms: C_3  and  C_4
REMARK    5  A    between atoms: C_7  and  C_8
REMARK    6  A    between atoms: C_8  and  C_9
REMARK    7  A    between atoms: C_9  and  N_10
REMARK    8  A    between atoms: N_10  and  C_11
REMARK                            x       y       z     vdW  Elec       q    Type
REMARK                         _______ _______ _______ _____ _____    ______ ____
ROOT
ATOM      1  C   UNL     1      47.938   6.557  13.994  0.00  0.00    +0.000 C 
ENDROOT
BRANCH   1   2
ATOM      2  C   UNL     1      46.890   6.057  13.032  0.00  0.00    +0.000 A 
ATOM      3  C   UNL     1      46.253   4.842  13.273  0.00  0.00    +0.000 A 
ATOM      4  C   UNL     1      45.318   4.350  12.372  0.00  0.00    +0.000 A 
ATOM      5  C   UNL     1      44.948   5.073  11.222  0.00  0.00    +0.000 A 
ATOM      6  C   UNL     1      45.588   6.298  10.986  0.00  0.00    +0.000 A 
ATOM      7  C   UNL     1      46.543   6.785  11.884  0.00  0.00    +0.000 A 
BRANCH   5   8
ATOM      8  C   UNL     1      43.923   4.540  10.231  0.00  0.00    +0.000 C 
BRANCH   8   9
ATOM      9  C   UNL     1      44.579   3.609   9.201  0.00  0.00    +0.000 C 
BRANCH   9  10
ATOM     10  N   UNL     1      45.294   4.235   8.085  0.00  0.00    +0.000 NA
ATOM     11  H   UNL     1      46.032   4.840   8.441  0.00  0.00    +0.000 HD
BRANCH  10  12
ATOM     12  C   UNL     1      45.934   3.193   7.305  0.00  0.00    +0.000 C 
ATOM     13  C   UNL     1      46.194   1.889   8.056  0.00  0.00    +0.000 C 
ATOM     14  C   UNL     1      47.288   1.248   7.239  0.00  0.00    +0.000 C 
ATOM     15  C   UNL     1      48.052   2.433   6.663  0.00  0.00    +0.000 C 
ATOM     16  N   UNL     1      47.278   3.635   6.998  0.00  0.00    +0.000 NA
ATOM     17  H   UNL     1      47.243   4.276   6.208  0.00  0.00    +0.000 HD
ENDBRANCH  10  12
ENDBRANCH   9  10
ENDBRANCH   8   9
ENDBRANCH   5   8
ENDBRANCH   1   2
BRANCH   1  18
ATOM     18  C   UNL     1      48.198   8.088  13.922  0.00  0.00    +0.000 C 
BRANCH  18  19
ATOM     19  C   UNL     1      49.639   8.432  14.221  0.00  0.00    +0.000 A 
ATOM     20  C   UNL     1      50.111   8.723  15.491  0.00  0.00    +0.000 A 
ATOM     21  S   UNL     1      51.753   9.197  15.503  0.00  0.00    +0.000 S 
ATOM     22  C   UNL     1      51.880   9.017  13.814  0.00  0.00    +0.000 A 
ATOM     23  N   UNL     1      53.020   9.335  13.144  0.00  0.00    +0.000 NA
ATOM     24  C   UNL     1      52.940   9.185  11.863  0.00  0.00    +0.000 A 
ATOM     25  N   UNL     1      51.847   8.703  11.191  0.00  0.00    +0.000 N 
ATOM     26  C   UNL     1      50.723   8.245  11.838  0.00  0.00    +0.000 A 
ATOM     27  O   UNL     1      49.851   7.621  11.247  0.00  0.00    +0.000 OA
ATOM     28  C   UNL     1      50.712   8.529  13.263  0.00  0.00    +0.000 A 
ATOM     29  H   UNL     1      51.875   8.547  10.196  0.00  0.00    +0.000 HD
ENDBRANCH  18  19
BRANCH  18  30
ATOM     30  N   UNL     1      47.354   8.880  14.813  0.00  0.00    +0.000 NA
ATOM     31  H   UNL     1      47.342   8.464  15.740  0.00  0.00    +0.000 HD
ATOM     32  H   UNL     1      46.394   8.862  14.459  0.00  0.00    +0.000 HD
ENDBRANCH  18  30
ENDBRANCH   1  18
TORSDOF 8
ENDMDL
MODEL 5
REMARK VINA RESULT:    -6.606      2.792      8.039
REMARK INTER + INTRA:         -10.584
REMARK INTER:                  -9.448
REMARK INTRA:                  -1.136
REMARK UNBOUND:                -1.081
REMARK  Name = 
REMARK  8 active torsions:
REMARK  status: ('A' for Active; 'I' for Inactive)
REMARK    1  A    between atoms: N_1  and  C_2
REMARK    2  A    between atoms: C_2  and  C_3
REMARK    3  A    between atoms: C_2  and  C_18
REMARK    4  A    between atoms: C_3  and  C_4
REMARK    5  A    between atoms: C_7  and  C_8
REMARK    6  A    between atoms: C_8  and  C_9
REMARK    7  A    between atoms: C_9  and  N_10
REMARK    8  A    between atoms: N_10  and  C_11
REMARK                            x       y       z     vdW  Elec       q    Type
REMARK                         _______ _______ _______ _____ _____    ______ ____
ROOT
ATOM      1  C   UNL     1      46.700   6.625  11.724  0.00  0.00    +0.000 C 
ENDROOT
BRANCH   1   2
ATOM      2  C   UNL     1      47.343   7.074  13.012  0.00  0.00    +0.000 A 
ATOM      3  C   UNL     1      48.052   6.158  13.787  0.00  0.00    +0.000 A 
ATOM      4  C   UNL     1      48.611   6.550  14.997  0.00  0.00    +0.000 A 
ATOM      5  C   UNL     1      48.525   7.878  15.455  0.00  0.00    +0.000 A 
ATOM      6  C   UNL     1      47.815   8.796  14.670  0.00  0.00    +0.000 A 
ATOM      7  C   UNL     1      47.236   8.398  13.460  0.00  0.00    +0.000 A 
BRANCH   5   8
ATOM      8  C   UNL     1      49.136   8.313  16.779  0.00  0.00    +0.000 C 
BRANCH   8   9
ATOM      9  C   UNL     1      49.078   7.182  17.816  0.00  0.00    +0.000 C 
BRANCH   9  10
ATOM     10  N   UNL     1      47.757   6.795  18.319  0.00  0.00    +0.000 NA
ATOM     11  H   UNL     1      47.041   7.029  17.633  0.00  0.00    +0.000 HD
BRANCH  10  12
ATOM     12  C   UNL     1      47.731   5.355  18.490  0.00  0.00    +0.000 C 
ATOM     13  C   UNL     1      49.039   4.641  18.158  0.00  0.00    +0.000 C 
ATOM     14  C   UNL     1      48.587   3.225  17.897  0.00  0.00    +0.000 C 
ATOM     15  C   UNL     1      47.176   3.390  17.346  0.00  0.00    +0.000 C 
ATOM     16  N   UNL     1      46.831   4.810  17.497  0.00  0.00    +0.000 NA
ATOM     17  H   UNL     1      45.872   4.917  17.824  0.00  0.00    +0.000 HD
ENDBRANCH  10  12
ENDBRANCH   9  10
ENDBRANCH   8   9
ENDBRANCH   5   8
ENDBRANCH   1   2
BRANCH   1  18
ATOM     18  C   UNL     1      45.146   6.596  11.756  0.00  0.00    +0.000 C 
BRANCH  18  19
ATOM     19  C   UNL     1      44.602   5.204  11.530  0.00  0.00    +0.000 A 
ATOM     20  C   UNL     1      43.794   4.539  12.439  0.00  0.00    +0.000 A 
ATOM     21  S   UNL     1      43.436   2.935  11.970  0.00  0.00    +0.000 S 
ATOM     22  C   UNL     1      44.343   3.089  10.536  0.00  0.00    +0.000 A 
ATOM     23  N   UNL     1      44.519   2.043   9.686  0.00  0.00    +0.000 NA
ATOM     24  C   UNL     1      45.268   2.309   8.667  0.00  0.00    +0.000 A 
ATOM     25  N   UNL     1      45.820   3.533   8.391  0.00  0.00    +0.000 N 
ATOM     26  C   UNL     1      45.559   4.650   9.151  0.00  0.00    +0.000 A 
ATOM     27  O   UNL     1      45.877   5.771   8.774  0.00  0.00    +0.000 OA
ATOM     28  C   UNL     1      44.844   4.366  10.382  0.00  0.00    +0.000 A 
ATOM     29  H   UNL     1      46.339   3.690   7.543  0.00  0.00    +0.000 HD
ENDBRANCH  18  19
BRANCH  18  30
ATOM     30  N   UNL     1      44.511   7.489  10.791  0.00  0.00    +0.000 NA
ATOM     31  H   UNL     1      43.963   6.948  10.126  0.00  0.00    +0.000 HD
ATOM     32  H   UNL     1      45.240   7.973  10.261  0.00  0.00    +0.000 HD
ENDBRANCH  18  30
ENDBRANCH   1  18
TORSDOF 8
ENDMDL
MODEL 6
REMARK VINA RESULT:    -6.547      3.041      7.787
REMARK INTER + INTRA:         -10.498
REMARK INTER:                  -9.222
REMARK INTRA:                  -1.276
REMARK UNBOUND:                -1.081
REMARK  Name = 
REMARK  8 active torsions:
REMARK  status: ('A' for Active; 'I' for Inactive)
REMARK    1  A    between atoms: N_1  and  C_2
REMARK    2  A    between atoms: C_2  and  C_3
REMARK    3  A    between atoms: C_2  and  C_18
REMARK    4  A    between atoms: C_3  and  C_4
REMARK    5  A    between atoms: C_7  and  C_8
REMARK    6  A    between atoms: C_8  and  C_9
REMARK    7  A    between atoms: C_9  and  N_10
REMARK    8  A    between atoms: N_10  and  C_11
REMARK                            x       y       z     vdW  Elec       q    Type
REMARK                         _______ _______ _______ _____ _____    ______ ____
ROOT
ATOM      1  C   UNL     1      47.498   7.165  11.544  0.00  0.00    +0.000 C 
ENDROOT
BRANCH   1   2
ATOM      2  C   UNL     1      48.328   7.165  12.802  0.00  0.00    +0.000 A 
ATOM      3  C   UNL     1      49.581   7.775  12.805  0.00  0.00    +0.000 A 
ATOM      4  C   UNL     1      50.373   7.744  13.946  0.00  0.00    +0.000 A 
ATOM      5  C   UNL     1      49.926   7.146  15.139  0.00  0.00    +0.000 A 
ATOM      6  C   UNL     1      48.663   6.538  15.133  0.00  0.00    +0.000 A 
ATOM      7  C   UNL     1      47.873   6.553  13.979  0.00  0.00    +0.000 A 
BRANCH   5   8
ATOM      8  C   UNL     1      50.788   7.109  16.392  0.00  0.00    +0.000 C 
BRANCH   8   9
ATOM      9  C   UNL     1      50.772   5.715  17.037  0.00  0.00    +0.000 C 
BRANCH   9  10
ATOM     10  N   UNL     1      50.177   5.595  18.370  0.00  0.00    +0.000 NA
ATOM     11  H   UNL     1      49.668   6.447  18.602  0.00  0.00    +0.000 HD
BRANCH  10  12
ATOM     12  C   UNL     1      49.210   4.514  18.348  0.00  0.00    +0.000 C 
ATOM     13  C   UNL     1      49.454   3.449  17.281  0.00  0.00    +0.000 C 
ATOM     14  C   UNL     1      48.095   2.812  17.132  0.00  0.00    +0.000 C 
ATOM     15  C   UNL     1      47.127   3.944  17.448  0.00  0.00    +0.000 C 
ATOM     16  N   UNL     1      47.939   5.067  17.935  0.00  0.00    +0.000 NA
ATOM     17  H   UNL     1      47.496   5.515  18.735  0.00  0.00    +0.000 HD
ENDBRANCH  10  12
ENDBRANCH   9  10
ENDBRANCH   8   9
ENDBRANCH   5   8
ENDBRANCH   1   2
BRANCH   1  18
ATOM     18  C   UNL     1      45.997   6.826  11.763  0.00  0.00    +0.000 C 
BRANCH  18  19
ATOM     19  C   UNL     1      45.555   5.648  10.926  0.00  0.00    +0.000 A 
ATOM     20  C   UNL     1      45.718   5.580   9.551  0.00  0.00    +0.000 A 
ATOM     21  S   UNL     1      45.009   4.186   8.861  0.00  0.00    +0.000 S 
ATOM     22  C   UNL     1      44.473   3.632  10.380  0.00  0.00    +0.000 A 
ATOM     23  N   UNL     1      43.720   2.508  10.506  0.00  0.00    +0.000 NA
ATOM     24  C   UNL     1      43.357   2.247  11.718  0.00  0.00    +0.000 A 
ATOM     25  N   UNL     1      43.713   2.976  12.823  0.00  0.00    +0.000 N 
ATOM     26  C   UNL     1      44.581   4.042  12.758  0.00  0.00    +0.000 A 
ATOM     27  O   UNL     1      45.058   4.544  13.768  0.00  0.00    +0.000 OA
ATOM     28  C   UNL     1      44.896   4.458  11.403  0.00  0.00    +0.000 A 
ATOM     29  H   UNL     1      43.451   2.680  13.749  0.00  0.00    +0.000 HD
ENDBRANCH  18  19
BRANCH  18  30
ATOM     30  N   UNL     1      45.087   7.935  11.493  0.00  0.00    +0.000 NA
ATOM     31  H   UNL     1      44.385   7.995  12.226  0.00  0.00    +0.000 HD
ATOM     32  H   UNL     1      44.594   7.751  10.616  0.00  0.00    +0.000 HD
ENDBRANCH  18  30
ENDBRANCH   1  18
TORSDOF 8
ENDMDL
MODEL 7
REMARK VINA RESULT:    -6.537      2.198      3.267
REMARK INTER + INTRA:         -10.484
REMARK INTER:                  -9.594
REMARK INTRA:                  -0.891
REMARK UNBOUND:                -1.081
REMARK  Name = 
REMARK  8 active torsions:
REMARK  status: ('A' for Active; 'I' for Inactive)
REMARK    1  A    between atoms: N_1  and  C_2
REMARK    2  A    between atoms: C_2  and  C_3
REMARK    3  A    between atoms: C_2  and  C_18
REMARK    4  A    between atoms: C_3  and  C_4
REMARK    5  A    between atoms: C_7  and  C_8
REMARK    6  A    between atoms: C_8  and  C_9
REMARK    7  A    between atoms: C_9  and  N_10
REMARK    8  A    between atoms: N_10  and  C_11
REMARK                            x       y       z     vdW  Elec       q    Type
REMARK                         _______ _______ _______ _____ _____    ______ ____
ROOT
ATOM      1  C   UNL     1      47.530   3.728  15.441  0.00  0.00    +0.000 C 
ENDROOT
BRANCH   1   2
ATOM      2  C   UNL     1      46.767   4.129  14.203  0.00  0.00    +0.000 A 
ATOM      3  C   UNL     1      46.501   5.474  13.959  0.00  0.00    +0.000 A 
ATOM      4  C   UNL     1      45.762   5.852  12.845  0.00  0.00    +0.000 A 
ATOM      5  C   UNL     1      45.302   4.907  11.909  0.00  0.00    +0.000 A 
ATOM      6  C   UNL     1      45.576   3.554  12.156  0.00  0.00    +0.000 A 
ATOM      7  C   UNL     1      46.304   3.172  13.287  0.00  0.00    +0.000 A 
BRANCH   5   8
ATOM      8  C   UNL     1      44.493   5.314  10.687  0.00  0.00    +0.000 C 
BRANCH   8   9
ATOM      9  C   UNL     1      44.694   4.322   9.531  0.00  0.00    +0.000 C 
BRANCH   9  10
ATOM     10  N   UNL     1      45.642   4.696   8.479  0.00  0.00    +0.000 NA
ATOM     11  H   UNL     1      46.565   4.850   8.881  0.00  0.00    +0.000 HD
BRANCH  10  12
ATOM     12  C   UNL     1      45.760   3.588   7.550  0.00  0.00    +0.000 C 
ATOM     13  C   UNL     1      46.380   2.319   8.131  0.00  0.00    +0.000 C 
ATOM     14  C   UNL     1      46.861   1.592   6.900  0.00  0.00    +0.000 C 
ATOM     15  C   UNL     1      47.198   2.713   5.925  0.00  0.00    +0.000 C 
ATOM     16  N   UNL     1      46.728   3.960   6.541  0.00  0.00    +0.000 NA
ATOM     17  H   UNL     1      46.276   4.557   5.851  0.00  0.00    +0.000 HD
ENDBRANCH  10  12
ENDBRANCH   9  10
ENDBRANCH   8   9
ENDBRANCH   5   8
ENDBRANCH   1   2
BRANCH   1  18
ATOM     18  C   UNL     1      47.685   4.860  16.494  0.00  0.00    +0.000 C 
BRANCH  18  19
ATOM     19  C   UNL     1      49.068   4.880  17.103  0.00  0.00    +0.000 A 
ATOM     20  C   UNL     1      49.466   4.043  18.134  0.00  0.00    +0.000 A 
ATOM     21  S   UNL     1      51.043   4.380  18.700  0.00  0.00    +0.000 S 
ATOM     22  C   UNL     1      51.240   5.646  17.578  0.00  0.00    +0.000 A 
ATOM     23  N   UNL     1      52.357   6.422  17.565  0.00  0.00    +0.000 NA
ATOM     24  C   UNL     1      52.334   7.367  16.684  0.00  0.00    +0.000 A 
ATOM     25  N   UNL     1      51.324   7.583  15.783  0.00  0.00    +0.000 N 
ATOM     26  C   UNL     1      50.239   6.743  15.673  0.00  0.00    +0.000 A 
ATOM     27  O   UNL     1      49.461   6.820  14.730  0.00  0.00    +0.000 OA
ATOM     28  C   UNL     1      50.152   5.757  16.736  0.00  0.00    +0.000 A 
ATOM     29  H   UNL     1      51.399   8.297  15.077  0.00  0.00    +0.000 HD
ENDBRANCH  18  19
BRANCH  18  30
ATOM     30  N   UNL     1      46.716   4.799  17.585  0.00  0.00    +0.000 NA
ATOM     31  H   UNL     1      47.066   4.199  18.328  0.00  0.00    +0.000 HD
ATOM     32  H   UNL     1      45.852   4.376  17.235  0.00  0.00    +0.000 HD
ENDBRANCH  18  30
ENDBRANCH   1  18
TORSDOF 8
ENDMDL
MODEL 8
REMARK VINA RESULT:    -6.398      3.262      8.242
REMARK INTER + INTRA:         -10.285
REMARK INTER:                  -9.600
REMARK INTRA:                  -0.685
REMARK UNBOUND:                -1.081
REMARK  Name = 
REMARK  8 active torsions:
REMARK  status: ('A' for Active; 'I' for Inactive)
REMARK    1  A    between atoms: N_1  and  C_2
REMARK    2  A    between atoms: C_2  and  C_3
REMARK    3  A    between atoms: C_2  and  C_18
REMARK    4  A    between atoms: C_3  and  C_4
REMARK    5  A    between atoms: C_7  and  C_8
REMARK    6  A    between atoms: C_8  and  C_9
REMARK    7  A    between atoms: C_9  and  N_10
REMARK    8  A    between atoms: N_10  and  C_11
REMARK                            x       y       z     vdW  Elec       q    Type
REMARK                         _______ _______ _______ _____ _____    ______ ____
ROOT
ATOM      1  C   UNL     1      46.708   6.368  11.870  0.00  0.00    +0.000 C 
ENDROOT
BRANCH   1   2
ATOM      2  C   UNL     1      47.268   6.159  13.254  0.00  0.00    +0.000 A 
ATOM      3  C   UNL     1      48.153   7.092  13.791  0.00  0.00    +0.000 A 
ATOM      4  C   UNL     1      48.709   6.889  15.047  0.00  0.00    +0.000 A 
ATOM      5  C   UNL     1      48.369   5.772  15.834  0.00  0.00    +0.000 A 
ATOM      6  C   UNL     1      47.475   4.838  15.292  0.00  0.00    +0.000 A 
ATOM      7  C   UNL     1      46.928   5.033  14.020  0.00  0.00    +0.000 A 
BRANCH   5   8
ATOM      8  C   UNL     1      48.974   5.543  17.211  0.00  0.00    +0.000 C 
BRANCH   8   9
ATOM      9  C   UNL     1      48.946   4.055  17.590  0.00  0.00    +0.000 C 
BRANCH   9  10
ATOM     10  N   UNL     1      49.954   3.184  16.979  0.00  0.00    +0.000 NA
ATOM     11  H   UNL     1      50.330   3.623  16.141  0.00  0.00    +0.000 HD
BRANCH  10  12
ATOM     12  C   UNL     1      51.055   3.028  17.911  0.00  0.00    +0.000 C 
ATOM     13  C   UNL     1      52.221   3.991  17.701  0.00  0.00    +0.000 C 
ATOM     14  C   UNL     1      53.363   3.282  18.387  0.00  0.00    +0.000 C 
ATOM     15  C   UNL     1      53.026   1.806  18.220  0.00  0.00    +0.000 C 
ATOM     16  N   UNL     1      51.673   1.746  17.651  0.00  0.00    +0.000 NA
ATOM     17  H   UNL     1      51.123   1.015  18.100  0.00  0.00    +0.000 HD
ENDBRANCH  10  12
ENDBRANCH   9  10
ENDBRANCH   8   9
ENDBRANCH   5   8
ENDBRANCH   1   2
BRANCH   1  18
ATOM     18  C   UNL     1      45.155   6.385  11.802  0.00  0.00    +0.000 C 
BRANCH  18  19
ATOM     19  C   UNL     1      44.587   5.021  11.487  0.00  0.00    +0.000 A 
ATOM     20  C   UNL     1      43.732   4.332  12.334  0.00  0.00    +0.000 A 
ATOM     21  S   UNL     1      43.356   2.762  11.772  0.00  0.00    +0.000 S 
ATOM     22  C   UNL     1      44.315   2.964  10.380  0.00  0.00    +0.000 A 
ATOM     23  N   UNL     1      44.497   1.957   9.485  0.00  0.00    +0.000 NA
ATOM     24  C   UNL     1      45.288   2.255   8.507  0.00  0.00    +0.000 A 
ATOM     25  N   UNL     1      45.877   3.477   8.312  0.00  0.00    +0.000 N 
ATOM     26  C   UNL     1      45.615   4.561   9.118  0.00  0.00    +0.000 A 
ATOM     27  O   UNL     1      45.972   5.691   8.809  0.00  0.00    +0.000 OA
ATOM     28  C   UNL     1      44.850   4.235  10.308  0.00  0.00    +0.000 A 
ATOM     29  H   UNL     1      46.430   3.663   7.491  0.00  0.00    +0.000 HD
ENDBRANCH  18  19
BRANCH  18  30
ATOM     30  N   UNL     1      44.610   7.332  10.833  0.00  0.00    +0.000 NA
ATOM     31  H   UNL     1      43.597   7.247  10.796  0.00  0.00    +0.000 HD
ATOM     32  H   UNL     1      44.967   7.096   9.904  0.00  0.00    +0.000 HD
ENDBRANCH  18  30
ENDBRANCH   1  18
TORSDOF 8
ENDMDL
MODEL 9
REMARK VINA RESULT:    -6.127      2.698      3.469
REMARK INTER + INTRA:          -9.895
REMARK INTER:                  -9.163
REMARK INTRA:                  -0.732
REMARK UNBOUND:                -1.081
REMARK  Name = 
REMARK  8 active torsions:
REMARK  status: ('A' for Active; 'I' for Inactive)
REMARK    1  A    between atoms: N_1  and  C_2
REMARK    2  A    between atoms: C_2  and  C_3
REMARK    3  A    between atoms: C_2  and  C_18
REMARK    4  A    between atoms: C_3  and  C_4
REMARK    5  A    between atoms: C_7  and  C_8
REMARK    6  A    between atoms: C_8  and  C_9
REMARK    7  A    between atoms: C_9  and  N_10
REMARK    8  A    between atoms: N_10  and  C_11
REMARK                            x       y       z     vdW  Elec       q    Type
REMARK                         _______ _______ _______ _____ _____    ______ ____
ROOT
ATOM      1  C   UNL     1      49.707   7.483  14.968  0.00  0.00    +0.000 C 
ENDROOT
BRANCH   1   2
ATOM      2  C   UNL     1      48.451   7.295  14.155  0.00  0.00    +0.000 A 
ATOM      3  C   UNL     1      48.054   6.013  13.780  0.00  0.00    +0.000 A 
ATOM      4  C   UNL     1      46.923   5.831  12.995  0.00  0.00    +0.000 A 
ATOM      5  C   UNL     1      46.119   6.915  12.595  0.00  0.00    +0.000 A 
ATOM      6  C   UNL     1      46.519   8.203  12.978  0.00  0.00    +0.000 A 
ATOM      7  C   UNL     1      47.668   8.388  13.753  0.00  0.00    +0.000 A 
BRANCH   5   8
ATOM      8  C   UNL     1      44.879   6.722  11.735  0.00  0.00    +0.000 C 
BRANCH   8   9
ATOM      9  C   UNL     1      45.085   5.601  10.705  0.00  0.00    +0.000 C 
BRANCH   9  10
ATOM     10  N   UNL     1      43.887   5.010  10.104  0.00  0.00    +0.000 NA
ATOM     11  H   UNL     1      43.327   5.735   9.658  0.00  0.00    +0.000 HD
BRANCH  10  12
ATOM     12  C   UNL     1      44.301   4.089   9.062  0.00  0.00    +0.000 C 
ATOM     13  C   UNL     1      44.932   2.791   9.559  0.00  0.00    +0.000 C 
ATOM     14  C   UNL     1      45.717   2.322   8.359  0.00  0.00    +0.000 C 
ATOM     15  C   UNL     1      46.110   3.615   7.655  0.00  0.00    +0.000 C 
ATOM     16  N   UNL     1      45.398   4.700   8.343  0.00  0.00    +0.000 NA
ATOM     17  H   UNL     1      45.023   5.370   7.673  0.00  0.00    +0.000 HD
ENDBRANCH  10  12
ENDBRANCH   9  10
ENDBRANCH   8   9
ENDBRANCH   5   8
ENDBRANCH   1   2
BRANCH   1  18
ATOM     18  C   UNL     1      49.520   7.276  16.497  0.00  0.00    +0.000 C 
BRANCH  18  19
ATOM     19  C   UNL     1      49.762   5.843  16.908  0.00  0.00    +0.000 A 
ATOM     20  C   UNL     1      48.746   4.924  17.124  0.00  0.00    +0.000 A 
ATOM     21  S   UNL     1      49.315   3.420  17.702  0.00  0.00    +0.000 S 
ATOM     22  C   UNL     1      50.933   3.951  17.669  0.00  0.00    +0.000 A 
ATOM     23  N   UNL     1      51.951   3.168  18.114  0.00  0.00    +0.000 NA
ATOM     24  C   UNL     1      53.113   3.732  18.065  0.00  0.00    +0.000 A 
ATOM     25  N   UNL     1      53.362   4.985  17.570  0.00  0.00    +0.000 N 
ATOM     26  C   UNL     1      52.383   5.758  16.988  0.00  0.00    +0.000 A 
ATOM     27  O   UNL     1      52.656   6.773  16.360  0.00  0.00    +0.000 OA
ATOM     28  C   UNL     1      51.042   5.227  17.153  0.00  0.00    +0.000 A 
ATOM     29  H   UNL     1      54.301   5.340  17.498  0.00  0.00    +0.000 HD
ENDBRANCH  18  19
BRANCH  18  30
ATOM     30  N   UNL     1      48.206   7.671  16.998  0.00  0.00    +0.000 NA
ATOM     31  H   UNL     1      47.952   8.583  16.625  0.00  0.00    +0.000 HD
ATOM     32  H   UNL     1      48.256   7.763  18.016  0.00  0.00    +0.000 HD
ENDBRANCH  18  30
ENDBRANCH   1  18
TORSDOF 8
ENDMDL
