MODEL 1
REMARK VINA RESULT:    -8.321      0.000      0.000
REMARK INTER + INTRA:         -13.107
REMARK INTER:                 -11.726
REMARK INTRA:                  -1.381
REMARK UNBOUND:                -1.381
REMARK  Name = 
REMARK  8 active torsions:
REMARK  status: ('A' for Active; 'I' for Inactive)
REMARK    1  A    between atoms: C_1  and  C_2
REMARK    2  A    between atoms: C_2  and  N_3
REMARK    3  A    between atoms: C_2  and  C_16
REMARK    4  A    between atoms: C_4  and  C_6
REMARK    5  A    between atoms: C_19  and  C_20
REMARK    6  A    between atoms: C_20  and  O_21
REMARK    7  A    between atoms: O_21  and  C_22
REMARK    8  A    between atoms: C_22  and  C_23
REMARK                            x       y       z     vdW  Elec       q    Type
REMARK                         _______ _______ _______ _____ _____    ______ ____
ROOT
ATOM      1  C   UNL     1      48.078   8.194  12.704  0.00  0.00    +0.000 C 
ATOM      2  C   UNL     1      48.088   6.765  13.260  0.00  0.00    +0.000 C 
ENDROOT
BRANCH   2   3
ATOM      3  C   UNL     1      46.968   5.941  12.651  0.00  0.00    +0.000 A 
ATOM      4  C   UNL     1      46.395   6.316  11.428  0.00  0.00    +0.000 A 
ATOM      5  C   UNL     1      45.344   5.575  10.880  0.00  0.00    +0.000 A 
ATOM      6  C   UNL     1      44.849   4.442  11.540  0.00  0.00    +0.000 A 
ATOM      7  C   UNL     1      45.450   4.044  12.738  0.00  0.00    +0.000 A 
ATOM      8  C   UNL     1      46.493   4.784  13.288  0.00  0.00    +0.000 A 
BRANCH   6   9
ATOM      9  C   UNL     1      43.661   3.684  11.011  0.00  0.00    +0.000 C 
BRANCH   9  10
ATOM     10  O   UNL     1      43.857   3.358   9.640  0.00  0.00    +0.000 OA
BRANCH  10  11
ATOM     11  C   UNL     1      44.577   2.134   9.505  0.00  0.00    +0.000 C 
BRANCH  11  12
ATOM     12  C   UNL     1      45.617   2.257   8.424  0.00  0.00    +0.000 A 
ATOM     13  C   UNL     1      45.857   3.490   7.812  0.00  0.00    +0.000 A 
ATOM     14  C   UNL     1      46.843   3.570   6.840  0.00  0.00    +0.000 A 
ATOM     15  N   UNL     1      47.602   2.524   6.450  0.00  0.00    +0.000 NA
ATOM     16  C   UNL     1      47.363   1.345   7.062  0.00  0.00    +0.000 A 
ATOM     17  C   UNL     1      46.404   1.167   8.044  0.00  0.00    +0.000 A 
ENDBRANCH  11  12
ENDBRANCH  10  11
ENDBRANCH   9  10
ENDBRANCH   6   9
ENDBRANCH   2   3
BRANCH   2  18
ATOM     18  N   UNL     1      47.969   6.761  14.707  0.00  0.00    +0.000 N 
ATOM     19  C   UNL     1      49.050   6.732  15.544  0.00  0.00    +0.000 C 
ATOM     20  O   UNL     1      50.204   6.717  15.126  0.00  0.00    +0.000 OA
ATOM     21  H   UNL     1      47.040   6.609  15.088  0.00  0.00    +0.000 HD
BRANCH  19  22
ATOM     22  C   UNL     1      48.760   6.774  16.983  0.00  0.00    +0.000 A 
ATOM     23  C   UNL     1      48.454   7.985  17.589  0.00  0.00    +0.000 A 
ATOM     24  S   UNL     1      48.140   7.854  19.259  0.00  0.00    +0.000 S 
ATOM     25  C   UNL     1      48.440   6.182  19.243  0.00  0.00    +0.000 A 
ATOM     26  N   UNL     1      48.376   5.446  20.386  0.00  0.00    +0.000 NA
ATOM     27  C   UNL     1      48.670   4.198  20.237  0.00  0.00    +0.000 A 
ATOM     28  N   UNL     1      49.001   3.612  19.041  0.00  0.00    +0.000 N 
ATOM     29  C   UNL     1      48.998   4.300  17.847  0.00  0.00    +0.000 A 
ATOM     30  O   UNL     1      49.180   3.720  16.782  0.00  0.00    +0.000 OA
ATOM     31  C   UNL     1      48.742   5.721  17.973  0.00  0.00    +0.000 A 
ATOM     32  H   UNL     1      49.185   2.622  18.983  0.00  0.00    +0.000 HD
ENDBRANCH  19  22
ENDBRANCH   2  18
TORSDOF 7
ENDMDL
MODEL 2
REMARK VINA RESULT:    -7.441      2.654      4.449
REMARK INTER + INTRA:         -11.866
REMARK INTER:                 -10.448
REMARK INTRA:                  -1.419
REMARK UNBOUND:                -1.381
REMARK  Name = 
REMARK  8 active torsions:
REMARK  status: ('A' for Active; 'I' for Inactive)
REMARK    1  A    between atoms: C_1  and  C_2
REMARK    2  A    between atoms: C_2  and  N_3
REMARK    3  A    between atoms: C_2  and  C_16
REMARK    4  A    between atoms: C_4  and  C_6
REMARK    5  A    between atoms: C_19  and  C_20
REMARK    6  A    between atoms: C_20  and  O_21
REMARK    7  A    between atoms: O_21  and  C_22
REMARK    8  A    between atoms: C_22  and  C_23
REMARK                            x       y       z     vdW  Elec       q    Type
REMARK                         _______ _______ _______ _____ _____    ______ ____
ROOT
ATOM      1  C   UNL     1      47.521   3.854  15.512  0.00  0.00    +0.000 C 
ATOM      2  C   UNL     1      47.170   5.185  14.836  0.00  0.00    +0.000 C 
ENDROOT
BRANCH   2   3
ATOM      3  C   UNL     1      46.288   4.957  13.622  0.00  0.00    +0.000 A 
ATOM      4  C   UNL     1      45.746   6.045  12.922  0.00  0.00    +0.000 A 
ATOM      5  C   UNL     1      44.911   5.835  11.821  0.00  0.00    +0.000 A 
ATOM      6  C   UNL     1      44.604   4.536  11.394  0.00  0.00    +0.000 A 
ATOM      7  C   UNL     1      45.180   3.452  12.066  0.00  0.00    +0.000 A 
ATOM      8  C   UNL     1      46.008   3.659  13.166  0.00  0.00    +0.000 A 
BRANCH   6   9
ATOM      9  C   UNL     1      43.637   4.290  10.267  0.00  0.00    +0.000 C 
BRANCH   9  10
ATOM     10  O   UNL     1      44.177   3.342   9.355  0.00  0.00    +0.000 OA
BRANCH  10  11
ATOM     11  C   UNL     1      45.007   3.982   8.387  0.00  0.00    +0.000 C 
BRANCH  11  12
ATOM     12  C   UNL     1      45.962   2.989   7.782  0.00  0.00    +0.000 A 
ATOM     13  C   UNL     1      46.852   3.384   6.780  0.00  0.00    +0.000 A 
ATOM     14  C   UNL     1      47.737   2.448   6.267  0.00  0.00    +0.000 A 
ATOM     15  N   UNL     1      47.803   1.167   6.686  0.00  0.00    +0.000 NA
ATOM     16  C   UNL     1      46.945   0.808   7.664  0.00  0.00    +0.000 A 
ATOM     17  C   UNL     1      46.028   1.671   8.240  0.00  0.00    +0.000 A 
ENDBRANCH  11  12
ENDBRANCH  10  11
ENDBRANCH   9  10
ENDBRANCH   6   9
ENDBRANCH   2   3
BRANCH   2  18
ATOM     18  N   UNL     1      48.365   5.909  14.444  0.00  0.00    +0.000 N 
ATOM     19  C   UNL     1      48.959   6.853  15.237  0.00  0.00    +0.000 C 
ATOM     20  O   UNL     1      48.522   7.148  16.345  0.00  0.00    +0.000 OA
ATOM     21  H   UNL     1      48.660   5.814  13.477  0.00  0.00    +0.000 HD
BRANCH  19  22
ATOM     22  C   UNL     1      50.186   7.466  14.712  0.00  0.00    +0.000 A 
ATOM     23  C   UNL     1      51.344   7.447  15.476  0.00  0.00    +0.000 A 
ATOM     24  S   UNL     1      52.676   8.196  14.718  0.00  0.00    +0.000 S 
ATOM     25  C   UNL     1      51.743   8.607  13.359  0.00  0.00    +0.000 A 
ATOM     26  N   UNL     1      52.281   9.309  12.325  0.00  0.00    +0.000 NA
ATOM     27  C   UNL     1      51.450   9.592  11.379  0.00  0.00    +0.000 A 
ATOM     28  N   UNL     1      50.130   9.215  11.362  0.00  0.00    +0.000 N 
ATOM     29  C   UNL     1      49.565   8.433  12.346  0.00  0.00    +0.000 A 
ATOM     30  O   UNL     1      48.418   8.014  12.239  0.00  0.00    +0.000 OA
ATOM     31  C   UNL     1      50.441   8.149  13.465  0.00  0.00    +0.000 A 
ATOM     32  H   UNL     1      49.539   9.434  10.574  0.00  0.00    +0.000 HD
ENDBRANCH  19  22
ENDBRANCH   2  18
TORSDOF 7
ENDMDL
MODEL 3
REMARK VINA RESULT:    -7.344      3.436      8.091
REMARK INTER + INTRA:         -11.730
REMARK INTER:                 -10.133
REMARK INTRA:                  -1.597
REMARK UNBOUND:                -1.381
REMARK  Name = 
REMARK  8 active torsions:
REMARK  status: ('A' for Active; 'I' for Inactive)
REMARK    1  A    between atoms: C_1  and  C_2
REMARK    2  A    between atoms: C_2  and  N_3
REMARK    3  A    between atoms: C_2  and  C_16
REMARK    4  A    between atoms: C_4  and  C_6
REMARK    5  A    between atoms: C_19  and  C_20
REMARK    6  A    between atoms: C_20  and  O_21
REMARK    7  A    between atoms: O_21  and  C_22
REMARK    8  A    between atoms: C_22  and  C_23
REMARK                            x       y       z     vdW  Elec       q    Type
REMARK                         _______ _______ _______ _____ _____    ______ ____
ROOT
ATOM      1  C   UNL     1      49.578   8.363  11.449  0.00  0.00    +0.000 C 
ATOM      2  C   UNL     1      48.243   8.146  12.172  0.00  0.00    +0.000 C 
ENDROOT
BRANCH   2   3
ATOM      3  C   UNL     1      48.462   7.950  13.661  0.00  0.00    +0.000 A 
ATOM      4  C   UNL     1      49.100   6.797  14.141  0.00  0.00    +0.000 A 
ATOM      5  C   UNL     1      49.277   6.602  15.513  0.00  0.00    +0.000 A 
ATOM      6  C   UNL     1      48.825   7.558  16.434  0.00  0.00    +0.000 A 
ATOM      7  C   UNL     1      48.228   8.728  15.953  0.00  0.00    +0.000 A 
ATOM      8  C   UNL     1      48.046   8.921  14.586  0.00  0.00    +0.000 A 
BRANCH   6   9
ATOM      9  C   UNL     1      48.927   7.324  17.918  0.00  0.00    +0.000 C 
BRANCH   9  10
ATOM     10  O   UNL     1      48.179   6.172  18.285  0.00  0.00    +0.000 OA
BRANCH  10  11
ATOM     11  C   UNL     1      49.023   5.180  18.868  0.00  0.00    +0.000 C 
BRANCH  11  12
ATOM     12  C   UNL     1      49.176   4.011  17.933  0.00  0.00    +0.000 A 
ATOM     13  C   UNL     1      50.392   3.329  17.847  0.00  0.00    +0.000 A 
ATOM     14  C   UNL     1      50.486   2.238  16.996  0.00  0.00    +0.000 A 
ATOM     15  N   UNL     1      49.463   1.781  16.244  0.00  0.00    +0.000 NA
ATOM     16  C   UNL     1      48.293   2.446  16.350  0.00  0.00    +0.000 A 
ATOM     17  C   UNL     1      48.101   3.542  17.173  0.00  0.00    +0.000 A 
ENDBRANCH  11  12
ENDBRANCH  10  11
ENDBRANCH   9  10
ENDBRANCH   6   9
ENDBRANCH   2   3
BRANCH   2  18
ATOM     18  N   UNL     1      47.529   7.006  11.628  0.00  0.00    +0.000 N 
ATOM     19  C   UNL     1      46.177   7.004  11.419  0.00  0.00    +0.000 C 
ATOM     20  O   UNL     1      45.472   7.977  11.671  0.00  0.00    +0.000 OA
ATOM     21  H   UNL     1      48.044   6.134  11.561  0.00  0.00    +0.000 HD
BRANCH  19  22
ATOM     22  C   UNL     1      45.611   5.786  10.824  0.00  0.00    +0.000 A 
ATOM     23  C   UNL     1      45.778   5.542   9.468  0.00  0.00    +0.000 A 
ATOM     24  S   UNL     1      45.065   4.085   8.942  0.00  0.00    +0.000 S 
ATOM     25  C   UNL     1      44.475   3.746  10.499  0.00  0.00    +0.000 A 
ATOM     26  N   UNL     1      43.728   2.634  10.740  0.00  0.00    +0.000 NA
ATOM     27  C   UNL     1      43.308   2.523  11.955  0.00  0.00    +0.000 A 
ATOM     28  N   UNL     1      43.586   3.416  12.961  0.00  0.00    +0.000 N 
ATOM     29  C   UNL     1      44.405   4.509  12.783  0.00  0.00    +0.000 A 
ATOM     30  O   UNL     1      44.731   5.216  13.729  0.00  0.00    +0.000 OA
ATOM     31  C   UNL     1      44.845   4.714  11.417  0.00  0.00    +0.000 A 
ATOM     32  H   UNL     1      43.259   3.254  13.901  0.00  0.00    +0.000 HD
ENDBRANCH  19  22
ENDBRANCH   2  18
TORSDOF 7
ENDMDL
MODEL 4
REMARK VINA RESULT:    -7.273      2.809      8.403
REMARK INTER + INTRA:         -11.630
REMARK INTER:                  -9.836
REMARK INTRA:                  -1.795
REMARK UNBOUND:                -1.381
REMARK  Name = 
REMARK  8 active torsions:
REMARK  status: ('A' for Active; 'I' for Inactive)
REMARK    1  A    between atoms: C_1  and  C_2
REMARK    2  A    between atoms: C_2  and  N_3
REMARK    3  A    between atoms: C_2  and  C_16
REMARK    4  A    between atoms: C_4  and  C_6
REMARK    5  A    between atoms: C_19  and  C_20
REMARK    6  A    between atoms: C_20  and  O_21
REMARK    7  A    between atoms: O_21  and  C_22
REMARK    8  A    between atoms: C_22  and  C_23
REMARK                            x       y       z     vdW  Elec       q    Type
REMARK                         _______ _______ _______ _____ _____    ______ ____
ROOT
ATOM      1  C   UNL     1      49.210   7.831  11.380  0.00  0.00    +0.000 C 
ATOM      2  C   UNL     1      48.014   7.816  12.340  0.00  0.00    +0.000 C 
ENDROOT
BRANCH   2   3
ATOM      3  C   UNL     1      48.482   7.830  13.784  0.00  0.00    +0.000 A 
ATOM      4  C   UNL     1      49.547   7.015  14.194  0.00  0.00    +0.000 A 
ATOM      5  C   UNL     1      49.960   7.005  15.529  0.00  0.00    +0.000 A 
ATOM      6  C   UNL     1      49.323   7.813  16.480  0.00  0.00    +0.000 A 
ATOM      7  C   UNL     1      48.289   8.658  16.061  0.00  0.00    +0.000 A 
ATOM      8  C   UNL     1      47.872   8.664  14.733  0.00  0.00    +0.000 A 
BRANCH   6   9
ATOM      9  C   UNL     1      49.694   7.750  17.937  0.00  0.00    +0.000 C 
BRANCH   9  10
ATOM     10  O   UNL     1      50.258   6.482  18.245  0.00  0.00    +0.000 OA
BRANCH  10  11
ATOM     11  C   UNL     1      49.260   5.584  18.728  0.00  0.00    +0.000 C 
BRANCH  11  12
ATOM     12  C   UNL     1      49.229   4.337  17.885  0.00  0.00    +0.000 A 
ATOM     13  C   UNL     1      48.147   4.083  17.038  0.00  0.00    +0.000 A 
ATOM     14  C   UNL     1      48.168   2.939  16.255  0.00  0.00    +0.000 A 
ATOM     15  N   UNL     1      49.183   2.050  16.250  0.00  0.00    +0.000 NA
ATOM     16  C   UNL     1      50.225   2.320  17.064  0.00  0.00    +0.000 A 
ATOM     17  C   UNL     1      50.296   3.436  17.880  0.00  0.00    +0.000 A 
ENDBRANCH  11  12
ENDBRANCH  10  11
ENDBRANCH   9  10
ENDBRANCH   6   9
ENDBRANCH   2   3
BRANCH   2  18
ATOM     18  N   UNL     1      47.169   6.659  12.110  0.00  0.00    +0.000 N 
ATOM     19  C   UNL     1      45.806   6.697  12.221  0.00  0.00    +0.000 C 
ATOM     20  O   UNL     1      45.200   7.723  12.516  0.00  0.00    +0.000 OA
ATOM     21  H   UNL     1      47.636   5.761  12.026  0.00  0.00    +0.000 HD
BRANCH  19  22
ATOM     22  C   UNL     1      45.092   5.450  11.916  0.00  0.00    +0.000 A 
ATOM     23  C   UNL     1      44.343   4.828  12.905  0.00  0.00    +0.000 A 
ATOM     24  S   UNL     1      43.576   3.397  12.384  0.00  0.00    +0.000 S 
ATOM     25  C   UNL     1      44.249   3.536  10.830  0.00  0.00    +0.000 A 
ATOM     26  N   UNL     1      44.015   2.592   9.877  0.00  0.00    +0.000 NA
ATOM     27  C   UNL     1      44.623   2.798   8.758  0.00  0.00    +0.000 A 
ATOM     28  N   UNL     1      45.429   3.879   8.496  0.00  0.00    +0.000 N 
ATOM     29  C   UNL     1      45.628   4.899   9.400  0.00  0.00    +0.000 A 
ATOM     30  O   UNL     1      46.254   5.906   9.091  0.00  0.00    +0.000 OA
ATOM     31  C   UNL     1      45.021   4.677  10.698  0.00  0.00    +0.000 A 
ATOM     32  H   UNL     1      45.848   4.003   7.586  0.00  0.00    +0.000 HD
ENDBRANCH  19  22
ENDBRANCH   2  18
TORSDOF 7
ENDMDL
MODEL 5
REMARK VINA RESULT:    -7.267      1.742      2.732
REMARK INTER + INTRA:         -11.622
REMARK INTER:                 -10.530
REMARK INTRA:                  -1.092
REMARK UNBOUND:                -1.381
REMARK  Name = 
REMARK  8 active torsions:
REMARK  status: ('A' for Active; 'I' for Inactive)
REMARK    1  A    between atoms: C_1  and  C_2
REMARK    2  A    between atoms: C_2  and  N_3
REMARK    3  A    between atoms: C_2  and  C_16
REMARK    4  A    between atoms: C_4  and  C_6
REMARK    5  A    between atoms: C_19  and  C_20
REMARK    6  A    between atoms: C_20  and  O_21
REMARK    7  A    between atoms: O_21  and  C_22
REMARK    8  A    between atoms: C_22  and  C_23
REMARK                            x       y       z     vdW  Elec       q    Type
REMARK                         _______ _______ _______ _____ _____    ______ ____
ROOT
ATOM      1  C   UNL     1      48.439   9.293  13.836  0.00  0.00    +0.000 C 
ATOM      2  C   UNL     1      48.439   7.786  14.120  0.00  0.00    +0.000 C 
ENDROOT
BRANCH   2   3
ATOM      3  C   UNL     1      47.410   7.076  13.258  0.00  0.00    +0.000 A 
ATOM      4  C   UNL     1      47.239   5.687  13.354  0.00  0.00    +0.000 A 
ATOM      5  C   UNL     1      46.313   5.028  12.541  0.00  0.00    +0.000 A 
ATOM      6  C   UNL     1      45.534   5.743  11.621  0.00  0.00    +0.000 A 
ATOM      7  C   UNL     1      45.675   7.134  11.556  0.00  0.00    +0.000 A 
ATOM      8  C   UNL     1      46.601   7.791  12.361  0.00  0.00    +0.000 A 
BRANCH   6   9
ATOM      9  C   UNL     1      44.597   5.041  10.675  0.00  0.00    +0.000 C 
BRANCH   9  10
ATOM     10  O   UNL     1      45.232   3.900  10.112  0.00  0.00    +0.000 OA
BRANCH  10  11
ATOM     11  C   UNL     1      44.904   3.763   8.730  0.00  0.00    +0.000 C 
BRANCH  11  12
ATOM     12  C   UNL     1      45.933   2.917   8.031  0.00  0.00    +0.000 A 
ATOM     13  C   UNL     1      46.051   1.557   8.331  0.00  0.00    +0.000 A 
ATOM     14  C   UNL     1      46.991   0.803   7.644  0.00  0.00    +0.000 A 
ATOM     15  N   UNL     1      47.801   1.301   6.687  0.00  0.00    +0.000 NA
ATOM     16  C   UNL     1      47.663   2.613   6.403  0.00  0.00    +0.000 A 
ATOM     17  C   UNL     1      46.752   3.446   7.031  0.00  0.00    +0.000 A 
ENDBRANCH  11  12
ENDBRANCH  10  11
ENDBRANCH   9  10
ENDBRANCH   6   9
ENDBRANCH   2   3
BRANCH   2  18
ATOM     18  N   UNL     1      48.177   7.513  15.521  0.00  0.00    +0.000 N 
ATOM     19  C   UNL     1      49.006   6.752  16.300  0.00  0.00    +0.000 C 
ATOM     20  O   UNL     1      50.039   6.253  15.865  0.00  0.00    +0.000 OA
ATOM     21  H   UNL     1      47.259   7.767  15.872  0.00  0.00    +0.000 HD
BRANCH  19  22
ATOM     22  C   UNL     1      48.620   6.604  17.709  0.00  0.00    +0.000 A 
ATOM     23  C   UNL     1      48.662   5.351  18.305  0.00  0.00    +0.000 A 
ATOM     24  S   UNL     1      48.188   5.357  19.943  0.00  0.00    +0.000 S 
ATOM     25  C   UNL     1      47.873   7.026  19.905  0.00  0.00    +0.000 A 
ATOM     26  N   UNL     1      47.392   7.675  21.001  0.00  0.00    +0.000 NA
ATOM     27  C   UNL     1      47.155   8.930  20.819  0.00  0.00    +0.000 A 
ATOM     28  N   UNL     1      47.376   9.604  19.643  0.00  0.00    +0.000 N 
ATOM     29  C   UNL     1      47.938   9.007  18.536  0.00  0.00    +0.000 A 
ATOM     30  O   UNL     1      48.234   9.664  17.544  0.00  0.00    +0.000 OA
ATOM     31  C   UNL     1      48.157   7.581  18.668  0.00  0.00    +0.000 A 
ATOM     32  H   UNL     1      47.205  10.596  19.575  0.00  0.00    +0.000 HD
ENDBRANCH  19  22
ENDBRANCH   2  18
TORSDOF 7
ENDMDL
MODEL 6
REMARK VINA RESULT:    -7.149      2.499      3.315
REMARK INTER + INTRA:         -11.455
REMARK INTER:                 -10.404
REMARK INTRA:                  -1.051
REMARK UNBOUND:                -1.381
REMARK  Name = 
REMARK  8 active torsions:
REMARK  status: ('A' for Active; 'I' for Inactive)
REMARK    1  A    between atoms: C_1  and  C_2
REMARK    2  A    between atoms: C_2  and  N_3
REMARK    3  A    between atoms: C_2  and  C_16
REMARK    4  A    between atoms: C_4  and  C_6
REMARK    5  A    between atoms: C_19  and  C_20
REMARK    6  A    between atoms: C_20  and  O_21
REMARK    7  A    between atoms: O_21  and  C_22
REMARK    8  A    between atoms: C_22  and  C_23
REMARK                            x       y       z     vdW  Elec       q    Type
REMARK                         _______ _______ _______ _____ _____    ______ ____
ROOT
ATOM      1  C   UNL     1      47.497   3.391  15.389  0.00  0.00    +0.000 C 
ATOM      2  C   UNL     1      46.971   4.782  15.013  0.00  0.00    +0.000 C 
ENDROOT
BRANCH   2   3
ATOM      3  C   UNL     1      46.157   4.722  13.732  0.00  0.00    +0.000 A 
ATOM      4  C   UNL     1      45.650   5.896  13.157  0.00  0.00    +0.000 A 
ATOM      5  C   UNL     1      44.877   5.840  11.994  0.00  0.00    +0.000 A 
ATOM      6  C   UNL     1      44.600   4.611  11.379  0.00  0.00    +0.000 A 
ATOM      7  C   UNL     1      45.142   3.445  11.929  0.00  0.00    +0.000 A 
ATOM      8  C   UNL     1      45.908   3.499  13.091  0.00  0.00    +0.000 A 
BRANCH   6   9
ATOM      9  C   UNL     1      43.697   4.523  10.179  0.00  0.00    +0.000 C 
BRANCH   9  10
ATOM     10  O   UNL     1      44.213   3.582   9.245  0.00  0.00    +0.000 OA
BRANCH  10  11
ATOM     11  C   UNL     1      45.206   4.182   8.414  0.00  0.00    +0.000 C 
BRANCH  11  12
ATOM     12  C   UNL     1      46.041   3.119   7.751  0.00  0.00    +0.000 A 
ATOM     13  C   UNL     1      46.788   3.419   6.608  0.00  0.00    +0.000 A 
ATOM     14  C   UNL     1      47.567   2.421   6.042  0.00  0.00    +0.000 A 
ATOM     15  N   UNL     1      47.661   1.168   6.535  0.00  0.00    +0.000 NA
ATOM     16  C   UNL     1      46.942   0.903   7.647  0.00  0.00    +0.000 A 
ATOM     17  C   UNL     1      46.138   1.832   8.284  0.00  0.00    +0.000 A 
ENDBRANCH  11  12
ENDBRANCH  10  11
ENDBRANCH   9  10
ENDBRANCH   6   9
ENDBRANCH   2   3
BRANCH   2  18
ATOM     18  N   UNL     1      48.056   5.733  14.860  0.00  0.00    +0.000 N 
ATOM     19  C   UNL     1      48.647   6.366  15.919  0.00  0.00    +0.000 C 
ATOM     20  O   UNL     1      48.303   6.165  17.080  0.00  0.00    +0.000 OA
ATOM     21  H   UNL     1      48.258   6.047  13.916  0.00  0.00    +0.000 HD
BRANCH  19  22
ATOM     22  C   UNL     1      49.760   7.269  15.599  0.00  0.00    +0.000 A 
ATOM     23  C   UNL     1      49.507   8.465  14.941  0.00  0.00    +0.000 A 
ATOM     24  S   UNL     1      50.907   9.395  14.652  0.00  0.00    +0.000 S 
ATOM     25  C   UNL     1      51.905   8.217  15.359  0.00  0.00    +0.000 A 
ATOM     26  N   UNL     1      53.256   8.378  15.406  0.00  0.00    +0.000 NA
ATOM     27  C   UNL     1      53.896   7.387  15.931  0.00  0.00    +0.000 A 
ATOM     28  N   UNL     1      53.304   6.255  16.434  0.00  0.00    +0.000 N 
ATOM     29  C   UNL     1      51.938   6.086  16.483  0.00  0.00    +0.000 A 
ATOM     30  O   UNL     1      51.439   5.120  17.048  0.00  0.00    +0.000 OA
ATOM     31  C   UNL     1      51.179   7.142  15.842  0.00  0.00    +0.000 A 
ATOM     32  H   UNL     1      53.857   5.530  16.866  0.00  0.00    +0.000 HD
ENDBRANCH  19  22
ENDBRANCH   2  18
TORSDOF 7
ENDMDL
MODEL 7
REMARK VINA RESULT:    -6.837      3.528      5.223
REMARK INTER + INTRA:         -11.016
REMARK INTER:                  -9.646
REMARK INTRA:                  -1.370
REMARK UNBOUND:                -1.381
REMARK  Name = 
REMARK  8 active torsions:
REMARK  status: ('A' for Active; 'I' for Inactive)
REMARK    1  A    between atoms: C_1  and  C_2
REMARK    2  A    between atoms: C_2  and  N_3
REMARK    3  A    between atoms: C_2  and  C_16
REMARK    4  A    between atoms: C_4  and  C_6
REMARK    5  A    between atoms: C_19  and  C_20
REMARK    6  A    between atoms: C_20  and  O_21
REMARK    7  A    between atoms: O_21  and  C_22
REMARK    8  A    between atoms: C_22  and  C_23
REMARK                            x       y       z     vdW  Elec       q    Type
REMARK                         _______ _______ _______ _____ _____    ______ ____
ROOT
ATOM      1  C   UNL     1      47.567   2.904  17.571  0.00  0.00    +0.000 C 
ATOM      2  C   UNL     1      48.416   4.174  17.434  0.00  0.00    +0.000 C 
ENDROOT
BRANCH   2   3
ATOM      3  C   UNL     1      48.079   4.911  16.150  0.00  0.00    +0.000 A 
ATOM      4  C   UNL     1      47.165   4.367  15.237  0.00  0.00    +0.000 A 
ATOM      5  C   UNL     1      46.876   5.030  14.041  0.00  0.00    +0.000 A 
ATOM      6  C   UNL     1      47.488   6.253  13.736  0.00  0.00    +0.000 A 
ATOM      7  C   UNL     1      48.367   6.817  14.668  0.00  0.00    +0.000 A 
ATOM      8  C   UNL     1      48.661   6.155  15.857  0.00  0.00    +0.000 A 
BRANCH   6   9
ATOM      9  C   UNL     1      47.258   6.938  12.416  0.00  0.00    +0.000 C 
BRANCH   9  10
ATOM     10  O   UNL     1      45.881   6.874  12.064  0.00  0.00    +0.000 OA
BRANCH  10  11
ATOM     11  C   UNL     1      45.711   6.288  10.774  0.00  0.00    +0.000 C 
BRANCH  11  12
ATOM     12  C   UNL     1      44.879   5.038  10.875  0.00  0.00    +0.000 A 
ATOM     13  C   UNL     1      44.945   4.063   9.876  0.00  0.00    +0.000 A 
ATOM     14  C   UNL     1      44.186   2.911  10.019  0.00  0.00    +0.000 A 
ATOM     15  N   UNL     1      43.387   2.663  11.078  0.00  0.00    +0.000 NA
ATOM     16  C   UNL     1      43.347   3.611  12.038  0.00  0.00    +0.000 A 
ATOM     17  C   UNL     1      44.070   4.790  11.987  0.00  0.00    +0.000 A 
ENDBRANCH  11  12
ENDBRANCH  10  11
ENDBRANCH   9  10
ENDBRANCH   6   9
ENDBRANCH   2   3
BRANCH   2  18
ATOM     18  N   UNL     1      49.834   3.867  17.465  0.00  0.00    +0.000 N 
ATOM     19  C   UNL     1      50.638   4.167  18.531  0.00  0.00    +0.000 C 
ATOM     20  O   UNL     1      50.210   4.711  19.544  0.00  0.00    +0.000 OA
ATOM     21  H   UNL     1      50.256   3.570  16.591  0.00  0.00    +0.000 HD
BRANCH  19  22
ATOM     22  C   UNL     1      52.043   3.754  18.422  0.00  0.00    +0.000 A 
ATOM     23  C   UNL     1      53.050   4.640  18.778  0.00  0.00    +0.000 A 
ATOM     24  S   UNL     1      54.620   4.001  18.597  0.00  0.00    +0.000 S 
ATOM     25  C   UNL     1      54.014   2.531  17.999  0.00  0.00    +0.000 A 
ATOM     26  N   UNL     1      54.853   1.532  17.609  0.00  0.00    +0.000 NA
ATOM     27  C   UNL     1      54.260   0.489  17.134  0.00  0.00    +0.000 A 
ATOM     28  N   UNL     1      52.898   0.344  17.033  0.00  0.00    +0.000 N 
ATOM     29  C   UNL     1      52.011   1.293  17.491  0.00  0.00    +0.000 A 
ATOM     30  O   UNL     1      50.804   1.080  17.497  0.00  0.00    +0.000 OA
ATOM     31  C   UNL     1      52.630   2.513  17.970  0.00  0.00    +0.000 A 
ATOM     32  H   UNL     1      52.494  -0.513  16.687  0.00  0.00    +0.000 HD
ENDBRANCH  19  22
ENDBRANCH   2  18
TORSDOF 7
ENDMDL
MODEL 8
REMARK VINA RESULT:    -6.822      3.443      5.122
REMARK INTER + INTRA:         -10.995
REMARK INTER:                  -9.934
REMARK INTRA:                  -1.061
REMARK UNBOUND:                -1.381
REMARK  Name = 
REMARK  8 active torsions:
REMARK  status: ('A' for Active; 'I' for Inactive)
REMARK    1  A    between atoms: C_1  and  C_2
REMARK    2  A    between atoms: C_2  and  N_3
REMARK    3  A    between atoms: C_2  and  C_16
REMARK    4  A    between atoms: C_4  and  C_6
REMARK    5  A    between atoms: C_19  and  C_20
REMARK    6  A    between atoms: C_20  and  O_21
REMARK    7  A    between atoms: O_21  and  C_22
REMARK    8  A    between atoms: C_22  and  C_23
REMARK                            x       y       z     vdW  Elec       q    Type
REMARK                         _______ _______ _______ _____ _____    ______ ____
ROOT
ATOM      1  C   UNL     1      48.015   5.563  15.171  0.00  0.00    +0.000 C 
ATOM      2  C   UNL     1      47.801   6.549  14.017  0.00  0.00    +0.000 C 
ENDROOT
BRANCH   2   3
ATOM      3  C   UNL     1      46.741   6.037  13.059  0.00  0.00    +0.000 A 
ATOM      4  C   UNL     1      45.779   5.113  13.492  0.00  0.00    +0.000 A 
ATOM      5  C   UNL     1      44.820   4.618  12.604  0.00  0.00    +0.000 A 
ATOM      6  C   UNL     1      44.798   5.040  11.267  0.00  0.00    +0.000 A 
ATOM      7  C   UNL     1      45.732   5.994  10.847  0.00  0.00    +0.000 A 
ATOM      8  C   UNL     1      46.691   6.484  11.729  0.00  0.00    +0.000 A 
BRANCH   6   9
ATOM      9  C   UNL     1      43.830   4.453  10.276  0.00  0.00    +0.000 C 
BRANCH   9  10
ATOM     10  O   UNL     1      44.389   3.291   9.674  0.00  0.00    +0.000 OA
BRANCH  10  11
ATOM     11  C   UNL     1      44.567   3.479   8.271  0.00  0.00    +0.000 C 
BRANCH  11  12
ATOM     12  C   UNL     1      45.800   2.756   7.801  0.00  0.00    +0.000 A 
ATOM     13  C   UNL     1      45.956   1.390   8.048  0.00  0.00    +0.000 A 
ATOM     14  C   UNL     1      47.092   0.752   7.574  0.00  0.00    +0.000 A 
ATOM     15  N   UNL     1      48.064   1.371   6.871  0.00  0.00    +0.000 NA
ATOM     16  C   UNL     1      47.889   2.688   6.632  0.00  0.00    +0.000 A 
ATOM     17  C   UNL     1      46.789   3.410   7.061  0.00  0.00    +0.000 A 
ENDBRANCH  11  12
ENDBRANCH  10  11
ENDBRANCH   9  10
ENDBRANCH   6   9
ENDBRANCH   2   3
BRANCH   2  18
ATOM     18  N   UNL     1      49.037   6.792  13.295  0.00  0.00    +0.000 N 
ATOM     19  C   UNL     1      49.526   8.047  13.055  0.00  0.00    +0.000 C 
ATOM     20  O   UNL     1      48.953   9.060  13.444  0.00  0.00    +0.000 OA
ATOM     21  H   UNL     1      49.452   5.997  12.820  0.00  0.00    +0.000 HD
BRANCH  19  22
ATOM     22  C   UNL     1      50.810   8.121  12.346  0.00  0.00    +0.000 A 
ATOM     23  C   UNL     1      50.881   7.746  11.011  0.00  0.00    +0.000 A 
ATOM     24  S   UNL     1      52.441   7.897  10.340  0.00  0.00    +0.000 S 
ATOM     25  C   UNL     1      53.086   8.431  11.818  0.00  0.00    +0.000 A 
ATOM     26  N   UNL     1      54.413   8.709  11.946  0.00  0.00    +0.000 NA
ATOM     27  C   UNL     1      54.775   9.061  13.133  0.00  0.00    +0.000 A 
ATOM     28  N   UNL     1      53.925   9.182  14.204  0.00  0.00    +0.000 N 
ATOM     29  C   UNL     1      52.564   8.991  14.102  0.00  0.00    +0.000 A 
ATOM     30  O   UNL     1      51.820   9.225  15.048  0.00  0.00    +0.000 OA
ATOM     31  C   UNL     1      52.119   8.526  12.804  0.00  0.00    +0.000 A 
ATOM     32  H   UNL     1      54.264   9.498  15.101  0.00  0.00    +0.000 HD
ENDBRANCH  19  22
ENDBRANCH   2  18
TORSDOF 7
ENDMDL
MODEL 9
REMARK VINA RESULT:    -6.489      3.893      9.496
REMARK INTER + INTRA:         -10.525
REMARK INTER:                  -9.078
REMARK INTRA:                  -1.447
REMARK UNBOUND:                -1.381
REMARK  Name = 
REMARK  8 active torsions:
REMARK  status: ('A' for Active; 'I' for Inactive)
REMARK    1  A    between atoms: C_1  and  C_2
REMARK    2  A    between atoms: C_2  and  N_3
REMARK    3  A    between atoms: C_2  and  C_16
REMARK    4  A    between atoms: C_4  and  C_6
REMARK    5  A    between atoms: C_19  and  C_20
REMARK    6  A    between atoms: C_20  and  O_21
REMARK    7  A    between atoms: O_21  and  C_22
REMARK    8  A    between atoms: C_22  and  C_23
REMARK                            x       y       z     vdW  Elec       q    Type
REMARK                         _______ _______ _______ _____ _____    ______ ____
ROOT
ATOM      1  C   UNL     1      46.826   3.243  17.382  0.00  0.00    +0.000 C 
ATOM      2  C   UNL     1      47.853   3.909  16.458  0.00  0.00    +0.000 C 
ENDROOT
BRANCH   2   3
ATOM      3  C   UNL     1      48.877   4.689  17.263  0.00  0.00    +0.000 A 
ATOM      4  C   UNL     1      49.567   5.764  16.685  0.00  0.00    +0.000 A 
ATOM      5  C   UNL     1      50.530   6.465  17.415  0.00  0.00    +0.000 A 
ATOM      6  C   UNL     1      50.819   6.111  18.740  0.00  0.00    +0.000 A 
ATOM      7  C   UNL     1      50.099   5.066  19.331  0.00  0.00    +0.000 A 
ATOM      8  C   UNL     1      49.143   4.363  18.602  0.00  0.00    +0.000 A 
BRANCH   6   9
ATOM      9  C   UNL     1      51.914   6.795  19.513  0.00  0.00    +0.000 C 
BRANCH   9  10
ATOM     10  O   UNL     1      52.833   5.835  20.018  0.00  0.00    +0.000 OA
BRANCH  10  11
ATOM     11  C   UNL     1      53.755   5.431  19.006  0.00  0.00    +0.000 C 
BRANCH  11  12
ATOM     12  C   UNL     1      53.822   3.929  18.932  0.00  0.00    +0.000 A 
ATOM     13  C   UNL     1      54.727   3.222  19.728  0.00  0.00    +0.000 A 
ATOM     14  C   UNL     1      54.739   1.837  19.654  0.00  0.00    +0.000 A 
ATOM     15  N   UNL     1      53.916   1.119  18.861  0.00  0.00    +0.000 NA
ATOM     16  C   UNL     1      53.040   1.819  18.110  0.00  0.00    +0.000 A 
ATOM     17  C   UNL     1      52.951   3.201  18.117  0.00  0.00    +0.000 A 
ENDBRANCH  11  12
ENDBRANCH  10  11
ENDBRANCH   9  10
ENDBRANCH   6   9
ENDBRANCH   2   3
BRANCH   2  18
ATOM     18  N   UNL     1      47.209   4.788  15.501  0.00  0.00    +0.000 N 
ATOM     19  C   UNL     1      46.918   4.409  14.219  0.00  0.00    +0.000 C 
ATOM     20  O   UNL     1      47.176   3.288  13.791  0.00  0.00    +0.000 OA
ATOM     21  H   UNL     1      47.129   5.766  15.761  0.00  0.00    +0.000 HD
BRANCH  19  22
ATOM     22  C   UNL     1      46.228   5.404  13.387  0.00  0.00    +0.000 A 
ATOM     23  C   UNL     1      46.838   6.622  13.122  0.00  0.00    +0.000 A 
ATOM     24  S   UNL     1      45.905   7.656  12.139  0.00  0.00    +0.000 S 
ATOM     25  C   UNL     1      44.635   6.530  12.063  0.00  0.00    +0.000 A 
ATOM     26  N   UNL     1      43.486   6.812  11.390  0.00  0.00    +0.000 NA
ATOM     27  C   UNL     1      42.588   5.887  11.451  0.00  0.00    +0.000 A 
ATOM     28  N   UNL     1      42.743   4.692  12.108  0.00  0.00    +0.000 N 
ATOM     29  C   UNL     1      43.916   4.330  12.732  0.00  0.00    +0.000 A 
ATOM     30  O   UNL     1      44.062   3.208  13.204  0.00  0.00    +0.000 OA
ATOM     31  C   UNL     1      44.931   5.365  12.750  0.00  0.00    +0.000 A 
ATOM     32  H   UNL     1      42.016   3.993  12.088  0.00  0.00    +0.000 HD
ENDBRANCH  19  22
ENDBRANCH   2  18
TORSDOF 7
ENDMDL
