MODEL 1
REMARK VINA RESULT:    -7.398      0.000      0.000
REMARK INTER + INTRA:         -12.013
REMARK INTER:                 -10.858
REMARK INTRA:                  -1.155
REMARK UNBOUND:                -1.155
REMARK  Name = 
REMARK  10 active torsions:
REMARK  status: ('A' for Active; 'I' for Inactive)
REMARK    1  A    between atoms: C_1  and  C_2
REMARK    2  A    between atoms: C_2  and  C_3
REMARK    3  A    between atoms: C_2  and  N_4
REMARK    4  A    between atoms: N_4  and  C_5
REMARK    5  A    between atoms: C_5  and  C_6
REMARK    6  A    between atoms: C_6  and  C_7
REMARK    7  A    between atoms: C_10  and  C_11
REMARK    8  A    between atoms: C_11  and  O_12
REMARK    9  A    between atoms: O_12  and  C_13
REMARK   10  A    between atoms: C_16  and  C_17
REMARK                            x       y       z     vdW  Elec       q    Type
REMARK                         _______ _______ _______ _____ _____    ______ ____
ROOT
ATOM      1  C   UNL     1      47.111   5.749  13.653  0.00  0.00    +0.000 A 
ATOM      2  C   UNL     1      46.790   4.384  13.638  0.00  0.00    +0.000 A 
ATOM      3  C   UNL     1      45.673   3.917  12.938  0.00  0.00    +0.000 A 
ATOM      4  C   UNL     1      44.851   4.807  12.237  0.00  0.00    +0.000 A 
ATOM      5  C   UNL     1      45.156   6.174  12.269  0.00  0.00    +0.000 A 
ATOM      6  C   UNL     1      46.277   6.640  12.965  0.00  0.00    +0.000 A 
ENDROOT
BRANCH   1   7
ATOM      7  C   UNL     1      48.324   6.262  14.409  0.00  0.00    +0.000 C 
BRANCH   7   8
ATOM      8  C   UNL     1      48.225   5.953  15.910  0.00  0.00    +0.000 C 
BRANCH   8   9
ATOM      9  N   UNL     1      49.206   4.964  16.372  0.00  0.00    +0.000 NA
ATOM     10  H   UNL     1      49.620   4.493  15.564  0.00  0.00    +0.000 HD
BRANCH   9  12
ATOM     11  C   UNL     1      47.122   4.304  17.483  0.00  0.00    +0.000 C 
ATOM     12  C   UNL     1      48.593   3.949  17.253  0.00  0.00    +0.000 C 
ATOM     13  C   UNL     1      48.685   2.531  16.680  0.00  0.00    +0.000 C 
ENDBRANCH   9  12
ENDBRANCH   8   9
ENDBRANCH   7   8
ENDBRANCH   1   7
BRANCH   4  14
ATOM     14  C   UNL     1      43.658   4.303  11.465  0.00  0.00    +0.000 C 
BRANCH  14  15
ATOM     15  O   UNL     1      43.798   4.640  10.087  0.00  0.00    +0.000 OA
BRANCH  15  16
ATOM     16  C   UNL     1      44.645   3.857   9.353  0.00  0.00    +0.000 A 
ATOM     17  C   UNL     1      44.769   2.469   9.442  0.00  0.00    +0.000 A 
ATOM     18  C   UNL     1      45.676   1.803   8.622  0.00  0.00    +0.000 A 
ATOM     19  C   UNL     1      46.441   2.548   7.733  0.00  0.00    +0.000 A 
ATOM     20  N   UNL     1      46.356   3.901   7.614  0.00  0.00    +0.000 NA
ATOM     21  C   UNL     1      45.459   4.513   8.431  0.00  0.00    +0.000 A 
BRANCH  19  22
ATOM     22  C   UNL     1      47.415   1.846   6.842  0.00  0.00    +0.000 C 
ATOM     23  N   UNL     1      48.524   2.574   6.494  0.00  0.00    +0.000 N 
ATOM     24  O   UNL     1      47.245   0.701   6.442  0.00  0.00    +0.000 OA
ATOM     25  H   UNL     1      48.628   3.520   6.839  0.00  0.00    +0.000 HD
ATOM     26  H   UNL     1      49.223   2.164   5.887  0.00  0.00    +0.000 HD
ENDBRANCH  19  22
ENDBRANCH  15  16
ENDBRANCH  14  15
ENDBRANCH   4  14
TORSDOF 8
ENDMDL
MODEL 2
REMARK VINA RESULT:    -7.364      1.643      3.030
REMARK INTER + INTRA:         -11.962
REMARK INTER:                 -10.811
REMARK INTRA:                  -1.151
REMARK UNBOUND:                -1.155
REMARK  Name = 
REMARK  10 active torsions:
REMARK  status: ('A' for Active; 'I' for Inactive)
REMARK    1  A    between atoms: C_1  and  C_2
REMARK    2  A    between atoms: C_2  and  C_3
REMARK    3  A    between atoms: C_2  and  N_4
REMARK    4  A    between atoms: N_4  and  C_5
REMARK    5  A    between atoms: C_5  and  C_6
REMARK    6  A    between atoms: C_6  and  C_7
REMARK    7  A    between atoms: C_10  and  C_11
REMARK    8  A    between atoms: C_11  and  O_12
REMARK    9  A    between atoms: O_12  and  C_13
REMARK   10  A    between atoms: C_16  and  C_17
REMARK                            x       y       z     vdW  Elec       q    Type
REMARK                         _______ _______ _______ _____ _____    ______ ____
ROOT
ATOM      1  C   UNL     1      46.732   5.439  13.640  0.00  0.00    +0.000 A 
ATOM      2  C   UNL     1      45.868   6.348  13.012  0.00  0.00    +0.000 A 
ATOM      3  C   UNL     1      44.793   5.900  12.239  0.00  0.00    +0.000 A 
ATOM      4  C   UNL     1      44.558   4.530  12.076  0.00  0.00    +0.000 A 
ATOM      5  C   UNL     1      45.432   3.620  12.683  0.00  0.00    +0.000 A 
ATOM      6  C   UNL     1      46.505   4.069  13.461  0.00  0.00    +0.000 A 
ENDROOT
BRANCH   1   7
ATOM      7  C   UNL     1      47.900   5.920  14.484  0.00  0.00    +0.000 C 
BRANCH   7   8
ATOM      8  C   UNL     1      48.642   7.082  13.809  0.00  0.00    +0.000 C 
BRANCH   8   9
ATOM      9  N   UNL     1      49.561   6.656  12.747  0.00  0.00    +0.000 NA
ATOM     10  H   UNL     1      50.464   6.408  13.159  0.00  0.00    +0.000 HD
BRANCH   9  12
ATOM     11  C   UNL     1      48.569   8.664  11.750  0.00  0.00    +0.000 C 
ATOM     12  C   UNL     1      49.771   7.717  11.741  0.00  0.00    +0.000 C 
ATOM     13  C   UNL     1      51.050   8.524  11.987  0.00  0.00    +0.000 C 
ENDBRANCH   9  12
ENDBRANCH   8   9
ENDBRANCH   7   8
ENDBRANCH   1   7
BRANCH   4  14
ATOM     14  C   UNL     1      43.388   4.045  11.258  0.00  0.00    +0.000 C 
BRANCH  14  15
ATOM     15  O   UNL     1      43.574   4.406   9.890  0.00  0.00    +0.000 OA
BRANCH  15  16
ATOM     16  C   UNL     1      44.536   3.716   9.206  0.00  0.00    +0.000 A 
ATOM     17  C   UNL     1      44.740   2.335   9.239  0.00  0.00    +0.000 A 
ATOM     18  C   UNL     1      45.763   1.770   8.481  0.00  0.00    +0.000 A 
ATOM     19  C   UNL     1      46.559   2.607   7.709  0.00  0.00    +0.000 A 
ATOM     20  N   UNL     1      46.397   3.957   7.648  0.00  0.00    +0.000 NA
ATOM     21  C   UNL     1      45.389   4.469   8.401  0.00  0.00    +0.000 A 
BRANCH  19  22
ATOM     22  C   UNL     1      47.657   2.014   6.885  0.00  0.00    +0.000 C 
ATOM     23  N   UNL     1      48.573   2.908   6.396  0.00  0.00    +0.000 N 
ATOM     24  O   UNL     1      47.741   0.814   6.653  0.00  0.00    +0.000 OA
ATOM     25  H   UNL     1      48.469   3.894   6.603  0.00  0.00    +0.000 HD
ATOM     26  H   UNL     1      49.341   2.579   5.824  0.00  0.00    +0.000 HD
ENDBRANCH  19  22
ENDBRANCH  15  16
ENDBRANCH  14  15
ENDBRANCH   4  14
TORSDOF 8
ENDMDL
MODEL 3
REMARK VINA RESULT:    -6.921      1.379      1.974
REMARK INTER + INTRA:         -11.313
REMARK INTER:                 -10.328
REMARK INTRA:                  -0.985
REMARK UNBOUND:                -1.155
REMARK  Name = 
REMARK  10 active torsions:
REMARK  status: ('A' for Active; 'I' for Inactive)
REMARK    1  A    between atoms: C_1  and  C_2
REMARK    2  A    between atoms: C_2  and  C_3
REMARK    3  A    between atoms: C_2  and  N_4
REMARK    4  A    between atoms: N_4  and  C_5
REMARK    5  A    between atoms: C_5  and  C_6
REMARK    6  A    between atoms: C_6  and  C_7
REMARK    7  A    between atoms: C_10  and  C_11
REMARK    8  A    between atoms: C_11  and  O_12
REMARK    9  A    between atoms: O_12  and  C_13
REMARK   10  A    between atoms: C_16  and  C_17
REMARK                            x       y       z     vdW  Elec       q    Type
REMARK                         _______ _______ _______ _____ _____    ______ ____
ROOT
ATOM      1  C   UNL     1      46.764   6.768  12.708  0.00  0.00    +0.000 A 
ATOM      2  C   UNL     1      46.932   5.394  12.931  0.00  0.00    +0.000 A 
ATOM      3  C   UNL     1      45.934   4.482  12.576  0.00  0.00    +0.000 A 
ATOM      4  C   UNL     1      44.742   4.925  11.990  0.00  0.00    +0.000 A 
ATOM      5  C   UNL     1      44.562   6.299  11.786  0.00  0.00    +0.000 A 
ATOM      6  C   UNL     1      45.564   7.211  12.137  0.00  0.00    +0.000 A 
ENDROOT
BRANCH   1   7
ATOM      7  C   UNL     1      47.845   7.764  13.089  0.00  0.00    +0.000 C 
BRANCH   7   8
ATOM      8  C   UNL     1      49.238   7.119  13.070  0.00  0.00    +0.000 C 
BRANCH   8   9
ATOM      9  N   UNL     1      49.840   6.982  14.401  0.00  0.00    +0.000 NA
ATOM     10  H   UNL     1      50.217   6.037  14.508  0.00  0.00    +0.000 HD
BRANCH   9  12
ATOM     11  C   UNL     1      48.626   5.933  16.256  0.00  0.00    +0.000 C 
ATOM     12  C   UNL     1      48.859   7.230  15.477  0.00  0.00    +0.000 C 
ATOM     13  C   UNL     1      49.308   8.327  16.450  0.00  0.00    +0.000 C 
ENDBRANCH   9  12
ENDBRANCH   8   9
ENDBRANCH   7   8
ENDBRANCH   1   7
BRANCH   4  14
ATOM     14  C   UNL     1      43.673   3.940  11.588  0.00  0.00    +0.000 C 
BRANCH  14  15
ATOM     15  O   UNL     1      43.443   4.025  10.183  0.00  0.00    +0.000 OA
BRANCH  15  16
ATOM     16  C   UNL     1      44.411   3.496   9.376  0.00  0.00    +0.000 A 
ATOM     17  C   UNL     1      44.819   2.161   9.346  0.00  0.00    +0.000 A 
ATOM     18  C   UNL     1      45.820   1.765   8.462  0.00  0.00    +0.000 A 
ATOM     19  C   UNL     1      46.391   2.722   7.631  0.00  0.00    +0.000 A 
ATOM     20  N   UNL     1      46.026   4.033   7.629  0.00  0.00    +0.000 NA
ATOM     21  C   UNL     1      45.046   4.378   8.505  0.00  0.00    +0.000 A 
BRANCH  19  22
ATOM     22  C   UNL     1      47.462   2.311   6.673  0.00  0.00    +0.000 C 
ATOM     23  N   UNL     1      47.456   2.965   5.468  0.00  0.00    +0.000 N 
ATOM     24  O   UNL     1      48.292   1.448   6.933  0.00  0.00    +0.000 OA
ATOM     25  H   UNL     1      46.752   3.668   5.286  0.00  0.00    +0.000 HD
ATOM     26  H   UNL     1      48.149   2.733   4.768  0.00  0.00    +0.000 HD
ENDBRANCH  19  22
ENDBRANCH  15  16
ENDBRANCH  14  15
ENDBRANCH   4  14
TORSDOF 8
ENDMDL
MODEL 4
REMARK VINA RESULT:    -6.567      3.134      8.208
REMARK INTER + INTRA:         -10.793
REMARK INTER:                 -10.113
REMARK INTRA:                  -0.680
REMARK UNBOUND:                -1.155
REMARK  Name = 
REMARK  10 active torsions:
REMARK  status: ('A' for Active; 'I' for Inactive)
REMARK    1  A    between atoms: C_1  and  C_2
REMARK    2  A    between atoms: C_2  and  C_3
REMARK    3  A    between atoms: C_2  and  N_4
REMARK    4  A    between atoms: N_4  and  C_5
REMARK    5  A    between atoms: C_5  and  C_6
REMARK    6  A    between atoms: C_6  and  C_7
REMARK    7  A    between atoms: C_10  and  C_11
REMARK    8  A    between atoms: C_11  and  O_12
REMARK    9  A    between atoms: O_12  and  C_13
REMARK   10  A    between atoms: C_16  and  C_17
REMARK                            x       y       z     vdW  Elec       q    Type
REMARK                         _______ _______ _______ _____ _____    ______ ____
ROOT
ATOM      1  C   UNL     1      44.906   4.341  10.731  0.00  0.00    +0.000 A 
ATOM      2  C   UNL     1      45.070   3.374  11.734  0.00  0.00    +0.000 A 
ATOM      3  C   UNL     1      45.733   3.681  12.926  0.00  0.00    +0.000 A 
ATOM      4  C   UNL     1      46.250   4.964  13.141  0.00  0.00    +0.000 A 
ATOM      5  C   UNL     1      46.108   5.925  12.132  0.00  0.00    +0.000 A 
ATOM      6  C   UNL     1      45.439   5.619  10.942  0.00  0.00    +0.000 A 
ENDROOT
BRANCH   1   7
ATOM      7  C   UNL     1      44.184   4.014   9.436  0.00  0.00    +0.000 C 
BRANCH   7   8
ATOM      8  C   UNL     1      45.031   3.108   8.531  0.00  0.00    +0.000 C 
BRANCH   8   9
ATOM      9  N   UNL     1      45.999   3.841   7.707  0.00  0.00    +0.000 NA
ATOM     10  H   UNL     1      45.503   4.347   6.970  0.00  0.00    +0.000 HD
BRANCH   9  12
ATOM     11  C   UNL     1      46.804   1.525   7.644  0.00  0.00    +0.000 C 
ATOM     12  C   UNL     1      46.987   2.937   7.082  0.00  0.00    +0.000 C 
ATOM     13  C   UNL     1      46.868   2.891   5.555  0.00  0.00    +0.000 C 
ENDBRANCH   9  12
ENDBRANCH   8   9
ENDBRANCH   7   8
ENDBRANCH   1   7
BRANCH   4  14
ATOM     14  C   UNL     1      46.949   5.302  14.434  0.00  0.00    +0.000 C 
BRANCH  14  15
ATOM     15  O   UNL     1      46.726   4.265  15.387  0.00  0.00    +0.000 OA
BRANCH  15  16
ATOM     16  C   UNL     1      47.833   3.780  16.026  0.00  0.00    +0.000 A 
ATOM     17  C   UNL     1      48.591   4.452  16.986  0.00  0.00    +0.000 A 
ATOM     18  C   UNL     1      49.696   3.825  17.557  0.00  0.00    +0.000 A 
ATOM     19  C   UNL     1      50.015   2.536  17.147  0.00  0.00    +0.000 A 
ATOM     20  N   UNL     1      49.307   1.845  16.213  0.00  0.00    +0.000 NA
ATOM     21  C   UNL     1      48.237   2.491  15.681  0.00  0.00    +0.000 A 
BRANCH  19  22
ATOM     22  C   UNL     1      51.195   1.848  17.755  0.00  0.00    +0.000 C 
ATOM     23  N   UNL     1      52.071   2.663  18.424  0.00  0.00    +0.000 N 
ATOM     24  O   UNL     1      51.379   0.640  17.668  0.00  0.00    +0.000 OA
ATOM     25  H   UNL     1      51.890   3.658  18.471  0.00  0.00    +0.000 HD
ATOM     26  H   UNL     1      52.896   2.266  18.855  0.00  0.00    +0.000 HD
ENDBRANCH  19  22
ENDBRANCH  15  16
ENDBRANCH  14  15
ENDBRANCH   4  14
TORSDOF 8
ENDMDL
MODEL 5
REMARK VINA RESULT:    -6.554      3.078      8.722
REMARK INTER + INTRA:         -10.774
REMARK INTER:                 -10.162
REMARK INTRA:                  -0.612
REMARK UNBOUND:                -1.155
REMARK  Name = 
REMARK  10 active torsions:
REMARK  status: ('A' for Active; 'I' for Inactive)
REMARK    1  A    between atoms: C_1  and  C_2
REMARK    2  A    between atoms: C_2  and  C_3
REMARK    3  A    between atoms: C_2  and  N_4
REMARK    4  A    between atoms: N_4  and  C_5
REMARK    5  A    between atoms: C_5  and  C_6
REMARK    6  A    between atoms: C_6  and  C_7
REMARK    7  A    between atoms: C_10  and  C_11
REMARK    8  A    between atoms: C_11  and  O_12
REMARK    9  A    between atoms: O_12  and  C_13
REMARK   10  A    between atoms: C_16  and  C_17
REMARK                            x       y       z     vdW  Elec       q    Type
REMARK                         _______ _______ _______ _____ _____    ______ ____
ROOT
ATOM      1  C   UNL     1      44.933   4.276   9.966  0.00  0.00    +0.000 A 
ATOM      2  C   UNL     1      44.825   3.252  10.918  0.00  0.00    +0.000 A 
ATOM      3  C   UNL     1      45.222   3.457  12.243  0.00  0.00    +0.000 A 
ATOM      4  C   UNL     1      45.740   4.694  12.645  0.00  0.00    +0.000 A 
ATOM      5  C   UNL     1      45.871   5.712  11.692  0.00  0.00    +0.000 A 
ATOM      6  C   UNL     1      45.467   5.507  10.368  0.00  0.00    +0.000 A 
ENDROOT
BRANCH   1   7
ATOM      7  C   UNL     1      44.501   4.060   8.527  0.00  0.00    +0.000 C 
BRANCH   7   8
ATOM      8  C   UNL     1      45.402   3.041   7.814  0.00  0.00    +0.000 C 
BRANCH   8   9
ATOM      9  N   UNL     1      46.769   3.525   7.586  0.00  0.00    +0.000 NA
ATOM     10  H   UNL     1      46.735   4.413   7.080  0.00  0.00    +0.000 HD
BRANCH   9  12
ATOM     11  C   UNL     1      47.281   1.143   7.303  0.00  0.00    +0.000 C 
ATOM     12  C   UNL     1      47.571   2.560   6.805  0.00  0.00    +0.000 C 
ATOM     13  C   UNL     1      47.287   2.633   5.300  0.00  0.00    +0.000 C 
ENDBRANCH   9  12
ENDBRANCH   8   9
ENDBRANCH   7   8
ENDBRANCH   1   7
BRANCH   4  14
ATOM     14  C   UNL     1      46.151   4.924  14.078  0.00  0.00    +0.000 C 
BRANCH  14  15
ATOM     15  O   UNL     1      47.021   3.876  14.502  0.00  0.00    +0.000 OA
BRANCH  15  16
ATOM     16  C   UNL     1      47.501   3.966  15.779  0.00  0.00    +0.000 A 
ATOM     17  C   UNL     1      47.568   2.926  16.709  0.00  0.00    +0.000 A 
ATOM     18  C   UNL     1      48.089   3.167  17.978  0.00  0.00    +0.000 A 
ATOM     19  C   UNL     1      48.529   4.449  18.284  0.00  0.00    +0.000 A 
ATOM     20  N   UNL     1      48.481   5.492  17.411  0.00  0.00    +0.000 NA
ATOM     21  C   UNL     1      47.966   5.215  16.184  0.00  0.00    +0.000 A 
BRANCH  19  22
ATOM     22  C   UNL     1      49.097   4.722  19.640  0.00  0.00    +0.000 C 
ATOM     23  N   UNL     1      48.656   3.894  20.639  0.00  0.00    +0.000 N 
ATOM     24  O   UNL     1      49.900   5.621  19.856  0.00  0.00    +0.000 OA
ATOM     25  H   UNL     1      47.988   3.164  20.425  0.00  0.00    +0.000 HD
ATOM     26  H   UNL     1      48.994   4.024  21.584  0.00  0.00    +0.000 HD
ENDBRANCH  19  22
ENDBRANCH  15  16
ENDBRANCH  14  15
ENDBRANCH   4  14
TORSDOF 8
ENDMDL
MODEL 6
REMARK VINA RESULT:    -5.900      3.214      8.817
REMARK INTER + INTRA:          -9.814
REMARK INTER:                  -9.166
REMARK INTRA:                  -0.648
REMARK UNBOUND:                -1.155
REMARK  Name = 
REMARK  10 active torsions:
REMARK  status: ('A' for Active; 'I' for Inactive)
REMARK    1  A    between atoms: C_1  and  C_2
REMARK    2  A    between atoms: C_2  and  C_3
REMARK    3  A    between atoms: C_2  and  N_4
REMARK    4  A    between atoms: N_4  and  C_5
REMARK    5  A    between atoms: C_5  and  C_6
REMARK    6  A    between atoms: C_6  and  C_7
REMARK    7  A    between atoms: C_10  and  C_11
REMARK    8  A    between atoms: C_11  and  O_12
REMARK    9  A    between atoms: O_12  and  C_13
REMARK   10  A    between atoms: C_16  and  C_17
REMARK                            x       y       z     vdW  Elec       q    Type
REMARK                         _______ _______ _______ _____ _____    ______ ____
ROOT
ATOM      1  C   UNL     1      45.012   4.316  11.391  0.00  0.00    +0.000 A 
ATOM      2  C   UNL     1      45.315   3.937  12.706  0.00  0.00    +0.000 A 
ATOM      3  C   UNL     1      46.162   4.715  13.501  0.00  0.00    +0.000 A 
ATOM      4  C   UNL     1      46.726   5.892  12.996  0.00  0.00    +0.000 A 
ATOM      5  C   UNL     1      46.444   6.262  11.675  0.00  0.00    +0.000 A 
ATOM      6  C   UNL     1      45.591   5.486  10.882  0.00  0.00    +0.000 A 
ENDROOT
BRANCH   1   7
ATOM      7  C   UNL     1      44.090   3.477  10.523  0.00  0.00    +0.000 C 
BRANCH   7   8
ATOM      8  C   UNL     1      44.569   3.438   9.065  0.00  0.00    +0.000 C 
BRANCH   8   9
ATOM      9  N   UNL     1      45.451   2.304   8.766  0.00  0.00    +0.000 NA
ATOM     10  H   UNL     1      46.144   2.207   9.512  0.00  0.00    +0.000 HD
BRANCH   9  12
ATOM     11  C   UNL     1      46.724   3.898   7.404  0.00  0.00    +0.000 C 
ATOM     12  C   UNL     1      46.156   2.479   7.480  0.00  0.00    +0.000 C 
ATOM     13  C   UNL     1      47.294   1.471   7.284  0.00  0.00    +0.000 C 
ENDBRANCH   9  12
ENDBRANCH   8   9
ENDBRANCH   7   8
ENDBRANCH   1   7
BRANCH   4  14
ATOM     14  C   UNL     1      47.625   6.743  13.858  0.00  0.00    +0.000 C 
BRANCH  14  15
ATOM     15  O   UNL     1      48.588   5.918  14.510  0.00  0.00    +0.000 OA
BRANCH  15  16
ATOM     16  C   UNL     1      48.524   5.872  15.875  0.00  0.00    +0.000 A 
ATOM     17  C   UNL     1      48.847   6.911  16.750  0.00  0.00    +0.000 A 
ATOM     18  C   UNL     1      48.727   6.718  18.125  0.00  0.00    +0.000 A 
ATOM     19  C   UNL     1      48.287   5.483  18.588  0.00  0.00    +0.000 A 
ATOM     20  N   UNL     1      47.963   4.443  17.772  0.00  0.00    +0.000 NA
ATOM     21  C   UNL     1      48.094   4.672  16.439  0.00  0.00    +0.000 A 
BRANCH  19  22
ATOM     22  C   UNL     1      48.146   5.264  20.060  0.00  0.00    +0.000 C 
ATOM     23  N   UNL     1      48.570   4.042  20.515  0.00  0.00    +0.000 N 
ATOM     24  O   UNL     1      47.684   6.108  20.818  0.00  0.00    +0.000 OA
ATOM     25  H   UNL     1      48.941   3.366  19.859  0.00  0.00    +0.000 HD
ATOM     26  H   UNL     1      48.499   3.822  21.500  0.00  0.00    +0.000 HD
ENDBRANCH  19  22
ENDBRANCH  15  16
ENDBRANCH  14  15
ENDBRANCH   4  14
TORSDOF 8
ENDMDL
MODEL 7
REMARK VINA RESULT:    -5.811      2.350      3.405
REMARK INTER + INTRA:          -9.683
REMARK INTER:                  -9.119
REMARK INTRA:                  -0.564
REMARK UNBOUND:                -1.155
REMARK  Name = 
REMARK  10 active torsions:
REMARK  status: ('A' for Active; 'I' for Inactive)
REMARK    1  A    between atoms: C_1  and  C_2
REMARK    2  A    between atoms: C_2  and  C_3
REMARK    3  A    between atoms: C_2  and  N_4
REMARK    4  A    between atoms: N_4  and  C_5
REMARK    5  A    between atoms: C_5  and  C_6
REMARK    6  A    between atoms: C_6  and  C_7
REMARK    7  A    between atoms: C_10  and  C_11
REMARK    8  A    between atoms: C_11  and  O_12
REMARK    9  A    between atoms: O_12  and  C_13
REMARK   10  A    between atoms: C_16  and  C_17
REMARK                            x       y       z     vdW  Elec       q    Type
REMARK                         _______ _______ _______ _____ _____    ______ ____
ROOT
ATOM      1  C   UNL     1      47.109   7.457  13.327  0.00  0.00    +0.000 A 
ATOM      2  C   UNL     1      47.068   6.058  13.232  0.00  0.00    +0.000 A 
ATOM      3  C   UNL     1      46.027   5.415  12.556  0.00  0.00    +0.000 A 
ATOM      4  C   UNL     1      45.001   6.158  11.960  0.00  0.00    +0.000 A 
ATOM      5  C   UNL     1      45.027   7.553  12.073  0.00  0.00    +0.000 A 
ATOM      6  C   UNL     1      46.073   8.197  12.744  0.00  0.00    +0.000 A 
ENDROOT
BRANCH   1   7
ATOM      7  C   UNL     1      48.239   8.162  14.057  0.00  0.00    +0.000 C 
BRANCH   7   8
ATOM      8  C   UNL     1      49.530   7.331  14.034  0.00  0.00    +0.000 C 
BRANCH   8   9
ATOM      9  N   UNL     1      50.595   7.924  13.216  0.00  0.00    +0.000 NA
ATOM     10  H   UNL     1      50.863   8.828  13.610  0.00  0.00    +0.000 HD
BRANCH   9  12
ATOM     11  C   UNL     1      50.104   9.620  11.514  0.00  0.00    +0.000 C 
ATOM     12  C   UNL     1      50.167   8.121  11.815  0.00  0.00    +0.000 C 
ATOM     13  C   UNL     1      51.103   7.444  10.807  0.00  0.00    +0.000 C 
ENDBRANCH   9  12
ENDBRANCH   8   9
ENDBRANCH   7   8
ENDBRANCH   1   7
BRANCH   4  14
ATOM     14  C   UNL     1      43.887   5.466  11.214  0.00  0.00    +0.000 C 
BRANCH  14  15
ATOM     15  O   UNL     1      44.223   4.094  11.012  0.00  0.00    +0.000 OA
BRANCH  15  16
ATOM     16  C   UNL     1      44.923   3.802   9.875  0.00  0.00    +0.000 A 
ATOM     17  C   UNL     1      45.465   4.728   8.980  0.00  0.00    +0.000 A 
ATOM     18  C   UNL     1      46.162   4.279   7.861  0.00  0.00    +0.000 A 
ATOM     19  C   UNL     1      46.297   2.910   7.666  0.00  0.00    +0.000 A 
ATOM     20  N   UNL     1      45.785   1.973   8.510  0.00  0.00    +0.000 NA
ATOM     21  C   UNL     1      45.112   2.451   9.589  0.00  0.00    +0.000 A 
BRANCH  19  22
ATOM     22  C   UNL     1      47.048   2.413   6.472  0.00  0.00    +0.000 C 
ATOM     23  N   UNL     1      48.181   1.692   6.749  0.00  0.00    +0.000 N 
ATOM     24  O   UNL     1      46.689   2.631   5.322  0.00  0.00    +0.000 OA
ATOM     25  H   UNL     1      48.451   1.537   7.712  0.00  0.00    +0.000 HD
ATOM     26  H   UNL     1      48.743   1.330   5.989  0.00  0.00    +0.000 HD
ENDBRANCH  19  22
ENDBRANCH  15  16
ENDBRANCH  14  15
ENDBRANCH   4  14
TORSDOF 8
ENDMDL
MODEL 8
REMARK VINA RESULT:    -5.520      3.484      8.354
REMARK INTER + INTRA:          -9.257
REMARK INTER:                  -8.590
REMARK INTRA:                  -0.667
REMARK UNBOUND:                -1.155
REMARK  Name = 
REMARK  10 active torsions:
REMARK  status: ('A' for Active; 'I' for Inactive)
REMARK    1  A    between atoms: C_1  and  C_2
REMARK    2  A    between atoms: C_2  and  C_3
REMARK    3  A    between atoms: C_2  and  N_4
REMARK    4  A    between atoms: N_4  and  C_5
REMARK    5  A    between atoms: C_5  and  C_6
REMARK    6  A    between atoms: C_6  and  C_7
REMARK    7  A    between atoms: C_10  and  C_11
REMARK    8  A    between atoms: C_11  and  O_12
REMARK    9  A    between atoms: O_12  and  C_13
REMARK   10  A    between atoms: C_16  and  C_17
REMARK                            x       y       z     vdW  Elec       q    Type
REMARK                         _______ _______ _______ _____ _____    ______ ____
ROOT
ATOM      1  C   UNL     1      44.835   5.080  11.910  0.00  0.00    +0.000 A 
ATOM      2  C   UNL     1      45.385   4.675  13.135  0.00  0.00    +0.000 A 
ATOM      3  C   UNL     1      46.572   5.240  13.611  0.00  0.00    +0.000 A 
ATOM      4  C   UNL     1      47.237   6.224  12.869  0.00  0.00    +0.000 A 
ATOM      5  C   UNL     1      46.703   6.614  11.635  0.00  0.00    +0.000 A 
ATOM      6  C   UNL     1      45.511   6.052  11.163  0.00  0.00    +0.000 A 
ENDROOT
BRANCH   1   7
ATOM      7  C   UNL     1      43.545   4.472  11.390  0.00  0.00    +0.000 C 
BRANCH   7   8
ATOM      8  C   UNL     1      43.712   2.978  11.075  0.00  0.00    +0.000 C 
BRANCH   8   9
ATOM      9  N   UNL     1      44.984   2.655  10.418  0.00  0.00    +0.000 NA
ATOM     10  H   UNL     1      45.637   3.432  10.542  0.00  0.00    +0.000 HD
BRANCH   9  12
ATOM     11  C   UNL     1      44.849   3.739   8.222  0.00  0.00    +0.000 C 
ATOM     12  C   UNL     1      44.809   2.406   8.972  0.00  0.00    +0.000 C 
ATOM     13  C   UNL     1      45.880   1.473   8.396  0.00  0.00    +0.000 C 
ENDBRANCH   9  12
ENDBRANCH   8   9
ENDBRANCH   7   8
ENDBRANCH   1   7
BRANCH   4  14
ATOM     14  C   UNL     1      48.508   6.848  13.390  0.00  0.00    +0.000 C 
BRANCH  14  15
ATOM     15  O   UNL     1      48.325   7.251  14.746  0.00  0.00    +0.000 OA
BRANCH  15  16
ATOM     16  C   UNL     1      49.086   6.603  15.679  0.00  0.00    +0.000 A 
ATOM     17  C   UNL     1      48.630   5.661  16.604  0.00  0.00    +0.000 A 
ATOM     18  C   UNL     1      49.528   5.078  17.495  0.00  0.00    +0.000 A 
ATOM     19  C   UNL     1      50.864   5.456  17.437  0.00  0.00    +0.000 A 
ATOM     20  N   UNL     1      51.351   6.369  16.554  0.00  0.00    +0.000 NA
ATOM     21  C   UNL     1      50.444   6.915  15.702  0.00  0.00    +0.000 A 
BRANCH  19  22
ATOM     22  C   UNL     1      51.840   4.833  18.382  0.00  0.00    +0.000 C 
ATOM     23  N   UNL     1      51.619   3.511  18.670  0.00  0.00    +0.000 N 
ATOM     24  O   UNL     1      52.777   5.451  18.874  0.00  0.00    +0.000 OA
ATOM     25  H   UNL     1      50.832   3.034  18.249  0.00  0.00    +0.000 HD
ATOM     26  H   UNL     1      52.237   3.026  19.308  0.00  0.00    +0.000 HD
ENDBRANCH  19  22
ENDBRANCH  15  16
ENDBRANCH  14  15
ENDBRANCH   4  14
TORSDOF 8
ENDMDL
MODEL 9
REMARK VINA RESULT:    -5.333      3.533      8.916
REMARK INTER + INTRA:          -8.981
REMARK INTER:                  -8.178
REMARK INTRA:                  -0.803
REMARK UNBOUND:                -1.155
REMARK  Name = 
REMARK  10 active torsions:
REMARK  status: ('A' for Active; 'I' for Inactive)
REMARK    1  A    between atoms: C_1  and  C_2
REMARK    2  A    between atoms: C_2  and  C_3
REMARK    3  A    between atoms: C_2  and  N_4
REMARK    4  A    between atoms: N_4  and  C_5
REMARK    5  A    between atoms: C_5  and  C_6
REMARK    6  A    between atoms: C_6  and  C_7
REMARK    7  A    between atoms: C_10  and  C_11
REMARK    8  A    between atoms: C_11  and  O_12
REMARK    9  A    between atoms: O_12  and  C_13
REMARK   10  A    between atoms: C_16  and  C_17
REMARK                            x       y       z     vdW  Elec       q    Type
REMARK                         _______ _______ _______ _____ _____    ______ ____
ROOT
ATOM      1  C   UNL     1      45.163   4.303  12.402  0.00  0.00    +0.000 A 
ATOM      2  C   UNL     1      46.126   4.001  13.376  0.00  0.00    +0.000 A 
ATOM      3  C   UNL     1      47.172   4.887  13.649  0.00  0.00    +0.000 A 
ATOM      4  C   UNL     1      47.280   6.096  12.951  0.00  0.00    +0.000 A 
ATOM      5  C   UNL     1      46.333   6.389  11.962  0.00  0.00    +0.000 A 
ATOM      6  C   UNL     1      45.282   5.505  11.693  0.00  0.00    +0.000 A 
ENDROOT
BRANCH   1   7
ATOM      7  C   UNL     1      44.022   3.346  12.102  0.00  0.00    +0.000 C 
BRANCH   7   8
ATOM      8  C   UNL     1      43.871   3.104  10.594  0.00  0.00    +0.000 C 
BRANCH   8   9
ATOM      9  N   UNL     1      44.899   2.218  10.035  0.00  0.00    +0.000 NA
ATOM     10  H   UNL     1      45.782   2.370  10.529  0.00  0.00    +0.000 HD
BRANCH   9  12
ATOM     11  C   UNL     1      45.289   3.960   8.354  0.00  0.00    +0.000 C 
ATOM     12  C   UNL     1      45.110   2.459   8.593  0.00  0.00    +0.000 C 
ATOM     13  C   UNL     1      46.329   1.713   8.038  0.00  0.00    +0.000 C 
ENDBRANCH   9  12
ENDBRANCH   8   9
ENDBRANCH   7   8
ENDBRANCH   1   7
BRANCH   4  14
ATOM     14  C   UNL     1      48.398   7.061  13.258  0.00  0.00    +0.000 C 
BRANCH  14  15
ATOM     15  O   UNL     1      49.181   6.561  14.341  0.00  0.00    +0.000 OA
BRANCH  15  16
ATOM     16  C   UNL     1      48.930   7.102  15.571  0.00  0.00    +0.000 A 
ATOM     17  C   UNL     1      48.674   8.447  15.843  0.00  0.00    +0.000 A 
ATOM     18  C   UNL     1      48.430   8.852  17.154  0.00  0.00    +0.000 A 
ATOM     19  C   UNL     1      48.451   7.894  18.161  0.00  0.00    +0.000 A 
ATOM     20  N   UNL     1      48.698   6.574  17.941  0.00  0.00    +0.000 NA
ATOM     21  C   UNL     1      48.931   6.220  16.651  0.00  0.00    +0.000 A 
BRANCH  19  22
ATOM     22  C   UNL     1      48.184   8.313  19.571  0.00  0.00    +0.000 C 
ATOM     23  N   UNL     1      48.751   9.502  19.949  0.00  0.00    +0.000 N 
ATOM     24  O   UNL     1      47.508   7.647  20.346  0.00  0.00    +0.000 OA
ATOM     25  H   UNL     1      49.307  10.023  19.283  0.00  0.00    +0.000 HD
ATOM     26  H   UNL     1      48.617   9.844  20.892  0.00  0.00    +0.000 HD
ENDBRANCH  19  22
ENDBRANCH  15  16
ENDBRANCH  14  15
ENDBRANCH   4  14
TORSDOF 8
ENDMDL
