MODEL 1
REMARK VINA RESULT:    -7.118      0.000      0.000
REMARK INTER + INTRA:         -11.048
REMARK INTER:                 -10.031
REMARK INTRA:                  -1.017
REMARK UNBOUND:                -1.017
REMARK  Name = 
REMARK  10 active torsions:
REMARK  status: ('A' for Active; 'I' for Inactive)
REMARK    1  A    between atoms: C_1  and  C_2
REMARK    2  A    between atoms: C_2  and  O_3
REMARK    3  A    between atoms: O_3  and  C_4
REMARK    4  A    between atoms: N_7  and  C_8
REMARK    5  A    between atoms: C_8  and  C_9
REMARK    6  A    between atoms: C_9  and  C_10
REMARK    7  A    between atoms: C_9  and  C_11
REMARK    8  A    between atoms: C_9  and  C_12
REMARK    9  A    between atoms: C_16  and  C_17
REMARK   10  A    between atoms: C_22  and  C_23
REMARK                            x       y       z     vdW  Elec       q    Type
REMARK                         _______ _______ _______ _____ _____    ______ ____
ROOT
ATOM      1  C   UNL     1      47.909   4.612  15.994  0.00  0.00    +0.000 A 
ATOM      2  N   UNL     1      47.013   4.122  15.089  0.00  0.00    +0.000 NA
ATOM      3  C   UNL     1      46.714   4.864  14.005  0.00  0.00    +0.000 A 
ATOM      4  N   UNL     1      45.800   4.328  13.125  0.00  0.00    +0.000 N 
ATOM      5  C   UNL     1      47.303   6.105  13.812  0.00  0.00    +0.000 A 
ATOM      6  C   UNL     1      48.222   6.594  14.735  0.00  0.00    +0.000 A 
ATOM      7  C   UNL     1      48.537   5.845  15.868  0.00  0.00    +0.000 A 
ATOM      8  H   UNL     1      45.561   3.365  13.327  0.00  0.00    +0.000 HD
ENDROOT
BRANCH   7   9
ATOM      9  C   UNL     1      49.540   6.432  16.801  0.00  0.00    +0.000 C 
ATOM     10  N   UNL     1      50.699   5.754  17.038  0.00  0.00    +0.000 N 
ATOM     11  O   UNL     1      49.338   7.505  17.354  0.00  0.00    +0.000 OA
ATOM     12  H   UNL     1      50.884   4.839  16.640  0.00  0.00    +0.000 HD
ATOM     13  H   UNL     1      51.338   6.137  17.719  0.00  0.00    +0.000 HD
ENDBRANCH   7   9
BRANCH   1  14
ATOM     14  O   UNL     1      48.169   3.835  17.110  0.00  0.00    +0.000 OA
BRANCH  14  16
ATOM     15  C   UNL     1      49.989   2.301  17.346  0.00  0.00    +0.000 C 
ATOM     16  C   UNL     1      48.603   2.516  16.765  0.00  0.00    +0.000 C 
ENDBRANCH  14  16
ENDBRANCH   1  14
BRANCH   4  17
ATOM     17  C   UNL     1      45.430   4.972  11.874  0.00  0.00    +0.000 C 
BRANCH  17  18
ATOM     18  C   UNL     1      44.459   4.154  10.967  0.00  0.00    +0.000 C 
ATOM     19  C   UNL     1      44.005   2.869  11.697  0.00  0.00    +0.000 C 
ATOM     20  C   UNL     1      43.204   5.011  10.674  0.00  0.00    +0.000 C 
BRANCH  18  21
ATOM     21  C   UNL     1      45.199   3.744   9.662  0.00  0.00    +0.000 A 
ATOM     22  C   UNL     1      45.617   4.722   8.737  0.00  0.00    +0.000 A 
ATOM     23  C   UNL     1      46.305   4.383   7.566  0.00  0.00    +0.000 A 
ATOM     24  C   UNL     1      46.591   3.051   7.283  0.00  0.00    +0.000 A 
ATOM     25  C   UNL     1      46.185   2.056   8.171  0.00  0.00    +0.000 A 
ATOM     26  C   UNL     1      45.498   2.403   9.346  0.00  0.00    +0.000 A 
BRANCH  25  27
ATOM     27  C   UNL     1      46.475   0.680   7.888  0.00  0.00    +0.000 C 
ATOM     28  N   UNL     1      46.710  -0.434   7.664  0.00  0.00    +0.000 NA
ENDBRANCH  25  27
ENDBRANCH  18  21
ENDBRANCH  17  18
ENDBRANCH   4  17
TORSDOF 7
ENDMDL
MODEL 2
REMARK VINA RESULT:    -6.942      3.236      7.951
REMARK INTER + INTRA:         -10.800
REMARK INTER:                  -9.429
REMARK INTRA:                  -1.371
REMARK UNBOUND:                -1.017
REMARK  Name = 
REMARK  10 active torsions:
REMARK  status: ('A' for Active; 'I' for Inactive)
REMARK    1  A    between atoms: C_1  and  C_2
REMARK    2  A    between atoms: C_2  and  O_3
REMARK    3  A    between atoms: O_3  and  C_4
REMARK    4  A    between atoms: N_7  and  C_8
REMARK    5  A    between atoms: C_8  and  C_9
REMARK    6  A    between atoms: C_9  and  C_10
REMARK    7  A    between atoms: C_9  and  C_11
REMARK    8  A    between atoms: C_9  and  C_12
REMARK    9  A    between atoms: C_16  and  C_17
REMARK   10  A    between atoms: C_22  and  C_23
REMARK                            x       y       z     vdW  Elec       q    Type
REMARK                         _______ _______ _______ _____ _____    ______ ____
ROOT
ATOM      1  C   UNL     1      45.188   4.771  10.082  0.00  0.00    +0.000 A 
ATOM      2  N   UNL     1      45.884   5.907  10.378  0.00  0.00    +0.000 NA
ATOM      3  C   UNL     1      46.078   6.230  11.671  0.00  0.00    +0.000 A 
ATOM      4  N   UNL     1      46.781   7.389  11.917  0.00  0.00    +0.000 N 
ATOM      5  C   UNL     1      45.578   5.426  12.685  0.00  0.00    +0.000 A 
ATOM      6  C   UNL     1      44.876   4.265  12.375  0.00  0.00    +0.000 A 
ATOM      7  C   UNL     1      44.657   3.919  11.043  0.00  0.00    +0.000 A 
ATOM      8  H   UNL     1      47.195   7.795  11.087  0.00  0.00    +0.000 HD
ENDROOT
BRANCH   7   9
ATOM      9  C   UNL     1      43.910   2.654  10.794  0.00  0.00    +0.000 C 
ATOM     10  N   UNL     1      44.300   1.847   9.767  0.00  0.00    +0.000 N 
ATOM     11  O   UNL     1      42.957   2.334  11.493  0.00  0.00    +0.000 OA
ATOM     12  H   UNL     1      45.050   2.099   9.133  0.00  0.00    +0.000 HD
ATOM     13  H   UNL     1      43.744   1.026   9.576  0.00  0.00    +0.000 HD
ENDBRANCH   7   9
BRANCH   1  14
ATOM     14  O   UNL     1      44.982   4.487   8.743  0.00  0.00    +0.000 OA
BRANCH  14  16
ATOM     15  C   UNL     1      46.081   3.315   6.970  0.00  0.00    +0.000 C 
ATOM     16  C   UNL     1      46.208   4.417   8.007  0.00  0.00    +0.000 C 
ENDBRANCH  14  16
ENDBRANCH   1  14
BRANCH   4  17
ATOM     17  C   UNL     1      47.136   7.834  13.257  0.00  0.00    +0.000 C 
BRANCH  17  18
ATOM     18  C   UNL     1      48.666   7.885  13.556  0.00  0.00    +0.000 C 
ATOM     19  C   UNL     1      49.463   7.341  12.348  0.00  0.00    +0.000 C 
ATOM     20  C   UNL     1      49.084   9.357  13.786  0.00  0.00    +0.000 C 
BRANCH  18  21
ATOM     21  C   UNL     1      48.977   6.994  14.793  0.00  0.00    +0.000 A 
ATOM     22  C   UNL     1      50.178   7.160  15.513  0.00  0.00    +0.000 A 
ATOM     23  C   UNL     1      50.472   6.388  16.643  0.00  0.00    +0.000 A 
ATOM     24  C   UNL     1      49.573   5.421  17.084  0.00  0.00    +0.000 A 
ATOM     25  C   UNL     1      48.380   5.224  16.391  0.00  0.00    +0.000 A 
ATOM     26  C   UNL     1      48.089   6.004  15.260  0.00  0.00    +0.000 A 
BRANCH  25  27
ATOM     27  C   UNL     1      47.447   4.229  16.837  0.00  0.00    +0.000 C 
ATOM     28  N   UNL     1      46.691   3.425  17.194  0.00  0.00    +0.000 NA
ENDBRANCH  25  27
ENDBRANCH  18  21
ENDBRANCH  17  18
ENDBRANCH   4  17
TORSDOF 7
ENDMDL
MODEL 3
REMARK VINA RESULT:    -6.725      1.397      2.355
REMARK INTER + INTRA:         -10.494
REMARK INTER:                  -9.384
REMARK INTRA:                  -1.110
REMARK UNBOUND:                -1.017
REMARK  Name = 
REMARK  10 active torsions:
REMARK  status: ('A' for Active; 'I' for Inactive)
REMARK    1  A    between atoms: C_1  and  C_2
REMARK    2  A    between atoms: C_2  and  O_3
REMARK    3  A    between atoms: O_3  and  C_4
REMARK    4  A    between atoms: N_7  and  C_8
REMARK    5  A    between atoms: C_8  and  C_9
REMARK    6  A    between atoms: C_9  and  C_10
REMARK    7  A    between atoms: C_9  and  C_11
REMARK    8  A    between atoms: C_9  and  C_12
REMARK    9  A    between atoms: C_16  and  C_17
REMARK   10  A    between atoms: C_22  and  C_23
REMARK                            x       y       z     vdW  Elec       q    Type
REMARK                         _______ _______ _______ _____ _____    ______ ____
ROOT
ATOM      1  C   UNL     1      48.196   6.664  14.833  0.00  0.00    +0.000 A 
ATOM      2  N   UNL     1      47.477   6.347  13.716  0.00  0.00    +0.000 NA
ATOM      3  C   UNL     1      46.829   5.168  13.675  0.00  0.00    +0.000 A 
ATOM      4  N   UNL     1      46.123   4.893  12.524  0.00  0.00    +0.000 N 
ATOM      5  C   UNL     1      46.891   4.287  14.745  0.00  0.00    +0.000 A 
ATOM      6  C   UNL     1      47.620   4.620  15.883  0.00  0.00    +0.000 A 
ATOM      7  C   UNL     1      48.305   5.833  15.941  0.00  0.00    +0.000 A 
ATOM      8  H   UNL     1      46.059   5.681  11.892  0.00  0.00    +0.000 HD
ENDROOT
BRANCH   7   9
ATOM      9  C   UNL     1      49.050   6.122  17.199  0.00  0.00    +0.000 C 
ATOM     10  N   UNL     1      49.091   7.402  17.664  0.00  0.00    +0.000 N 
ATOM     11  O   UNL     1      49.622   5.231  17.814  0.00  0.00    +0.000 OA
ATOM     12  H   UNL     1      48.674   8.177  17.159  0.00  0.00    +0.000 HD
ATOM     13  H   UNL     1      49.651   7.588  18.483  0.00  0.00    +0.000 HD
ENDBRANCH   7   9
BRANCH   1  14
ATOM     14  O   UNL     1      48.873   7.871  14.827  0.00  0.00    +0.000 OA
BRANCH  14  16
ATOM     15  C   UNL     1      51.265   7.837  14.777  0.00  0.00    +0.000 C 
ATOM     16  C   UNL     1      49.997   7.861  13.941  0.00  0.00    +0.000 C 
ENDBRANCH  14  16
ENDBRANCH   1  14
BRANCH   4  17
ATOM     17  C   UNL     1      45.312   3.696  12.357  0.00  0.00    +0.000 C 
BRANCH  17  18
ATOM     18  C   UNL     1      44.281   3.751  11.187  0.00  0.00    +0.000 C 
ATOM     19  C   UNL     1      43.196   2.669  11.383  0.00  0.00    +0.000 C 
ATOM     20  C   UNL     1      43.590   5.135  11.192  0.00  0.00    +0.000 C 
BRANCH  18  21
ATOM     21  C   UNL     1      45.016   3.475   9.843  0.00  0.00    +0.000 A 
ATOM     22  C   UNL     1      45.347   4.536   8.976  0.00  0.00    +0.000 A 
ATOM     23  C   UNL     1      46.027   4.317   7.772  0.00  0.00    +0.000 A 
ATOM     24  C   UNL     1      46.393   3.028   7.398  0.00  0.00    +0.000 A 
ATOM     25  C   UNL     1      46.074   1.955   8.227  0.00  0.00    +0.000 A 
ATOM     26  C   UNL     1      45.394   2.180   9.435  0.00  0.00    +0.000 A 
BRANCH  25  27
ATOM     27  C   UNL     1      46.446   0.621   7.851  0.00  0.00    +0.000 C 
ATOM     28  N   UNL     1      46.743  -0.458   7.545  0.00  0.00    +0.000 NA
ENDBRANCH  25  27
ENDBRANCH  18  21
ENDBRANCH  17  18
ENDBRANCH   4  17
TORSDOF 7
ENDMDL
MODEL 4
REMARK VINA RESULT:    -6.448      1.869      3.104
REMARK INTER + INTRA:         -10.103
REMARK INTER:                  -8.997
REMARK INTRA:                  -1.106
REMARK UNBOUND:                -1.017
REMARK  Name = 
REMARK  10 active torsions:
REMARK  status: ('A' for Active; 'I' for Inactive)
REMARK    1  A    between atoms: C_1  and  C_2
REMARK    2  A    between atoms: C_2  and  O_3
REMARK    3  A    between atoms: O_3  and  C_4
REMARK    4  A    between atoms: N_7  and  C_8
REMARK    5  A    between atoms: C_8  and  C_9
REMARK    6  A    between atoms: C_9  and  C_10
REMARK    7  A    between atoms: C_9  and  C_11
REMARK    8  A    between atoms: C_9  and  C_12
REMARK    9  A    between atoms: C_16  and  C_17
REMARK   10  A    between atoms: C_22  and  C_23
REMARK                            x       y       z     vdW  Elec       q    Type
REMARK                         _______ _______ _______ _____ _____    ______ ____
ROOT
ATOM      1  C   UNL     1      48.862   5.360  16.629  0.00  0.00    +0.000 A 
ATOM      2  N   UNL     1      48.162   6.012  15.655  0.00  0.00    +0.000 NA
ATOM      3  C   UNL     1      47.283   5.314  14.911  0.00  0.00    +0.000 A 
ATOM      4  N   UNL     1      46.606   6.017  13.938  0.00  0.00    +0.000 N 
ATOM      5  C   UNL     1      47.093   3.957  15.125  0.00  0.00    +0.000 A 
ATOM      6  C   UNL     1      47.805   3.301  16.125  0.00  0.00    +0.000 A 
ATOM      7  C   UNL     1      48.726   4.004  16.900  0.00  0.00    +0.000 A 
ATOM      8  H   UNL     1      46.749   7.017  13.989  0.00  0.00    +0.000 HD
ENDROOT
BRANCH   7   9
ATOM      9  C   UNL     1      49.437   3.233  17.959  0.00  0.00    +0.000 C 
ATOM     10  N   UNL     1      49.299   3.615  19.260  0.00  0.00    +0.000 N 
ATOM     11  O   UNL     1      50.138   2.270  17.677  0.00  0.00    +0.000 OA
ATOM     12  H   UNL     1      48.770   4.437  19.532  0.00  0.00    +0.000 HD
ATOM     13  H   UNL     1      49.837   3.119  19.955  0.00  0.00    +0.000 HD
ENDBRANCH   7   9
BRANCH   1  14
ATOM     14  O   UNL     1      49.777   6.103  17.354  0.00  0.00    +0.000 OA
BRANCH  14  16
ATOM     15  C   UNL     1      52.108   5.653  17.058  0.00  0.00    +0.000 C 
ATOM     16  C   UNL     1      50.921   6.467  16.575  0.00  0.00    +0.000 C 
ENDBRANCH  14  16
ENDBRANCH   1  14
BRANCH   4  17
ATOM     17  C   UNL     1      45.573   5.422  13.103  0.00  0.00    +0.000 C 
BRANCH  17  18
ATOM     18  C   UNL     1      45.503   5.969  11.643  0.00  0.00    +0.000 C 
ATOM     19  C   UNL     1      44.353   6.993  11.513  0.00  0.00    +0.000 C 
ATOM     20  C   UNL     1      46.831   6.690  11.313  0.00  0.00    +0.000 C 
BRANCH  18  21
ATOM     21  C   UNL     1      45.226   4.789  10.667  0.00  0.00    +0.000 A 
ATOM     22  C   UNL     1      44.393   3.720  11.052  0.00  0.00    +0.000 A 
ATOM     23  C   UNL     1      44.109   2.658  10.186  0.00  0.00    +0.000 A 
ATOM     24  C   UNL     1      44.656   2.633   8.906  0.00  0.00    +0.000 A 
ATOM     25  C   UNL     1      45.490   3.670   8.494  0.00  0.00    +0.000 A 
ATOM     26  C   UNL     1      45.769   4.734   9.367  0.00  0.00    +0.000 A 
BRANCH  25  27
ATOM     27  C   UNL     1      46.059   3.654   7.177  0.00  0.00    +0.000 C 
ATOM     28  N   UNL     1      46.523   3.641   6.114  0.00  0.00    +0.000 NA
ENDBRANCH  25  27
ENDBRANCH  18  21
ENDBRANCH  17  18
ENDBRANCH   4  17
TORSDOF 7
ENDMDL
MODEL 5
REMARK VINA RESULT:    -6.122      3.161      8.667
REMARK INTER + INTRA:          -9.644
REMARK INTER:                  -8.726
REMARK INTRA:                  -0.918
REMARK UNBOUND:                -1.017
REMARK  Name = 
REMARK  10 active torsions:
REMARK  status: ('A' for Active; 'I' for Inactive)
REMARK    1  A    between atoms: C_1  and  C_2
REMARK    2  A    between atoms: C_2  and  O_3
REMARK    3  A    between atoms: O_3  and  C_4
REMARK    4  A    between atoms: N_7  and  C_8
REMARK    5  A    between atoms: C_8  and  C_9
REMARK    6  A    between atoms: C_9  and  C_10
REMARK    7  A    between atoms: C_9  and  C_11
REMARK    8  A    between atoms: C_9  and  C_12
REMARK    9  A    between atoms: C_16  and  C_17
REMARK   10  A    between atoms: C_22  and  C_23
REMARK                            x       y       z     vdW  Elec       q    Type
REMARK                         _______ _______ _______ _____ _____    ______ ____
ROOT
ATOM      1  C   UNL     1      45.602   5.630  11.896  0.00  0.00    +0.000 A 
ATOM      2  N   UNL     1      46.217   5.925  13.079  0.00  0.00    +0.000 NA
ATOM      3  C   UNL     1      46.525   4.918  13.918  0.00  0.00    +0.000 A 
ATOM      4  N   UNL     1      47.139   5.268  15.100  0.00  0.00    +0.000 N 
ATOM      5  C   UNL     1      46.221   3.604  13.591  0.00  0.00    +0.000 A 
ATOM      6  C   UNL     1      45.601   3.311  12.380  0.00  0.00    +0.000 A 
ATOM      7  C   UNL     1      45.266   4.340  11.502  0.00  0.00    +0.000 A 
ATOM      8  H   UNL     1      47.417   6.241  15.139  0.00  0.00    +0.000 HD
ENDROOT
BRANCH   7   9
ATOM      9  C   UNL     1      44.617   3.943  10.220  0.00  0.00    +0.000 C 
ATOM     10  N   UNL     1      43.788   4.827   9.597  0.00  0.00    +0.000 N 
ATOM     11  O   UNL     1      44.816   2.841   9.725  0.00  0.00    +0.000 OA
ATOM     12  H   UNL     1      43.555   5.729   9.999  0.00  0.00    +0.000 HD
ATOM     13  H   UNL     1      43.310   4.517   8.764  0.00  0.00    +0.000 HD
ENDBRANCH   7   9
BRANCH   1  14
ATOM     14  O   UNL     1      45.274   6.693  11.073  0.00  0.00    +0.000 OA
BRANCH  14  16
ATOM     15  C   UNL     1      44.279   8.867  11.170  0.00  0.00    +0.000 C 
ATOM     16  C   UNL     1      45.339   7.950  11.754  0.00  0.00    +0.000 C 
ENDBRANCH  14  16
ENDBRANCH   1  14
BRANCH   4  17
ATOM     17  C   UNL     1      47.600   4.291  16.076  0.00  0.00    +0.000 C 
BRANCH  17  18
ATOM     18  C   UNL     1      48.522   4.858  17.199  0.00  0.00    +0.000 C 
ATOM     19  C   UNL     1      49.043   6.258  16.804  0.00  0.00    +0.000 C 
ATOM     20  C   UNL     1      47.698   5.001  18.501  0.00  0.00    +0.000 C 
BRANCH  18  21
ATOM     21  C   UNL     1      49.743   3.913  17.387  0.00  0.00    +0.000 A 
ATOM     22  C   UNL     1      49.637   2.537  17.097  0.00  0.00    +0.000 A 
ATOM     23  C   UNL     1      50.726   1.669  17.236  0.00  0.00    +0.000 A 
ATOM     24  C   UNL     1      51.956   2.152  17.673  0.00  0.00    +0.000 A 
ATOM     25  C   UNL     1      52.095   3.505  17.976  0.00  0.00    +0.000 A 
ATOM     26  C   UNL     1      51.000   4.372  17.833  0.00  0.00    +0.000 A 
BRANCH  25  27
ATOM     27  C   UNL     1      53.358   4.013  18.428  0.00  0.00    +0.000 C 
ATOM     28  N   UNL     1      54.378   4.427  18.795  0.00  0.00    +0.000 NA
ENDBRANCH  25  27
ENDBRANCH  18  21
ENDBRANCH  17  18
ENDBRANCH   4  17
TORSDOF 7
ENDMDL
MODEL 6
REMARK VINA RESULT:    -6.109      3.700      8.562
REMARK INTER + INTRA:          -9.626
REMARK INTER:                  -8.830
REMARK INTRA:                  -0.796
REMARK UNBOUND:                -1.017
REMARK  Name = 
REMARK  10 active torsions:
REMARK  status: ('A' for Active; 'I' for Inactive)
REMARK    1  A    between atoms: C_1  and  C_2
REMARK    2  A    between atoms: C_2  and  O_3
REMARK    3  A    between atoms: O_3  and  C_4
REMARK    4  A    between atoms: N_7  and  C_8
REMARK    5  A    between atoms: C_8  and  C_9
REMARK    6  A    between atoms: C_9  and  C_10
REMARK    7  A    between atoms: C_9  and  C_11
REMARK    8  A    between atoms: C_9  and  C_12
REMARK    9  A    between atoms: C_16  and  C_17
REMARK   10  A    between atoms: C_22  and  C_23
REMARK                            x       y       z     vdW  Elec       q    Type
REMARK                         _______ _______ _______ _____ _____    ______ ____
ROOT
ATOM      1  C   UNL     1      45.290   4.655  12.739  0.00  0.00    +0.000 A 
ATOM      2  N   UNL     1      45.675   4.170  13.955  0.00  0.00    +0.000 NA
ATOM      3  C   UNL     1      46.791   4.661  14.526  0.00  0.00    +0.000 A 
ATOM      4  N   UNL     1      47.140   4.135  15.751  0.00  0.00    +0.000 N 
ATOM      5  C   UNL     1      47.541   5.640  13.890  0.00  0.00    +0.000 A 
ATOM      6  C   UNL     1      47.139   6.135  12.653  0.00  0.00    +0.000 A 
ATOM      7  C   UNL     1      45.990   5.633  12.042  0.00  0.00    +0.000 A 
ATOM      8  H   UNL     1      46.430   3.532  16.148  0.00  0.00    +0.000 HD
ENDROOT
BRANCH   7   9
ATOM      9  C   UNL     1      45.619   6.224  10.726  0.00  0.00    +0.000 C 
ATOM     10  N   UNL     1      44.900   7.382  10.700  0.00  0.00    +0.000 N 
ATOM     11  O   UNL     1      45.947   5.688   9.675  0.00  0.00    +0.000 OA
ATOM     12  H   UNL     1      44.564   7.832  11.546  0.00  0.00    +0.000 HD
ATOM     13  H   UNL     1      44.605   7.734   9.801  0.00  0.00    +0.000 HD
ENDBRANCH   7   9
BRANCH   1  14
ATOM     14  O   UNL     1      44.155   4.106  12.170  0.00  0.00    +0.000 OA
BRANCH  14  16
ATOM     15  C   UNL     1      42.245   5.501  11.806  0.00  0.00    +0.000 C 
ATOM     16  C   UNL     1      42.953   4.581  12.786  0.00  0.00    +0.000 C 
ENDBRANCH  14  16
ENDBRANCH   1  14
BRANCH   4  17
ATOM     17  C   UNL     1      48.275   4.613  16.527  0.00  0.00    +0.000 C 
BRANCH  17  18
ATOM     18  C   UNL     1      48.536   3.847  17.861  0.00  0.00    +0.000 C 
ATOM     19  C   UNL     1      48.385   4.806  19.063  0.00  0.00    +0.000 C 
ATOM     20  C   UNL     1      47.486   2.721  18.007  0.00  0.00    +0.000 C 
BRANCH  18  21
ATOM     21  C   UNL     1      49.988   3.289  17.855  0.00  0.00    +0.000 A 
ATOM     22  C   UNL     1      50.260   2.001  17.349  0.00  0.00    +0.000 A 
ATOM     23  C   UNL     1      51.560   1.484  17.312  0.00  0.00    +0.000 A 
ATOM     24  C   UNL     1      52.628   2.239  17.785  0.00  0.00    +0.000 A 
ATOM     25  C   UNL     1      52.395   3.513  18.300  0.00  0.00    +0.000 A 
ATOM     26  C   UNL     1      51.090   4.028  18.333  0.00  0.00    +0.000 A 
BRANCH  25  27
ATOM     27  C   UNL     1      53.490   4.300  18.791  0.00  0.00    +0.000 C 
ATOM     28  N   UNL     1      54.378   4.934  19.185  0.00  0.00    +0.000 NA
ENDBRANCH  25  27
ENDBRANCH  18  21
ENDBRANCH  17  18
ENDBRANCH   4  17
TORSDOF 7
ENDMDL
MODEL 7
REMARK VINA RESULT:    -6.103      3.283      8.175
REMARK INTER + INTRA:          -9.617
REMARK INTER:                  -8.253
REMARK INTRA:                  -1.364
REMARK UNBOUND:                -1.017
REMARK  Name = 
REMARK  10 active torsions:
REMARK  status: ('A' for Active; 'I' for Inactive)
REMARK    1  A    between atoms: C_1  and  C_2
REMARK    2  A    between atoms: C_2  and  O_3
REMARK    3  A    between atoms: O_3  and  C_4
REMARK    4  A    between atoms: N_7  and  C_8
REMARK    5  A    between atoms: C_8  and  C_9
REMARK    6  A    between atoms: C_9  and  C_10
REMARK    7  A    between atoms: C_9  and  C_11
REMARK    8  A    between atoms: C_9  and  C_12
REMARK    9  A    between atoms: C_16  and  C_17
REMARK   10  A    between atoms: C_22  and  C_23
REMARK                            x       y       z     vdW  Elec       q    Type
REMARK                         _______ _______ _______ _____ _____    ______ ____
ROOT
ATOM      1  C   UNL     1      44.586   4.936  12.849  0.00  0.00    +0.000 A 
ATOM      2  N   UNL     1      45.246   4.048  13.649  0.00  0.00    +0.000 NA
ATOM      3  C   UNL     1      46.465   4.376  14.115  0.00  0.00    +0.000 A 
ATOM      4  N   UNL     1      47.091   3.444  14.914  0.00  0.00    +0.000 N 
ATOM      5  C   UNL     1      47.046   5.592  13.787  0.00  0.00    +0.000 A 
ATOM      6  C   UNL     1      46.365   6.496  12.977  0.00  0.00    +0.000 A 
ATOM      7  C   UNL     1      45.104   6.171  12.477  0.00  0.00    +0.000 A 
ATOM      8  H   UNL     1      46.494   2.669  15.174  0.00  0.00    +0.000 HD
ENDROOT
BRANCH   7   9
ATOM      9  C   UNL     1      44.434   7.197  11.630  0.00  0.00    +0.000 C 
ATOM     10  N   UNL     1      43.206   6.923  11.106  0.00  0.00    +0.000 N 
ATOM     11  O   UNL     1      44.969   8.273  11.398  0.00  0.00    +0.000 OA
ATOM     12  H   UNL     1      42.751   6.025  11.231  0.00  0.00    +0.000 HD
ATOM     13  H   UNL     1      42.796   7.605  10.485  0.00  0.00    +0.000 HD
ENDBRANCH   7   9
BRANCH   1  14
ATOM     14  O   UNL     1      43.348   4.552  12.365  0.00  0.00    +0.000 OA
BRANCH  14  16
ATOM     15  C   UNL     1      43.974   3.316  10.415  0.00  0.00    +0.000 C 
ATOM     16  C   UNL     1      43.367   3.235  11.804  0.00  0.00    +0.000 C 
ENDBRANCH  14  16
ENDBRANCH   1  14
BRANCH   4  17
ATOM     17  C   UNL     1      48.378   3.680  15.552  0.00  0.00    +0.000 C 
BRANCH  17  18
ATOM     18  C   UNL     1      48.349   3.707  17.112  0.00  0.00    +0.000 C 
ATOM     19  C   UNL     1      47.124   2.923  17.636  0.00  0.00    +0.000 C 
ATOM     20  C   UNL     1      49.627   3.019  17.649  0.00  0.00    +0.000 C 
BRANCH  18  21
ATOM     21  C   UNL     1      48.236   5.180  17.598  0.00  0.00    +0.000 A 
ATOM     22  C   UNL     1      47.538   5.494  18.781  0.00  0.00    +0.000 A 
ATOM     23  C   UNL     1      47.441   6.808  19.253  0.00  0.00    +0.000 A 
ATOM     24  C   UNL     1      48.036   7.851  18.549  0.00  0.00    +0.000 A 
ATOM     25  C   UNL     1      48.727   7.578  17.370  0.00  0.00    +0.000 A 
ATOM     26  C   UNL     1      48.825   6.258  16.904  0.00  0.00    +0.000 A 
BRANCH  25  27
ATOM     27  C   UNL     1      49.345   8.646  16.637  0.00  0.00    +0.000 C 
ATOM     28  N   UNL     1      49.841   9.510  16.042  0.00  0.00    +0.000 NA
ENDBRANCH  25  27
ENDBRANCH  18  21
ENDBRANCH  17  18
ENDBRANCH   4  17
TORSDOF 7
ENDMDL
MODEL 8
REMARK VINA RESULT:    -6.094      3.433      8.382
REMARK INTER + INTRA:          -9.604
REMARK INTER:                  -8.535
REMARK INTRA:                  -1.069
REMARK UNBOUND:                -1.017
REMARK  Name = 
REMARK  10 active torsions:
REMARK  status: ('A' for Active; 'I' for Inactive)
REMARK    1  A    between atoms: C_1  and  C_2
REMARK    2  A    between atoms: C_2  and  O_3
REMARK    3  A    between atoms: O_3  and  C_4
REMARK    4  A    between atoms: N_7  and  C_8
REMARK    5  A    between atoms: C_8  and  C_9
REMARK    6  A    between atoms: C_9  and  C_10
REMARK    7  A    between atoms: C_9  and  C_11
REMARK    8  A    between atoms: C_9  and  C_12
REMARK    9  A    between atoms: C_16  and  C_17
REMARK   10  A    between atoms: C_22  and  C_23
REMARK                            x       y       z     vdW  Elec       q    Type
REMARK                         _______ _______ _______ _____ _____    ______ ____
ROOT
ATOM      1  C   UNL     1      45.066   4.811  13.050  0.00  0.00    +0.000 A 
ATOM      2  N   UNL     1      45.484   4.380  14.276  0.00  0.00    +0.000 NA
ATOM      3  C   UNL     1      46.710   4.736  14.706  0.00  0.00    +0.000 A 
ATOM      4  N   UNL     1      47.087   4.271  15.947  0.00  0.00    +0.000 N 
ATOM      5  C   UNL     1      47.536   5.524  13.918  0.00  0.00    +0.000 A 
ATOM      6  C   UNL     1      47.100   5.966  12.672  0.00  0.00    +0.000 A 
ATOM      7  C   UNL     1      45.838   5.600  12.206  0.00  0.00    +0.000 A 
ATOM      8  H   UNL     1      46.334   3.825  16.457  0.00  0.00    +0.000 HD
ENDROOT
BRANCH   7   9
ATOM      9  C   UNL     1      45.440   6.126  10.870  0.00  0.00    +0.000 C 
ATOM     10  N   UNL     1      44.449   7.058  10.794  0.00  0.00    +0.000 N 
ATOM     11  O   UNL     1      45.986   5.732   9.847  0.00  0.00    +0.000 OA
ATOM     12  H   UNL     1      43.935   7.372  11.611  0.00  0.00    +0.000 HD
ATOM     13  H   UNL     1      44.151   7.355   9.877  0.00  0.00    +0.000 HD
ENDBRANCH   7   9
BRANCH   1  14
ATOM     14  O   UNL     1      43.813   4.400  12.630  0.00  0.00    +0.000 OA
BRANCH  14  16
ATOM     15  C   UNL     1      43.777   2.833  10.823  0.00  0.00    +0.000 C 
ATOM     16  C   UNL     1      43.771   3.001  12.332  0.00  0.00    +0.000 C 
ENDBRANCH  14  16
ENDBRANCH   1  14
BRANCH   4  17
ATOM     17  C   UNL     1      48.347   4.629  16.580  0.00  0.00    +0.000 C 
BRANCH  17  18
ATOM     18  C   UNL     1      49.057   3.470  17.347  0.00  0.00    +0.000 C 
ATOM     19  C   UNL     1      48.429   3.297  18.749  0.00  0.00    +0.000 C 
ATOM     20  C   UNL     1      48.857   2.152  16.563  0.00  0.00    +0.000 C 
BRANCH  18  21
ATOM     21  C   UNL     1      50.563   3.819  17.522  0.00  0.00    +0.000 A 
ATOM     22  C   UNL     1      51.015   5.145  17.369  0.00  0.00    +0.000 A 
ATOM     23  C   UNL     1      52.361   5.489  17.542  0.00  0.00    +0.000 A 
ATOM     24  C   UNL     1      53.297   4.513  17.870  0.00  0.00    +0.000 A 
ATOM     25  C   UNL     1      52.887   3.190  18.021  0.00  0.00    +0.000 A 
ATOM     26  C   UNL     1      51.535   2.851  17.848  0.00  0.00    +0.000 A 
BRANCH  25  27
ATOM     27  C   UNL     1      53.844   2.176  18.358  0.00  0.00    +0.000 C 
ATOM     28  N   UNL     1      54.616   1.352  18.629  0.00  0.00    +0.000 NA
ENDBRANCH  25  27
ENDBRANCH  18  21
ENDBRANCH  17  18
ENDBRANCH   4  17
TORSDOF 7
ENDMDL
MODEL 9
REMARK VINA RESULT:    -6.019      3.411      8.301
REMARK INTER + INTRA:          -9.499
REMARK INTER:                  -8.396
REMARK INTRA:                  -1.103
REMARK UNBOUND:                -1.017
REMARK  Name = 
REMARK  10 active torsions:
REMARK  status: ('A' for Active; 'I' for Inactive)
REMARK    1  A    between atoms: C_1  and  C_2
REMARK    2  A    between atoms: C_2  and  O_3
REMARK    3  A    between atoms: O_3  and  C_4
REMARK    4  A    between atoms: N_7  and  C_8
REMARK    5  A    between atoms: C_8  and  C_9
REMARK    6  A    between atoms: C_9  and  C_10
REMARK    7  A    between atoms: C_9  and  C_11
REMARK    8  A    between atoms: C_9  and  C_12
REMARK    9  A    between atoms: C_16  and  C_17
REMARK   10  A    between atoms: C_22  and  C_23
REMARK                            x       y       z     vdW  Elec       q    Type
REMARK                         _______ _______ _______ _____ _____    ______ ____
ROOT
ATOM      1  C   UNL     1      45.646   4.245  12.488  0.00  0.00    +0.000 A 
ATOM      2  N   UNL     1      46.029   3.680  13.670  0.00  0.00    +0.000 NA
ATOM      3  C   UNL     1      46.815   4.388  14.504  0.00  0.00    +0.000 A 
ATOM      4  N   UNL     1      47.178   3.771  15.681  0.00  0.00    +0.000 N 
ATOM      5  C   UNL     1      47.232   5.667  14.168  0.00  0.00    +0.000 A 
ATOM      6  C   UNL     1      46.832   6.240  12.964  0.00  0.00    +0.000 A 
ATOM      7  C   UNL     1      46.026   5.520  12.084  0.00  0.00    +0.000 A 
ATOM      8  H   UNL     1      46.690   2.899  15.847  0.00  0.00    +0.000 HD
ENDROOT
BRANCH   7   9
ATOM      9  C   UNL     1      45.629   6.208  10.824  0.00  0.00    +0.000 C 
ATOM     10  N   UNL     1      45.710   5.528   9.645  0.00  0.00    +0.000 N 
ATOM     11  O   UNL     1      45.236   7.367  10.832  0.00  0.00    +0.000 OA
ATOM     12  H   UNL     1      46.079   4.584   9.587  0.00  0.00    +0.000 HD
ATOM     13  H   UNL     1      45.496   6.030   8.796  0.00  0.00    +0.000 HD
ENDBRANCH   7   9
BRANCH   1  14
ATOM     14  O   UNL     1      44.863   3.477  11.645  0.00  0.00    +0.000 OA
BRANCH  14  16
ATOM     15  C   UNL     1      42.710   4.516  11.728  0.00  0.00    +0.000 C 
ATOM     16  C   UNL     1      43.532   3.308  12.142  0.00  0.00    +0.000 C 
ENDBRANCH  14  16
ENDBRANCH   1  14
BRANCH   4  17
ATOM     17  C   UNL     1      47.961   4.431  16.715  0.00  0.00    +0.000 C 
BRANCH  17  18
ATOM     18  C   UNL     1      49.019   3.530  17.423  0.00  0.00    +0.000 C 
ATOM     19  C   UNL     1      48.613   3.288  18.895  0.00  0.00    +0.000 C 
ATOM     20  C   UNL     1      49.072   2.160  16.707  0.00  0.00    +0.000 C 
BRANCH  18  21
ATOM     21  C   UNL     1      50.399   4.247  17.404  0.00  0.00    +0.000 A 
ATOM     22  C   UNL     1      51.564   3.574  17.826  0.00  0.00    +0.000 A 
ATOM     23  C   UNL     1      52.821   4.189  17.798  0.00  0.00    +0.000 A 
ATOM     24  C   UNL     1      52.950   5.500  17.349  0.00  0.00    +0.000 A 
ATOM     25  C   UNL     1      51.818   6.199  16.933  0.00  0.00    +0.000 A 
ATOM     26  C   UNL     1      50.560   5.576  16.960  0.00  0.00    +0.000 A 
BRANCH  25  27
ATOM     27  C   UNL     1      51.939   7.551  16.469  0.00  0.00    +0.000 C 
ATOM     28  N   UNL     1      52.034   8.646  16.095  0.00  0.00    +0.000 NA
ENDBRANCH  25  27
ENDBRANCH  18  21
ENDBRANCH  17  18
ENDBRANCH   4  17
TORSDOF 7
ENDMDL
