MODEL 1
REMARK VINA RESULT:    -7.762      0.000      0.000
REMARK INTER + INTRA:         -11.393
REMARK INTER:                 -10.712
REMARK INTRA:                  -0.682
REMARK UNBOUND:                -0.682
REMARK  Name = 
REMARK  7 active torsions:
REMARK  status: ('A' for Active; 'I' for Inactive)
REMARK    1  A    between atoms: N_1  and  C_2
REMARK    2  A    between atoms: C_2  and  C_3
REMARK    3  A    between atoms: C_3  and  O_4
REMARK    4  A    between atoms: O_4  and  C_5
REMARK    5  A    between atoms: C_9  and  C_10
REMARK    6  A    between atoms: C_10  and  N_11
REMARK    7  A    between atoms: C_16  and  C_17
REMARK                            x       y       z     vdW  Elec       q    Type
REMARK                         _______ _______ _______ _____ _____    ______ ____
ROOT
ATOM      1  N   UNL     1      44.276   4.384  10.544  0.00  0.00    +0.000 N 
ATOM      2  C   UNL     1      43.671   3.231  10.985  0.00  0.00    +0.000 A 
ATOM      3  C   UNL     1      44.116   2.190  10.205  0.00  0.00    +0.000 A 
ATOM      4  C   UNL     1      45.023   2.721   9.249  0.00  0.00    +0.000 A 
ATOM      5  C   UNL     1      45.756   2.142   8.189  0.00  0.00    +0.000 A 
ATOM      6  C   UNL     1      46.577   2.949   7.388  0.00  0.00    +0.000 A 
ATOM      7  C   UNL     1      46.672   4.318   7.660  0.00  0.00    +0.000 A 
ATOM      8  C   UNL     1      45.953   4.914   8.705  0.00  0.00    +0.000 A 
ATOM      9  C   UNL     1      45.122   4.095   9.486  0.00  0.00    +0.000 A 
ENDROOT
BRANCH   6  10
ATOM     10  C   UNL     1      47.358   2.418   6.231  0.00  0.00    +0.000 C 
ATOM     11  N   UNL     1      47.264   3.051   5.023  0.00  0.00    +0.000 N 
ATOM     12  O   UNL     1      48.085   1.438   6.346  0.00  0.00    +0.000 OA
ATOM     13  H   UNL     1      46.707   3.867   4.831  0.00  0.00    +0.000 HD
ATOM     14  H   UNL     1      47.820   2.670   4.267  0.00  0.00    +0.000 HD
ENDBRANCH   6  10
BRANCH   1  15
ATOM     15  C   UNL     1      43.945   5.712  11.049  0.00  0.00    +0.000 C 
BRANCH  15  20
ATOM     16  C   UNL     1      46.844   5.958  13.501  0.00  0.00    +0.000 A 
ATOM     17  C   UNL     1      46.972   7.341  13.531  0.00  0.00    +0.000 A 
ATOM     18  N   UNL     1      46.200   8.196  12.815  0.00  0.00    +0.000 NA
ATOM     19  C   UNL     1      45.242   7.644  12.037  0.00  0.00    +0.000 A 
ATOM     20  C   UNL     1      45.026   6.274  11.926  0.00  0.00    +0.000 A 
ATOM     21  C   UNL     1      45.854   5.432  12.675  0.00  0.00    +0.000 A 
BRANCH  16  22
ATOM     22  O   UNL     1      47.695   5.235  14.291  0.00  0.00    +0.000 OA
BRANCH  22  23
ATOM     23  C   UNL     1      47.087   4.165  15.030  0.00  0.00    +0.000 C 
BRANCH  23  24
ATOM     24  C   UNL     1      47.399   4.301  16.523  0.00  0.00    +0.000 C 
BRANCH  24  25
ATOM     25  N   UNL     1      46.653   3.338  17.335  0.00  0.00    +0.000 NA
ATOM     26  H   UNL     1      45.994   3.840  17.930  0.00  0.00    +0.000 HD
ATOM     27  H   UNL     1      47.310   2.872  17.962  0.00  0.00    +0.000 HD
ENDBRANCH  24  25
ENDBRANCH  23  24
ENDBRANCH  22  23
ENDBRANCH  16  22
ENDBRANCH  15  20
ENDBRANCH   1  15
TORSDOF 7
ENDMDL
MODEL 2
REMARK VINA RESULT:    -7.307      2.335      6.955
REMARK INTER + INTRA:         -10.765
REMARK INTER:                 -10.042
REMARK INTRA:                  -0.723
REMARK UNBOUND:                -0.682
REMARK  Name = 
REMARK  7 active torsions:
REMARK  status: ('A' for Active; 'I' for Inactive)
REMARK    1  A    between atoms: N_1  and  C_2
REMARK    2  A    between atoms: C_2  and  C_3
REMARK    3  A    between atoms: C_3  and  O_4
REMARK    4  A    between atoms: O_4  and  C_5
REMARK    5  A    between atoms: C_9  and  C_10
REMARK    6  A    between atoms: C_10  and  N_11
REMARK    7  A    between atoms: C_16  and  C_17
REMARK                            x       y       z     vdW  Elec       q    Type
REMARK                         _______ _______ _______ _____ _____    ______ ____
ROOT
ATOM      1  N   UNL     1      45.549   5.633  12.603  0.00  0.00    +0.000 N 
ATOM      2  C   UNL     1      45.730   4.697  13.594  0.00  0.00    +0.000 A 
ATOM      3  C   UNL     1      46.960   4.914  14.166  0.00  0.00    +0.000 A 
ATOM      4  C   UNL     1      47.560   6.018  13.502  0.00  0.00    +0.000 A 
ATOM      5  C   UNL     1      48.809   6.664  13.637  0.00  0.00    +0.000 A 
ATOM      6  C   UNL     1      49.127   7.746  12.804  0.00  0.00    +0.000 A 
ATOM      7  C   UNL     1      48.194   8.184  11.858  0.00  0.00    +0.000 A 
ATOM      8  C   UNL     1      46.949   7.559  11.707  0.00  0.00    +0.000 A 
ATOM      9  C   UNL     1      46.654   6.466  12.535  0.00  0.00    +0.000 A 
ENDROOT
BRANCH   6  10
ATOM     10  C   UNL     1      50.438   8.460  12.864  0.00  0.00    +0.000 C 
ATOM     11  N   UNL     1      51.524   7.902  12.249  0.00  0.00    +0.000 N 
ATOM     12  O   UNL     1      50.555   9.534  13.442  0.00  0.00    +0.000 OA
ATOM     13  H   UNL     1      51.527   7.033  11.740  0.00  0.00    +0.000 HD
ATOM     14  H   UNL     1      52.391   8.422  12.299  0.00  0.00    +0.000 HD
ENDBRANCH   6  10
BRANCH   1  15
ATOM     15  C   UNL     1      44.410   5.630  11.690  0.00  0.00    +0.000 C 
BRANCH  15  20
ATOM     16  C   UNL     1      45.504   4.059   8.402  0.00  0.00    +0.000 A 
ATOM     17  C   UNL     1      44.852   2.838   8.530  0.00  0.00    +0.000 A 
ATOM     18  N   UNL     1      44.095   2.484   9.598  0.00  0.00    +0.000 NA
ATOM     19  C   UNL     1      43.972   3.399  10.585  0.00  0.00    +0.000 A 
ATOM     20  C   UNL     1      44.583   4.649  10.567  0.00  0.00    +0.000 A 
ATOM     21  C   UNL     1      45.362   4.964   9.450  0.00  0.00    +0.000 A 
BRANCH  16  22
ATOM     22  O   UNL     1      46.222   4.266   7.257  0.00  0.00    +0.000 OA
BRANCH  22  23
ATOM     23  C   UNL     1      46.494   3.090   6.480  0.00  0.00    +0.000 C 
BRANCH  23  24
ATOM     24  C   UNL     1      47.873   2.523   6.833  0.00  0.00    +0.000 C 
BRANCH  24  25
ATOM     25  N   UNL     1      48.500   1.848   5.696  0.00  0.00    +0.000 NA
ATOM     26  H   UNL     1      47.853   1.845   4.908  0.00  0.00    +0.000 HD
ATOM     27  H   UNL     1      48.650   0.870   5.948  0.00  0.00    +0.000 HD
ENDBRANCH  24  25
ENDBRANCH  23  24
ENDBRANCH  22  23
ENDBRANCH  16  22
ENDBRANCH  15  20
ENDBRANCH   1  15
TORSDOF 7
ENDMDL
MODEL 3
REMARK VINA RESULT:    -7.132      1.967      2.029
REMARK INTER + INTRA:         -10.524
REMARK INTER:                  -9.782
REMARK INTRA:                  -0.743
REMARK UNBOUND:                -0.682
REMARK  Name = 
REMARK  7 active torsions:
REMARK  status: ('A' for Active; 'I' for Inactive)
REMARK    1  A    between atoms: N_1  and  C_2
REMARK    2  A    between atoms: C_2  and  C_3
REMARK    3  A    between atoms: C_3  and  O_4
REMARK    4  A    between atoms: O_4  and  C_5
REMARK    5  A    between atoms: C_9  and  C_10
REMARK    6  A    between atoms: C_10  and  N_11
REMARK    7  A    between atoms: C_16  and  C_17
REMARK                            x       y       z     vdW  Elec       q    Type
REMARK                         _______ _______ _______ _____ _____    ______ ____
ROOT
ATOM      1  N   UNL     1      43.977   4.572  10.663  0.00  0.00    +0.000 N 
ATOM      2  C   UNL     1      43.425   3.500  11.322  0.00  0.00    +0.000 A 
ATOM      3  C   UNL     1      43.947   2.350  10.778  0.00  0.00    +0.000 A 
ATOM      4  C   UNL     1      44.848   2.728   9.747  0.00  0.00    +0.000 A 
ATOM      5  C   UNL     1      45.641   1.990   8.840  0.00  0.00    +0.000 A 
ATOM      6  C   UNL     1      46.438   2.664   7.903  0.00  0.00    +0.000 A 
ATOM      7  C   UNL     1      46.450   4.063   7.891  0.00  0.00    +0.000 A 
ATOM      8  C   UNL     1      45.672   4.815   8.781  0.00  0.00    +0.000 A 
ATOM      9  C   UNL     1      44.866   4.125   9.699  0.00  0.00    +0.000 A 
ENDROOT
BRANCH   6  10
ATOM     10  C   UNL     1      47.277   1.956   6.891  0.00  0.00    +0.000 C 
ATOM     11  N   UNL     1      48.332   2.617   6.327  0.00  0.00    +0.000 N 
ATOM     12  O   UNL     1      47.045   0.797   6.565  0.00  0.00    +0.000 OA
ATOM     13  H   UNL     1      48.611   3.561   6.536  0.00  0.00    +0.000 HD
ATOM     14  H   UNL     1      48.887   2.099   5.657  0.00  0.00    +0.000 HD
ENDBRANCH   6  10
BRANCH   1  15
ATOM     15  C   UNL     1      43.561   5.954  10.881  0.00  0.00    +0.000 C 
BRANCH  15  20
ATOM     16  C   UNL     1      46.556   6.936  13.013  0.00  0.00    +0.000 A 
ATOM     17  C   UNL     1      46.543   8.304  12.769  0.00  0.00    +0.000 A 
ATOM     18  N   UNL     1      45.648   8.928  11.963  0.00  0.00    +0.000 NA
ATOM     19  C   UNL     1      44.709   8.150  11.381  0.00  0.00    +0.000 A 
ATOM     20  C   UNL     1      44.628   6.771  11.550  0.00  0.00    +0.000 A 
ATOM     21  C   UNL     1      45.579   6.171  12.380  0.00  0.00    +0.000 A 
BRANCH  16  22
ATOM     22  O   UNL     1      47.520   6.461  13.858  0.00  0.00    +0.000 OA
BRANCH  22  23
ATOM     23  C   UNL     1      48.254   7.464  14.578  0.00  0.00    +0.000 C 
BRANCH  23  24
ATOM     24  C   UNL     1      49.761   7.243  14.416  0.00  0.00    +0.000 C 
BRANCH  24  25
ATOM     25  N   UNL     1      50.193   7.373  13.024  0.00  0.00    +0.000 NA
ATOM     26  H   UNL     1      50.734   8.231  12.919  0.00  0.00    +0.000 HD
ATOM     27  H   UNL     1      49.362   7.484  12.441  0.00  0.00    +0.000 HD
ENDBRANCH  24  25
ENDBRANCH  23  24
ENDBRANCH  22  23
ENDBRANCH  16  22
ENDBRANCH  15  20
ENDBRANCH   1  15
TORSDOF 7
ENDMDL
MODEL 4
REMARK VINA RESULT:    -6.999      2.032      7.184
REMARK INTER + INTRA:         -10.340
REMARK INTER:                  -9.677
REMARK INTRA:                  -0.663
REMARK UNBOUND:                -0.682
REMARK  Name = 
REMARK  7 active torsions:
REMARK  status: ('A' for Active; 'I' for Inactive)
REMARK    1  A    between atoms: N_1  and  C_2
REMARK    2  A    between atoms: C_2  and  C_3
REMARK    3  A    between atoms: C_3  and  O_4
REMARK    4  A    between atoms: O_4  and  C_5
REMARK    5  A    between atoms: C_9  and  C_10
REMARK    6  A    between atoms: C_10  and  N_11
REMARK    7  A    between atoms: C_16  and  C_17
REMARK                            x       y       z     vdW  Elec       q    Type
REMARK                         _______ _______ _______ _____ _____    ______ ____
ROOT
ATOM      1  N   UNL     1      44.613   6.831  11.709  0.00  0.00    +0.000 N 
ATOM      2  C   UNL     1      44.538   8.163  11.380  0.00  0.00    +0.000 A 
ATOM      3  C   UNL     1      45.618   8.803  11.939  0.00  0.00    +0.000 A 
ATOM      4  C   UNL     1      46.382   7.832  12.641  0.00  0.00    +0.000 A 
ATOM      5  C   UNL     1      47.559   7.908  13.418  0.00  0.00    +0.000 A 
ATOM      6  C   UNL     1      48.078   6.748  14.012  0.00  0.00    +0.000 A 
ATOM      7  C   UNL     1      47.430   5.525  13.811  0.00  0.00    +0.000 A 
ATOM      8  C   UNL     1      46.261   5.426  13.044  0.00  0.00    +0.000 A 
ATOM      9  C   UNL     1      45.745   6.599  12.473  0.00  0.00    +0.000 A 
ENDROOT
BRANCH   6  10
ATOM     10  C   UNL     1      49.298   6.752  14.873  0.00  0.00    +0.000 C 
ATOM     11  N   UNL     1      50.419   7.396  14.430  0.00  0.00    +0.000 N 
ATOM     12  O   UNL     1      49.310   6.199  15.967  0.00  0.00    +0.000 OA
ATOM     13  H   UNL     1      50.505   7.889  13.556  0.00  0.00    +0.000 HD
ATOM     14  H   UNL     1      51.221   7.390  15.048  0.00  0.00    +0.000 HD
ENDBRANCH   6  10
BRANCH   1  15
ATOM     15  C   UNL     1      43.565   5.863  11.399  0.00  0.00    +0.000 C 
BRANCH  15  20
ATOM     16  C   UNL     1      45.351   3.969   8.625  0.00  0.00    +0.000 A 
ATOM     17  C   UNL     1      44.922   2.685   8.942  0.00  0.00    +0.000 A 
ATOM     18  N   UNL     1      44.109   2.388   9.986  0.00  0.00    +0.000 NA
ATOM     19  C   UNL     1      43.692   3.424  10.746  0.00  0.00    +0.000 A 
ATOM     20  C   UNL     1      44.061   4.748  10.526  0.00  0.00    +0.000 A 
ATOM     21  C   UNL     1      44.909   5.004   9.444  0.00  0.00    +0.000 A 
BRANCH  16  22
ATOM     22  O   UNL     1      46.163   4.103   7.533  0.00  0.00    +0.000 OA
BRANCH  22  23
ATOM     23  C   UNL     1      47.058   3.006   7.293  0.00  0.00    +0.000 C 
BRANCH  23  24
ATOM     24  C   UNL     1      47.208   2.757   5.789  0.00  0.00    +0.000 C 
BRANCH  24  25
ATOM     25  N   UNL     1      48.393   1.956   5.477  0.00  0.00    +0.000 NA
ATOM     26  H   UNL     1      48.944   1.827   6.325  0.00  0.00    +0.000 HD
ATOM     27  H   UNL     1      48.978   2.490   4.832  0.00  0.00    +0.000 HD
ENDBRANCH  24  25
ENDBRANCH  23  24
ENDBRANCH  22  23
ENDBRANCH  16  22
ENDBRANCH  15  20
ENDBRANCH   1  15
TORSDOF 7
ENDMDL
MODEL 5
REMARK VINA RESULT:    -6.887      2.227      3.970
REMARK INTER + INTRA:         -10.186
REMARK INTER:                  -9.697
REMARK INTRA:                  -0.489
REMARK UNBOUND:                -0.682
REMARK  Name = 
REMARK  7 active torsions:
REMARK  status: ('A' for Active; 'I' for Inactive)
REMARK    1  A    between atoms: N_1  and  C_2
REMARK    2  A    between atoms: C_2  and  C_3
REMARK    3  A    between atoms: C_3  and  O_4
REMARK    4  A    between atoms: O_4  and  C_5
REMARK    5  A    between atoms: C_9  and  C_10
REMARK    6  A    between atoms: C_10  and  N_11
REMARK    7  A    between atoms: C_16  and  C_17
REMARK                            x       y       z     vdW  Elec       q    Type
REMARK                         _______ _______ _______ _____ _____    ______ ____
ROOT
ATOM      1  N   UNL     1      43.910   4.413  10.549  0.00  0.00    +0.000 N 
ATOM      2  C   UNL     1      43.382   3.329  11.209  0.00  0.00    +0.000 A 
ATOM      3  C   UNL     1      43.940   2.191  10.678  0.00  0.00    +0.000 A 
ATOM      4  C   UNL     1      44.841   2.588   9.653  0.00  0.00    +0.000 A 
ATOM      5  C   UNL     1      45.662   1.867   8.758  0.00  0.00    +0.000 A 
ATOM      6  C   UNL     1      46.449   2.557   7.824  0.00  0.00    +0.000 A 
ATOM      7  C   UNL     1      46.423   3.956   7.804  0.00  0.00    +0.000 A 
ATOM      8  C   UNL     1      45.616   4.691   8.682  0.00  0.00    +0.000 A 
ATOM      9  C   UNL     1      44.821   3.985   9.597  0.00  0.00    +0.000 A 
ENDROOT
BRANCH   6  10
ATOM     10  C   UNL     1      47.318   1.867   6.825  0.00  0.00    +0.000 C 
ATOM     11  N   UNL     1      48.350   2.559   6.254  0.00  0.00    +0.000 N 
ATOM     12  O   UNL     1      47.130   0.696   6.515  0.00  0.00    +0.000 OA
ATOM     13  H   UNL     1      48.593   3.516   6.451  0.00  0.00    +0.000 HD
ATOM     14  H   UNL     1      48.925   2.053   5.593  0.00  0.00    +0.000 HD
ENDBRANCH   6  10
BRANCH   1  15
ATOM     15  C   UNL     1      43.454   5.783  10.755  0.00  0.00    +0.000 C 
BRANCH  15  20
ATOM     16  C   UNL     1      45.455   8.715  12.126  0.00  0.00    +0.000 A 
ATOM     17  C   UNL     1      46.227   8.023  13.051  0.00  0.00    +0.000 A 
ATOM     18  N   UNL     1      46.143   6.687  13.269  0.00  0.00    +0.000 NA
ATOM     19  C   UNL     1      45.252   6.003  12.518  0.00  0.00    +0.000 A 
ATOM     20  C   UNL     1      44.425   6.591  11.567  0.00  0.00    +0.000 A 
ATOM     21  C   UNL     1      44.539   7.973  11.385  0.00  0.00    +0.000 A 
BRANCH  16  22
ATOM     22  O   UNL     1      45.666  10.062  12.019  0.00  0.00    +0.000 OA
BRANCH  22  23
ATOM     23  C   UNL     1      44.508  10.840  11.681  0.00  0.00    +0.000 C 
BRANCH  23  24
ATOM     24  C   UNL     1      44.500  11.165  10.184  0.00  0.00    +0.000 C 
BRANCH  24  25
ATOM     25  N   UNL     1      43.147  11.395   9.675  0.00  0.00    +0.000 NA
ATOM     26  H   UNL     1      43.165  12.167   9.009  0.00  0.00    +0.000 HD
ATOM     27  H   UNL     1      42.560  11.699  10.453  0.00  0.00    +0.000 HD
ENDBRANCH  24  25
ENDBRANCH  23  24
ENDBRANCH  22  23
ENDBRANCH  16  22
ENDBRANCH  15  20
ENDBRANCH   1  15
TORSDOF 7
ENDMDL
MODEL 6
REMARK VINA RESULT:    -6.141      3.810      5.508
REMARK INTER + INTRA:          -9.156
REMARK INTER:                  -8.450
REMARK INTRA:                  -0.706
REMARK UNBOUND:                -0.682
REMARK  Name = 
REMARK  7 active torsions:
REMARK  status: ('A' for Active; 'I' for Inactive)
REMARK    1  A    between atoms: N_1  and  C_2
REMARK    2  A    between atoms: C_2  and  C_3
REMARK    3  A    between atoms: C_3  and  O_4
REMARK    4  A    between atoms: O_4  and  C_5
REMARK    5  A    between atoms: C_9  and  C_10
REMARK    6  A    between atoms: C_10  and  N_11
REMARK    7  A    between atoms: C_16  and  C_17
REMARK                            x       y       z     vdW  Elec       q    Type
REMARK                         _______ _______ _______ _____ _____    ______ ____
ROOT
ATOM      1  N   UNL     1      47.448   7.328  13.626  0.00  0.00    +0.000 N 
ATOM      2  C   UNL     1      46.796   8.485  13.273  0.00  0.00    +0.000 A 
ATOM      3  C   UNL     1      45.593   8.140  12.704  0.00  0.00    +0.000 A 
ATOM      4  C   UNL     1      45.503   6.722  12.704  0.00  0.00    +0.000 A 
ATOM      5  C   UNL     1      44.527   5.817  12.230  0.00  0.00    +0.000 A 
ATOM      6  C   UNL     1      44.735   4.436  12.363  0.00  0.00    +0.000 A 
ATOM      7  C   UNL     1      45.902   3.973  12.980  0.00  0.00    +0.000 A 
ATOM      8  C   UNL     1      46.883   4.853  13.457  0.00  0.00    +0.000 A 
ATOM      9  C   UNL     1      46.668   6.230  13.300  0.00  0.00    +0.000 A 
ENDROOT
BRANCH   6  10
ATOM     10  C   UNL     1      43.767   3.417  11.859  0.00  0.00    +0.000 C 
ATOM     11  N   UNL     1      43.730   2.188  12.457  0.00  0.00    +0.000 N 
ATOM     12  O   UNL     1      43.004   3.662  10.932  0.00  0.00    +0.000 OA
ATOM     13  H   UNL     1      44.304   1.895  13.230  0.00  0.00    +0.000 HD
ATOM     14  H   UNL     1      43.050   1.529  12.098  0.00  0.00    +0.000 HD
ENDBRANCH   6  10
BRANCH   1  15
ATOM     15  C   UNL     1      48.813   7.296  14.140  0.00  0.00    +0.000 C 
BRANCH  15  20
ATOM     16  C   UNL     1      48.991   5.822  17.643  0.00  0.00    +0.000 A 
ATOM     17  C   UNL     1      48.907   7.004  18.369  0.00  0.00    +0.000 A 
ATOM     18  N   UNL     1      48.806   8.237  17.812  0.00  0.00    +0.000 NA
ATOM     19  C   UNL     1      48.775   8.294  16.463  0.00  0.00    +0.000 A 
ATOM     20  C   UNL     1      48.857   7.177  15.636  0.00  0.00    +0.000 A 
ATOM     21  C   UNL     1      48.970   5.929  16.255  0.00  0.00    +0.000 A 
BRANCH  16  22
ATOM     22  O   UNL     1      49.079   4.657  18.354  0.00  0.00    +0.000 OA
BRANCH  22  23
ATOM     23  C   UNL     1      49.849   3.615  17.735  0.00  0.00    +0.000 C 
BRANCH  23  24
ATOM     24  C   UNL     1      48.926   2.604  17.048  0.00  0.00    +0.000 C 
BRANCH  24  25
ATOM     25  N   UNL     1      49.636   1.791  16.059  0.00  0.00    +0.000 NA
ATOM     26  H   UNL     1      50.511   2.252  15.812  0.00  0.00    +0.000 HD
ATOM     27  H   UNL     1      49.075   1.763  15.206  0.00  0.00    +0.000 HD
ENDBRANCH  24  25
ENDBRANCH  23  24
ENDBRANCH  22  23
ENDBRANCH  16  22
ENDBRANCH  15  20
ENDBRANCH   1  15
TORSDOF 7
ENDMDL
MODEL 7
REMARK VINA RESULT:    -5.955      4.356      8.972
REMARK INTER + INTRA:          -8.899
REMARK INTER:                  -8.184
REMARK INTRA:                  -0.715
REMARK UNBOUND:                -0.682
REMARK  Name = 
REMARK  7 active torsions:
REMARK  status: ('A' for Active; 'I' for Inactive)
REMARK    1  A    between atoms: N_1  and  C_2
REMARK    2  A    between atoms: C_2  and  C_3
REMARK    3  A    between atoms: C_3  and  O_4
REMARK    4  A    between atoms: O_4  and  C_5
REMARK    5  A    between atoms: C_9  and  C_10
REMARK    6  A    between atoms: C_10  and  N_11
REMARK    7  A    between atoms: C_16  and  C_17
REMARK                            x       y       z     vdW  Elec       q    Type
REMARK                         _______ _______ _______ _____ _____    ______ ____
ROOT
ATOM      1  N   UNL     1      49.875   4.917  17.854  0.00  0.00    +0.000 N 
ATOM      2  C   UNL     1      50.718   5.909  18.296  0.00  0.00    +0.000 A 
ATOM      3  C   UNL     1      51.962   5.358  18.487  0.00  0.00    +0.000 A 
ATOM      4  C   UNL     1      51.882   3.979  18.154  0.00  0.00    +0.000 A 
ATOM      5  C   UNL     1      52.820   2.923  18.183  0.00  0.00    +0.000 A 
ATOM      6  C   UNL     1      52.428   1.632  17.800  0.00  0.00    +0.000 A 
ATOM      7  C   UNL     1      51.113   1.410  17.377  0.00  0.00    +0.000 A 
ATOM      8  C   UNL     1      50.166   2.442  17.341  0.00  0.00    +0.000 A 
ATOM      9  C   UNL     1      50.570   3.724  17.745  0.00  0.00    +0.000 A 
ENDROOT
BRANCH   6  10
ATOM     10  C   UNL     1      53.351   0.458  17.833  0.00  0.00    +0.000 C 
ATOM     11  N   UNL     1      53.628  -0.200  16.667  0.00  0.00    +0.000 N 
ATOM     12  O   UNL     1      53.868   0.082  18.879  0.00  0.00    +0.000 OA
ATOM     13  H   UNL     1      53.264   0.039  15.760  0.00  0.00    +0.000 HD
ATOM     14  H   UNL     1      54.269  -0.980  16.728  0.00  0.00    +0.000 HD
ENDBRANCH   6  10
BRANCH   1  15
ATOM     15  C   UNL     1      48.439   5.102  17.669  0.00  0.00    +0.000 C 
BRANCH  15  20
ATOM     16  C   UNL     1      46.834   4.460  14.280  0.00  0.00    +0.000 A 
ATOM     17  C   UNL     1      47.424   5.501  13.572  0.00  0.00    +0.000 A 
ATOM     18  N   UNL     1      48.291   6.395  14.109  0.00  0.00    +0.000 NA
ATOM     19  C   UNL     1      48.596   6.237  15.416  0.00  0.00    +0.000 A 
ATOM     20  C   UNL     1      48.063   5.236  16.222  0.00  0.00    +0.000 A 
ATOM     21  C   UNL     1      47.166   4.344  15.627  0.00  0.00    +0.000 A 
BRANCH  16  22
ATOM     22  O   UNL     1      45.987   3.637  13.591  0.00  0.00    +0.000 OA
BRANCH  22  23
ATOM     23  C   UNL     1      45.218   4.273  12.558  0.00  0.00    +0.000 C 
BRANCH  23  24
ATOM     24  C   UNL     1      43.727   4.243  12.906  0.00  0.00    +0.000 C 
BRANCH  24  25
ATOM     25  N   UNL     1      43.211   5.571  13.241  0.00  0.00    +0.000 NA
ATOM     26  H   UNL     1      43.669   6.268  12.654  0.00  0.00    +0.000 HD
ATOM     27  H   UNL     1      43.479   5.784  14.203  0.00  0.00    +0.000 HD
ENDBRANCH  24  25
ENDBRANCH  23  24
ENDBRANCH  22  23
ENDBRANCH  16  22
ENDBRANCH  15  20
ENDBRANCH   1  15
TORSDOF 7
ENDMDL
MODEL 8
REMARK VINA RESULT:    -5.911      4.170      5.855
REMARK INTER + INTRA:          -8.839
REMARK INTER:                  -8.055
REMARK INTRA:                  -0.784
REMARK UNBOUND:                -0.682
REMARK  Name = 
REMARK  7 active torsions:
REMARK  status: ('A' for Active; 'I' for Inactive)
REMARK    1  A    between atoms: N_1  and  C_2
REMARK    2  A    between atoms: C_2  and  C_3
REMARK    3  A    between atoms: C_3  and  O_4
REMARK    4  A    between atoms: O_4  and  C_5
REMARK    5  A    between atoms: C_9  and  C_10
REMARK    6  A    between atoms: C_10  and  N_11
REMARK    7  A    between atoms: C_16  and  C_17
REMARK                            x       y       z     vdW  Elec       q    Type
REMARK                         _______ _______ _______ _____ _____    ______ ____
ROOT
ATOM      1  N   UNL     1      47.438   6.891  13.089  0.00  0.00    +0.000 N 
ATOM      2  C   UNL     1      47.808   6.294  14.271  0.00  0.00    +0.000 A 
ATOM      3  C   UNL     1      47.213   5.056  14.328  0.00  0.00    +0.000 A 
ATOM      4  C   UNL     1      46.448   4.887  13.143  0.00  0.00    +0.000 A 
ATOM      5  C   UNL     1      45.615   3.847  12.672  0.00  0.00    +0.000 A 
ATOM      6  C   UNL     1      44.964   3.982  11.437  0.00  0.00    +0.000 A 
ATOM      7  C   UNL     1      45.163   5.139  10.677  0.00  0.00    +0.000 A 
ATOM      8  C   UNL     1      45.984   6.183  11.125  0.00  0.00    +0.000 A 
ATOM      9  C   UNL     1      46.613   6.041  12.371  0.00  0.00    +0.000 A 
ENDROOT
BRANCH   6  10
ATOM     10  C   UNL     1      44.044   2.943  10.886  0.00  0.00    +0.000 C 
ATOM     11  N   UNL     1      44.441   2.216   9.798  0.00  0.00    +0.000 N 
ATOM     12  O   UNL     1      42.949   2.724  11.393  0.00  0.00    +0.000 OA
ATOM     13  H   UNL     1      45.322   2.311   9.320  0.00  0.00    +0.000 HD
ATOM     14  H   UNL     1      43.796   1.511   9.463  0.00  0.00    +0.000 HD
ENDBRANCH   6  10
BRANCH   1  15
ATOM     15  C   UNL     1      47.773   8.268  12.743  0.00  0.00    +0.000 C 
BRANCH  15  20
ATOM     16  C   UNL     1      51.147   7.834  11.038  0.00  0.00    +0.000 A 
ATOM     17  C   UNL     1      51.879   8.739  11.797  0.00  0.00    +0.000 A 
ATOM     18  N   UNL     1      51.364   9.482  12.808  0.00  0.00    +0.000 NA
ATOM     19  C   UNL     1      50.053   9.304  13.086  0.00  0.00    +0.000 A 
ATOM     20  C   UNL     1      49.223   8.430  12.390  0.00  0.00    +0.000 A 
ATOM     21  C   UNL     1      49.797   7.694  11.350  0.00  0.00    +0.000 A 
BRANCH  16  22
ATOM     22  O   UNL     1      51.816   7.154  10.059  0.00  0.00    +0.000 OA
BRANCH  22  23
ATOM     23  C   UNL     1      53.235   7.040  10.250  0.00  0.00    +0.000 C 
BRANCH  23  24
ATOM     24  C   UNL     1      53.734   5.679   9.754  0.00  0.00    +0.000 C 
BRANCH  24  25
ATOM     25  N   UNL     1      54.141   4.805  10.855  0.00  0.00    +0.000 NA
ATOM     26  H   UNL     1      54.718   5.335  11.508  0.00  0.00    +0.000 HD
ATOM     27  H   UNL     1      54.739   4.069  10.475  0.00  0.00    +0.000 HD
ENDBRANCH  24  25
ENDBRANCH  23  24
ENDBRANCH  22  23
ENDBRANCH  16  22
ENDBRANCH  15  20
ENDBRANCH   1  15
TORSDOF 7
ENDMDL
MODEL 9
REMARK VINA RESULT:    -5.418      3.684      8.345
REMARK INTER + INTRA:          -8.159
REMARK INTER:                  -7.507
REMARK INTRA:                  -0.652
REMARK UNBOUND:                -0.682
REMARK  Name = 
REMARK  7 active torsions:
REMARK  status: ('A' for Active; 'I' for Inactive)
REMARK    1  A    between atoms: N_1  and  C_2
REMARK    2  A    between atoms: C_2  and  C_3
REMARK    3  A    between atoms: C_3  and  O_4
REMARK    4  A    between atoms: O_4  and  C_5
REMARK    5  A    between atoms: C_9  and  C_10
REMARK    6  A    between atoms: C_10  and  N_11
REMARK    7  A    between atoms: C_16  and  C_17
REMARK                            x       y       z     vdW  Elec       q    Type
REMARK                         _______ _______ _______ _____ _____    ______ ____
ROOT
ATOM      1  N   UNL     1      48.662   4.990  16.997  0.00  0.00    +0.000 N 
ATOM      2  C   UNL     1      47.566   4.167  16.903  0.00  0.00    +0.000 A 
ATOM      3  C   UNL     1      47.989   2.870  17.074  0.00  0.00    +0.000 A 
ATOM      4  C   UNL     1      49.396   2.897  17.276  0.00  0.00    +0.000 A 
ATOM      5  C   UNL     1      50.361   1.884  17.472  0.00  0.00    +0.000 A 
ATOM      6  C   UNL     1      51.712   2.231  17.630  0.00  0.00    +0.000 A 
ATOM      7  C   UNL     1      52.082   3.580  17.609  0.00  0.00    +0.000 A 
ATOM      8  C   UNL     1      51.141   4.600  17.415  0.00  0.00    +0.000 A 
ATOM      9  C   UNL     1      49.798   4.235  17.240  0.00  0.00    +0.000 A 
ENDROOT
BRANCH   6  10
ATOM     10  C   UNL     1      52.795   1.219  17.810  0.00  0.00    +0.000 C 
ATOM     11  N   UNL     1      52.461  -0.042  18.221  0.00  0.00    +0.000 N 
ATOM     12  O   UNL     1      53.969   1.493  17.589  0.00  0.00    +0.000 OA
ATOM     13  H   UNL     1      51.529  -0.367  18.415  0.00  0.00    +0.000 HD
ATOM     14  H   UNL     1      53.221  -0.703  18.317  0.00  0.00    +0.000 HD
ENDBRANCH   6  10
BRANCH   1  15
ATOM     15  C   UNL     1      48.617   6.426  16.737  0.00  0.00    +0.000 C 
BRANCH  15  20
ATOM     16  C   UNL     1      48.012   6.631  12.986  0.00  0.00    +0.000 A 
ATOM     17  C   UNL     1      49.158   7.330  12.630  0.00  0.00    +0.000 A 
ATOM     18  N   UNL     1      50.104   7.746  13.509  0.00  0.00    +0.000 NA
ATOM     19  C   UNL     1      49.902   7.438  14.809  0.00  0.00    +0.000 A 
ATOM     20  C   UNL     1      48.790   6.746  15.280  0.00  0.00    +0.000 A 
ATOM     21  C   UNL     1      47.838   6.348  14.338  0.00  0.00    +0.000 A 
BRANCH  16  22
ATOM     22  O   UNL     1      47.159   6.275  11.978  0.00  0.00    +0.000 OA
BRANCH  22  23
ATOM     23  C   UNL     1      45.946   5.631  12.397  0.00  0.00    +0.000 C 
BRANCH  23  24
ATOM     24  C   UNL     1      45.197   5.062  11.189  0.00  0.00    +0.000 C 
BRANCH  24  25
ATOM     25  N   UNL     1      45.563   5.737   9.943  0.00  0.00    +0.000 NA
ATOM     26  H   UNL     1      45.730   6.724  10.132  0.00  0.00    +0.000 HD
ATOM     27  H   UNL     1      44.762   5.696   9.310  0.00  0.00    +0.000 HD
ENDBRANCH  24  25
ENDBRANCH  23  24
ENDBRANCH  22  23
ENDBRANCH  16  22
ENDBRANCH  15  20
ENDBRANCH   1  15
TORSDOF 7
ENDMDL
