MODEL 1
REMARK VINA RESULT:    -6.826      0.000      0.000
REMARK INTER + INTRA:          -8.434
REMARK INTER:                  -8.423
REMARK INTRA:                  -0.012
REMARK UNBOUND:                -0.012
REMARK  Name = 
REMARK  5 active torsions:
REMARK  status: ('A' for Active; 'I' for Inactive)
REMARK    1  A    between atoms: N_1  and  C_2
REMARK    2  A    between atoms: C_4  and  C_5
REMARK    3  A    between atoms: C_5  and  O_6
REMARK    4  A    between atoms: C_7  and  C_8
REMARK    5  A    between atoms: C_11  and  C_12
REMARK                            x       y       z     vdW  Elec       q    Type
REMARK                         _______ _______ _______ _____ _____    ______ ____
ROOT
ATOM      1  C   UNL     1      43.584   4.470  12.830  0.00  0.00    +0.000 C 
ATOM      2  C   UNL     1      44.727   5.465  13.015  0.00  0.00    +0.000 C 
ATOM      3  C   UNL     1      44.957   6.124  11.638  0.00  0.00    +0.000 C 
ATOM      4  C   UNL     1      44.030   5.391  10.631  0.00  0.00    +0.000 C 
ATOM      5  C   UNL     1      42.890   4.897  11.538  0.00  0.00    +0.000 C 
ENDROOT
BRANCH   4   6
ATOM      6  C   UNL     1      44.695   4.340   9.762  0.00  0.00    +0.000 A 
ATOM      7  C   UNL     1      44.590   2.964   9.967  0.00  0.00    +0.000 A 
ATOM      8  C   UNL     1      45.298   2.072   9.162  0.00  0.00    +0.000 A 
ATOM      9  C   UNL     1      46.093   2.562   8.131  0.00  0.00    +0.000 A 
ATOM     10  N   UNL     1      46.179   3.897   7.880  0.00  0.00    +0.000 NA
ATOM     11  C   UNL     1      45.486   4.740   8.684  0.00  0.00    +0.000 A 
BRANCH   9  12
ATOM     12  C   UNL     1      46.889   1.586   7.273  0.00  0.00    +0.000 C 
ATOM     13  F   UNL     1      46.540   1.630   5.949  0.00  0.00    +0.000 F 
ATOM     14  F   UNL     1      48.232   1.820   7.298  0.00  0.00    +0.000 F 
ATOM     15  F   UNL     1      46.721   0.285   7.643  0.00  0.00    +0.000 F 
ENDBRANCH   9  12
ENDBRANCH   4   6
BRANCH   1  16
ATOM     16  N   UNL     1      42.671   4.411  13.959  0.00  0.00    +0.000 NA
ATOM     17  H   UNL     1      43.091   4.880  14.761  0.00  0.00    +0.000 HD
ATOM     18  H   UNL     1      42.534   3.440  14.241  0.00  0.00    +0.000 HD
ENDBRANCH   1  16
BRANCH   3  19
ATOM     19  C   UNL     1      46.435   6.232  11.270  0.00  0.00    +0.000 C 
BRANCH  19  20
ATOM     20  O   UNL     1      47.247   6.063  12.426  0.00  0.00    +0.000 OA
ATOM     21  H   UNL     1      46.660   6.045  13.200  0.00  0.00    +0.000 HD
ENDBRANCH  19  20
ENDBRANCH   3  19
TORSDOF 5
ENDMDL
MODEL 2
REMARK VINA RESULT:    -6.472      1.949      2.425
REMARK INTER + INTRA:          -7.998
REMARK INTER:                  -8.339
REMARK INTRA:                   0.341
REMARK UNBOUND:                -0.012
REMARK  Name = 
REMARK  5 active torsions:
REMARK  status: ('A' for Active; 'I' for Inactive)
REMARK    1  A    between atoms: N_1  and  C_2
REMARK    2  A    between atoms: C_4  and  C_5
REMARK    3  A    between atoms: C_5  and  O_6
REMARK    4  A    between atoms: C_7  and  C_8
REMARK    5  A    between atoms: C_11  and  C_12
REMARK                            x       y       z     vdW  Elec       q    Type
REMARK                         _______ _______ _______ _____ _____    ______ ____
ROOT
ATOM      1  C   UNL     1      45.930   5.188  13.022  0.00  0.00    +0.000 C 
ATOM      2  C   UNL     1      44.672   6.016  12.774  0.00  0.00    +0.000 C 
ATOM      3  C   UNL     1      43.667   5.080  12.067  0.00  0.00    +0.000 C 
ATOM      4  C   UNL     1      44.417   3.750  11.785  0.00  0.00    +0.000 C 
ATOM      5  C   UNL     1      45.480   3.733  12.897  0.00  0.00    +0.000 C 
ENDROOT
BRANCH   4   6
ATOM      6  C   UNL     1      44.930   3.567  10.369  0.00  0.00    +0.000 A 
ATOM      7  C   UNL     1      44.964   2.347   9.693  0.00  0.00    +0.000 A 
ATOM      8  C   UNL     1      45.524   2.259   8.418  0.00  0.00    +0.000 A 
ATOM      9  C   UNL     1      46.027   3.405   7.810  0.00  0.00    +0.000 A 
ATOM     10  N   UNL     1      45.966   4.616   8.428  0.00  0.00    +0.000 NA
ATOM     11  C   UNL     1      45.424   4.669   9.669  0.00  0.00    +0.000 A 
BRANCH   9  12
ATOM     12  C   UNL     1      46.664   3.298   6.430  0.00  0.00    +0.000 C 
ATOM     13  F   UNL     1      45.997   2.440   5.597  0.00  0.00    +0.000 F 
ATOM     14  F   UNL     1      46.702   4.487   5.763  0.00  0.00    +0.000 F 
ATOM     15  F   UNL     1      47.947   2.839   6.464  0.00  0.00    +0.000 F 
ENDBRANCH   9  12
ENDBRANCH   4   6
BRANCH   1  16
ATOM     16  N   UNL     1      46.571   5.465  14.296  0.00  0.00    +0.000 NA
ATOM     17  H   UNL     1      47.086   4.640  14.604  0.00  0.00    +0.000 HD
ATOM     18  H   UNL     1      45.861   5.637  15.009  0.00  0.00    +0.000 HD
ENDBRANCH   1  16
BRANCH   3  19
ATOM     19  C   UNL     1      42.964   5.745  10.886  0.00  0.00    +0.000 C 
BRANCH  19  20
ATOM     20  O   UNL     1      42.797   7.137  11.128  0.00  0.00    +0.000 OA
ATOM     21  H   UNL     1      41.849   7.304  11.256  0.00  0.00    +0.000 HD
ENDBRANCH  19  20
ENDBRANCH   3  19
TORSDOF 5
ENDMDL
MODEL 3
REMARK VINA RESULT:    -5.996      4.536      6.093
REMARK INTER + INTRA:          -7.410
REMARK INTER:                  -7.413
REMARK INTRA:                   0.003
REMARK UNBOUND:                -0.012
REMARK  Name = 
REMARK  5 active torsions:
REMARK  status: ('A' for Active; 'I' for Inactive)
REMARK    1  A    between atoms: N_1  and  C_2
REMARK    2  A    between atoms: C_4  and  C_5
REMARK    3  A    between atoms: C_5  and  O_6
REMARK    4  A    between atoms: C_7  and  C_8
REMARK    5  A    between atoms: C_11  and  C_12
REMARK                            x       y       z     vdW  Elec       q    Type
REMARK                         _______ _______ _______ _____ _____    ______ ____
ROOT
ATOM      1  C   UNL     1      44.818   2.800  10.258  0.00  0.00    +0.000 C 
ATOM      2  C   UNL     1      43.611   2.807  11.193  0.00  0.00    +0.000 C 
ATOM      3  C   UNL     1      43.358   4.285  11.566  0.00  0.00    +0.000 C 
ATOM      4  C   UNL     1      44.521   5.107  10.948  0.00  0.00    +0.000 C 
ATOM      5  C   UNL     1      44.936   4.236   9.749  0.00  0.00    +0.000 C 
ENDROOT
BRANCH   4   6
ATOM      6  C   UNL     1      45.633   5.501  11.902  0.00  0.00    +0.000 A 
ATOM      7  C   UNL     1      46.216   4.643  12.835  0.00  0.00    +0.000 A 
ATOM      8  C   UNL     1      47.182   5.113  13.725  0.00  0.00    +0.000 A 
ATOM      9  C   UNL     1      47.583   6.443  13.659  0.00  0.00    +0.000 A 
ATOM     10  N   UNL     1      47.065   7.291  12.730  0.00  0.00    +0.000 NA
ATOM     11  C   UNL     1      46.122   6.808  11.885  0.00  0.00    +0.000 A 
BRANCH   9  12
ATOM     12  C   UNL     1      48.617   6.960  14.652  0.00  0.00    +0.000 C 
ATOM     13  F   UNL     1      48.748   6.157  15.754  0.00  0.00    +0.000 F 
ATOM     14  F   UNL     1      49.871   7.049  14.124  0.00  0.00    +0.000 F 
ATOM     15  F   UNL     1      48.321   8.196  15.143  0.00  0.00    +0.000 F 
ENDBRANCH   9  12
ENDBRANCH   4   6
BRANCH   1  16
ATOM     16  N   UNL     1      44.715   1.834   9.177  0.00  0.00    +0.000 NA
ATOM     17  H   UNL     1      45.304   2.130   8.399  0.00  0.00    +0.000 HD
ATOM     18  H   UNL     1      43.760   1.819   8.818  0.00  0.00    +0.000 HD
ENDBRANCH   1  16
BRANCH   3  19
ATOM     19  C   UNL     1      43.081   4.483  13.054  0.00  0.00    +0.000 C 
BRANCH  19  20
ATOM     20  O   UNL     1      42.677   5.823  13.309  0.00  0.00    +0.000 OA
ATOM     21  H   UNL     1      42.592   6.275  12.452  0.00  0.00    +0.000 HD
ENDBRANCH  19  20
ENDBRANCH   3  19
TORSDOF 5
ENDMDL
MODEL 4
REMARK VINA RESULT:    -5.950      5.017      6.543
REMARK INTER + INTRA:          -7.353
REMARK INTER:                  -7.371
REMARK INTRA:                   0.017
REMARK UNBOUND:                -0.012
REMARK  Name = 
REMARK  5 active torsions:
REMARK  status: ('A' for Active; 'I' for Inactive)
REMARK    1  A    between atoms: N_1  and  C_2
REMARK    2  A    between atoms: C_4  and  C_5
REMARK    3  A    between atoms: C_5  and  O_6
REMARK    4  A    between atoms: C_7  and  C_8
REMARK    5  A    between atoms: C_11  and  C_12
REMARK                            x       y       z     vdW  Elec       q    Type
REMARK                         _______ _______ _______ _____ _____    ______ ____
ROOT
ATOM      1  C   UNL     1      44.250   5.620  11.163  0.00  0.00    +0.000 C 
ATOM      2  C   UNL     1      44.128   7.111  11.468  0.00  0.00    +0.000 C 
ATOM      3  C   UNL     1      45.556   7.610  11.778  0.00  0.00    +0.000 C 
ATOM      4  C   UNL     1      46.475   6.358  11.789  0.00  0.00    +0.000 C 
ATOM      5  C   UNL     1      45.728   5.398  10.846  0.00  0.00    +0.000 C 
ENDROOT
BRANCH   4   6
ATOM      6  C   UNL     1      46.829   5.807  13.157  0.00  0.00    +0.000 A 
ATOM      7  C   UNL     1      47.832   6.321  13.980  0.00  0.00    +0.000 A 
ATOM      8  C   UNL     1      48.140   5.703  15.192  0.00  0.00    +0.000 A 
ATOM      9  C   UNL     1      47.420   4.582  15.591  0.00  0.00    +0.000 A 
ATOM     10  N   UNL     1      46.407   4.086  14.830  0.00  0.00    +0.000 NA
ATOM     11  C   UNL     1      46.136   4.703  13.654  0.00  0.00    +0.000 A 
BRANCH   9  12
ATOM     12  C   UNL     1      47.779   3.893  16.903  0.00  0.00    +0.000 C 
ATOM     13  F   UNL     1      48.903   3.116  16.808  0.00  0.00    +0.000 F 
ATOM     14  F   UNL     1      48.034   4.768  17.917  0.00  0.00    +0.000 F 
ATOM     15  F   UNL     1      46.803   3.057  17.356  0.00  0.00    +0.000 F 
ENDBRANCH   9  12
ENDBRANCH   4   6
BRANCH   1  16
ATOM     16  N   UNL     1      43.377   5.168  10.093  0.00  0.00    +0.000 NA
ATOM     17  H   UNL     1      42.405   5.310  10.365  0.00  0.00    +0.000 HD
ATOM     18  H   UNL     1      43.489   4.163   9.958  0.00  0.00    +0.000 HD
ENDBRANCH   1  16
BRANCH   3  19
ATOM     19  C   UNL     1      45.615   8.524  13.000  0.00  0.00    +0.000 C 
BRANCH  19  20
ATOM     20  O   UNL     1      44.729   9.625  12.838  0.00  0.00    +0.000 OA
ATOM     21  H   UNL     1      43.821   9.291  12.934  0.00  0.00    +0.000 HD
ENDBRANCH  19  20
ENDBRANCH   3  19
TORSDOF 5
ENDMDL
MODEL 5
REMARK VINA RESULT:    -5.751      4.413      6.160
REMARK INTER + INTRA:          -7.108
REMARK INTER:                  -7.263
REMARK INTRA:                   0.155
REMARK UNBOUND:                -0.012
REMARK  Name = 
REMARK  5 active torsions:
REMARK  status: ('A' for Active; 'I' for Inactive)
REMARK    1  A    between atoms: N_1  and  C_2
REMARK    2  A    between atoms: C_4  and  C_5
REMARK    3  A    between atoms: C_5  and  O_6
REMARK    4  A    between atoms: C_7  and  C_8
REMARK    5  A    between atoms: C_11  and  C_12
REMARK                            x       y       z     vdW  Elec       q    Type
REMARK                         _______ _______ _______ _____ _____    ______ ____
ROOT
ATOM      1  C   UNL     1      45.216   3.640   9.374  0.00  0.00    +0.000 C 
ATOM      2  C   UNL     1      43.752   3.887   9.727  0.00  0.00    +0.000 C 
ATOM      3  C   UNL     1      43.714   5.206  10.530  0.00  0.00    +0.000 C 
ATOM      4  C   UNL     1      45.190   5.634  10.756  0.00  0.00    +0.000 C 
ATOM      5  C   UNL     1      45.903   4.993   9.552  0.00  0.00    +0.000 C 
ENDROOT
BRANCH   4   6
ATOM      6  C   UNL     1      45.770   5.316  12.121  0.00  0.00    +0.000 A 
ATOM      7  C   UNL     1      46.405   6.245  12.946  0.00  0.00    +0.000 A 
ATOM      8  C   UNL     1      46.976   5.847  14.154  0.00  0.00    +0.000 A 
ATOM      9  C   UNL     1      46.886   4.516  14.549  0.00  0.00    +0.000 A 
ATOM     10  N   UNL     1      46.233   3.597  13.786  0.00  0.00    +0.000 NA
ATOM     11  C   UNL     1      45.696   4.012  12.613  0.00  0.00    +0.000 A 
BRANCH   9  12
ATOM     12  C   UNL     1      47.537   4.080  15.856  0.00  0.00    +0.000 C 
ATOM     13  F   UNL     1      46.674   4.106  16.918  0.00  0.00    +0.000 F 
ATOM     14  F   UNL     1      48.017   2.804  15.816  0.00  0.00    +0.000 F 
ATOM     15  F   UNL     1      48.584   4.870  16.225  0.00  0.00    +0.000 F 
ENDBRANCH   9  12
ENDBRANCH   4   6
BRANCH   1  16
ATOM     16  N   UNL     1      45.412   3.088   8.044  0.00  0.00    +0.000 NA
ATOM     17  H   UNL     1      45.821   2.156   8.120  0.00  0.00    +0.000 HD
ATOM     18  H   UNL     1      46.090   3.653   7.533  0.00  0.00    +0.000 HD
ENDBRANCH   1  16
BRANCH   3  19
ATOM     19  C   UNL     1      42.818   5.125  11.764  0.00  0.00    +0.000 C 
BRANCH  19  20
ATOM     20  O   UNL     1      41.917   6.225  11.795  0.00  0.00    +0.000 OA
ATOM     21  H   UNL     1      41.272   6.060  12.503  0.00  0.00    +0.000 HD
ENDBRANCH  19  20
ENDBRANCH   3  19
TORSDOF 5
ENDMDL
MODEL 6
REMARK VINA RESULT:    -5.637      3.689      5.463
REMARK INTER + INTRA:          -6.967
REMARK INTER:                  -7.075
REMARK INTRA:                   0.107
REMARK UNBOUND:                -0.012
REMARK  Name = 
REMARK  5 active torsions:
REMARK  status: ('A' for Active; 'I' for Inactive)
REMARK    1  A    between atoms: N_1  and  C_2
REMARK    2  A    between atoms: C_4  and  C_5
REMARK    3  A    between atoms: C_5  and  O_6
REMARK    4  A    between atoms: C_7  and  C_8
REMARK    5  A    between atoms: C_11  and  C_12
REMARK                            x       y       z     vdW  Elec       q    Type
REMARK                         _______ _______ _______ _____ _____    ______ ____
ROOT
ATOM      1  C   UNL     1      49.506   7.550  11.893  0.00  0.00    +0.000 C 
ATOM      2  C   UNL     1      48.644   8.799  11.725  0.00  0.00    +0.000 C 
ATOM      3  C   UNL     1      47.482   8.665  12.733  0.00  0.00    +0.000 C 
ATOM      4  C   UNL     1      47.609   7.258  13.377  0.00  0.00    +0.000 C 
ATOM      5  C   UNL     1      49.117   6.979  13.256  0.00  0.00    +0.000 C 
ENDROOT
BRANCH   4   6
ATOM      6  C   UNL     1      46.686   6.190  12.822  0.00  0.00    +0.000 A 
ATOM      7  C   UNL     1      46.257   6.127  11.496  0.00  0.00    +0.000 A 
ATOM      8  C   UNL     1      45.347   5.150  11.091  0.00  0.00    +0.000 A 
ATOM      9  C   UNL     1      44.887   4.218  12.015  0.00  0.00    +0.000 A 
ATOM     10  N   UNL     1      45.323   4.228  13.304  0.00  0.00    +0.000 NA
ATOM     11  C   UNL     1      46.200   5.193  13.670  0.00  0.00    +0.000 A 
BRANCH   9  12
ATOM     12  C   UNL     1      43.870   3.171  11.575  0.00  0.00    +0.000 C 
ATOM     13  F   UNL     1      43.552   2.284  12.568  0.00  0.00    +0.000 F 
ATOM     14  F   UNL     1      42.681   3.710  11.182  0.00  0.00    +0.000 F 
ATOM     15  F   UNL     1      44.303   2.404  10.535  0.00  0.00    +0.000 F 
ENDBRANCH   9  12
ENDBRANCH   4   6
BRANCH   1  16
ATOM     16  N   UNL     1      50.932   7.804  11.782  0.00  0.00    +0.000 NA
ATOM     17  H   UNL     1      51.267   7.474  10.877  0.00  0.00    +0.000 HD
ATOM     18  H   UNL     1      51.435   7.260  12.484  0.00  0.00    +0.000 HD
ENDBRANCH   1  16
BRANCH   3  19
ATOM     19  C   UNL     1      46.128   9.034  12.131  0.00  0.00    +0.000 C 
BRANCH  19  20
ATOM     20  O   UNL     1      45.167   9.237  13.160  0.00  0.00    +0.000 OA
ATOM     21  H   UNL     1      45.082   8.405  13.655  0.00  0.00    +0.000 HD
ENDBRANCH  19  20
ENDBRANCH   3  19
TORSDOF 5
ENDMDL
MODEL 7
REMARK VINA RESULT:    -5.541      5.525      6.704
REMARK INTER + INTRA:          -6.849
REMARK INTER:                  -6.727
REMARK INTRA:                  -0.122
REMARK UNBOUND:                -0.012
REMARK  Name = 
REMARK  5 active torsions:
REMARK  status: ('A' for Active; 'I' for Inactive)
REMARK    1  A    between atoms: N_1  and  C_2
REMARK    2  A    between atoms: C_4  and  C_5
REMARK    3  A    between atoms: C_5  and  O_6
REMARK    4  A    between atoms: C_7  and  C_8
REMARK    5  A    between atoms: C_11  and  C_12
REMARK                            x       y       z     vdW  Elec       q    Type
REMARK                         _______ _______ _______ _____ _____    ______ ____
ROOT
ATOM      1  C   UNL     1      45.842   8.483  13.005  0.00  0.00    +0.000 C 
ATOM      2  C   UNL     1      47.227   8.731  12.412  0.00  0.00    +0.000 C 
ATOM      3  C   UNL     1      47.728   7.367  11.890  0.00  0.00    +0.000 C 
ATOM      4  C   UNL     1      46.676   6.309  12.322  0.00  0.00    +0.000 C 
ATOM      5  C   UNL     1      45.390   7.148  12.415  0.00  0.00    +0.000 C 
ENDROOT
BRANCH   4   6
ATOM      6  C   UNL     1      47.027   5.488  13.549  0.00  0.00    +0.000 A 
ATOM      7  C   UNL     1      47.494   6.023  14.750  0.00  0.00    +0.000 A 
ATOM      8  C   UNL     1      47.864   5.185  15.802  0.00  0.00    +0.000 A 
ATOM      9  C   UNL     1      47.740   3.807  15.656  0.00  0.00    +0.000 A 
ATOM     10  N   UNL     1      47.244   3.260  14.512  0.00  0.00    +0.000 NA
ATOM     11  C   UNL     1      46.901   4.099  13.505  0.00  0.00    +0.000 A 
BRANCH   9  12
ATOM     12  C   UNL     1      48.173   2.894  16.797  0.00  0.00    +0.000 C 
ATOM     13  F   UNL     1      49.014   3.510  17.685  0.00  0.00    +0.000 F 
ATOM     14  F   UNL     1      47.129   2.441  17.548  0.00  0.00    +0.000 F 
ATOM     15  F   UNL     1      48.847   1.788  16.374  0.00  0.00    +0.000 F 
ENDBRANCH   9  12
ENDBRANCH   4   6
BRANCH   1  16
ATOM     16  N   UNL     1      44.895   9.554  12.750  0.00  0.00    +0.000 NA
ATOM     17  H   UNL     1      44.289   9.673  13.561  0.00  0.00    +0.000 HD
ATOM     18  H   UNL     1      44.282   9.296  11.976  0.00  0.00    +0.000 HD
ENDBRANCH   1  16
BRANCH   3  19
ATOM     19  C   UNL     1      49.184   7.088  12.257  0.00  0.00    +0.000 C 
BRANCH  19  20
ATOM     20  O   UNL     1      49.728   8.180  12.989  0.00  0.00    +0.000 OA
ATOM     21  H   UNL     1      49.036   8.511  13.586  0.00  0.00    +0.000 HD
ENDBRANCH  19  20
ENDBRANCH   3  19
TORSDOF 5
ENDMDL
MODEL 8
REMARK VINA RESULT:    -5.406      4.723      6.268
REMARK INTER + INTRA:          -6.682
REMARK INTER:                  -6.594
REMARK INTRA:                  -0.088
REMARK UNBOUND:                -0.012
REMARK  Name = 
REMARK  5 active torsions:
REMARK  status: ('A' for Active; 'I' for Inactive)
REMARK    1  A    between atoms: N_1  and  C_2
REMARK    2  A    between atoms: C_4  and  C_5
REMARK    3  A    between atoms: C_5  and  O_6
REMARK    4  A    between atoms: C_7  and  C_8
REMARK    5  A    between atoms: C_11  and  C_12
REMARK                            x       y       z     vdW  Elec       q    Type
REMARK                         _______ _______ _______ _____ _____    ______ ____
ROOT
ATOM      1  C   UNL     1      44.681   4.196  10.926  0.00  0.00    +0.000 C 
ATOM      2  C   UNL     1      45.261   3.477  12.141  0.00  0.00    +0.000 C 
ATOM      3  C   UNL     1      45.230   4.493  13.304  0.00  0.00    +0.000 C 
ATOM      4  C   UNL     1      44.759   5.845  12.703  0.00  0.00    +0.000 C 
ATOM      5  C   UNL     1      43.920   5.391  11.496  0.00  0.00    +0.000 C 
ENDROOT
BRANCH   4   6
ATOM      6  C   UNL     1      45.851   6.857  12.413  0.00  0.00    +0.000 A 
ATOM      7  C   UNL     1      47.022   6.577  11.707  0.00  0.00    +0.000 A 
ATOM      8  C   UNL     1      48.007   7.551  11.552  0.00  0.00    +0.000 A 
ATOM      9  C   UNL     1      47.805   8.820  12.085  0.00  0.00    +0.000 A 
ATOM     10  N   UNL     1      46.653   9.135  12.739  0.00  0.00    +0.000 NA
ATOM     11  C   UNL     1      45.718   8.165  12.881  0.00  0.00    +0.000 A 
BRANCH   9  12
ATOM     12  C   UNL     1      48.897   9.873  11.939  0.00  0.00    +0.000 C 
ATOM     13  F   UNL     1      48.772  10.618  10.797  0.00  0.00    +0.000 F 
ATOM     14  F   UNL     1      48.908  10.780  12.958  0.00  0.00    +0.000 F 
ATOM     15  F   UNL     1      50.151   9.343  11.886  0.00  0.00    +0.000 F 
ENDBRANCH   9  12
ENDBRANCH   4   6
BRANCH   1  16
ATOM     16  N   UNL     1      43.845   3.351  10.090  0.00  0.00    +0.000 NA
ATOM     17  H   UNL     1      44.337   3.137   9.223  0.00  0.00    +0.000 HD
ATOM     18  H   UNL     1      43.003   3.859   9.818  0.00  0.00    +0.000 HD
ENDBRANCH   1  16
BRANCH   3  19
ATOM     19  C   UNL     1      46.523   4.507  14.116  0.00  0.00    +0.000 C 
BRANCH  19  20
ATOM     20  O   UNL     1      47.203   3.264  13.988  0.00  0.00    +0.000 OA
ATOM     21  H   UNL     1      48.147   3.454  13.863  0.00  0.00    +0.000 HD
ENDBRANCH  19  20
ENDBRANCH   3  19
TORSDOF 5
ENDMDL
MODEL 9
REMARK VINA RESULT:    -5.363      4.237      5.683
REMARK INTER + INTRA:          -6.629
REMARK INTER:                  -6.493
REMARK INTRA:                  -0.136
REMARK UNBOUND:                -0.012
REMARK  Name = 
REMARK  5 active torsions:
REMARK  status: ('A' for Active; 'I' for Inactive)
REMARK    1  A    between atoms: N_1  and  C_2
REMARK    2  A    between atoms: C_4  and  C_5
REMARK    3  A    between atoms: C_5  and  O_6
REMARK    4  A    between atoms: C_7  and  C_8
REMARK    5  A    between atoms: C_11  and  C_12
REMARK                            x       y       z     vdW  Elec       q    Type
REMARK                         _______ _______ _______ _____ _____    ______ ____
ROOT
ATOM      1  C   UNL     1      42.970   5.785  11.758  0.00  0.00    +0.000 C 
ATOM      2  C   UNL     1      43.312   4.992  10.500  0.00  0.00    +0.000 C 
ATOM      3  C   UNL     1      44.526   4.106  10.861  0.00  0.00    +0.000 C 
ATOM      4  C   UNL     1      44.962   4.509  12.295  0.00  0.00    +0.000 C 
ATOM      5  C   UNL     1      43.648   5.031  12.901  0.00  0.00    +0.000 C 
ENDROOT
BRANCH   4   6
ATOM      6  C   UNL     1      46.156   5.441  12.388  0.00  0.00    +0.000 A 
ATOM      7  C   UNL     1      46.291   6.626  11.664  0.00  0.00    +0.000 A 
ATOM      8  C   UNL     1      47.459   7.383  11.756  0.00  0.00    +0.000 A 
ATOM      9  C   UNL     1      48.483   6.963  12.598  0.00  0.00    +0.000 A 
ATOM     10  N   UNL     1      48.359   5.835  13.350  0.00  0.00    +0.000 NA
ATOM     11  C   UNL     1      47.217   5.116  13.233  0.00  0.00    +0.000 A 
BRANCH   9  12
ATOM     12  C   UNL     1      49.769   7.777  12.673  0.00  0.00    +0.000 C 
ATOM     13  F   UNL     1      50.651   7.478  11.669  0.00  0.00    +0.000 F 
ATOM     14  F   UNL     1      49.559   9.121  12.577  0.00  0.00    +0.000 F 
ATOM     15  F   UNL     1      50.463   7.582  13.830  0.00  0.00    +0.000 F 
ENDBRANCH   9  12
ENDBRANCH   4   6
BRANCH   1  16
ATOM     16  N   UNL     1      41.542   5.954  11.973  0.00  0.00    +0.000 NA
ATOM     17  H   UNL     1      41.382   6.764  12.572  0.00  0.00    +0.000 HD
ATOM     18  H   UNL     1      41.172   5.150  12.480  0.00  0.00    +0.000 HD
ENDBRANCH   1  16
BRANCH   3  19
ATOM     19  C   UNL     1      45.605   4.108   9.780  0.00  0.00    +0.000 C 
BRANCH  19  20
ATOM     20  O   UNL     1      45.276   5.035   8.752  0.00  0.00    +0.000 OA
ATOM     21  H   UNL     1      44.321   4.965   8.586  0.00  0.00    +0.000 HD
ENDBRANCH  19  20
ENDBRANCH   3  19
TORSDOF 5
ENDMDL
