MODEL 1
REMARK VINA RESULT:    -7.958      0.000      0.000
REMARK INTER + INTRA:         -11.865
REMARK INTER:                 -10.749
REMARK INTRA:                  -1.116
REMARK UNBOUND:                -1.116
REMARK  Name = 
REMARK  6 active torsions:
REMARK  status: ('A' for Active; 'I' for Inactive)
REMARK    1  A    between atoms: C_2  and  C_25
REMARK    2  A    between atoms: N_3  and  C_4
REMARK    3  A    between atoms: C_4  and  C_5
REMARK    4  A    between atoms: C_8  and  C_9
REMARK    5  A    between atoms: C_9  and  N_10
REMARK    6  A    between atoms: C_11  and  C_13
REMARK                            x       y       z     vdW  Elec       q    Type
REMARK                         _______ _______ _______ _____ _____    ______ ____
ROOT
ATOM      1  C   UNL     1      44.981   5.986  10.919  0.00  0.00    +0.000 A 
ATOM      2  C   UNL     1      46.379   6.010  10.834  0.00  0.00    +0.000 A 
ATOM      3  C   UNL     1      47.135   6.781  11.724  0.00  0.00    +0.000 A 
ATOM      4  C   UNL     1      46.508   7.529  12.729  0.00  0.00    +0.000 A 
ATOM      5  C   UNL     1      45.108   7.522  12.800  0.00  0.00    +0.000 A 
ATOM      6  C   UNL     1      44.353   6.750  11.911  0.00  0.00    +0.000 A 
ENDROOT
BRANCH   1   7
ATOM      7  C   UNL     1      44.167   5.156   9.963  0.00  0.00    +0.000 C 
BRANCH   7  10
ATOM      8  O   UNL     1      44.718   2.454   9.937  0.00  0.00    +0.000 OA
ATOM      9  C   UNL     1      45.190   3.139   9.032  0.00  0.00    +0.000 C 
ATOM     10  N   UNL     1      44.980   4.501   8.970  0.00  0.00    +0.000 N 
ATOM     11  H   UNL     1      45.339   5.014   8.173  0.00  0.00    +0.000 HD
BRANCH   9  12
ATOM     12  C   UNL     1      45.989   2.584   7.959  0.00  0.00    +0.000 A 
ATOM     13  C   UNL     1      46.379   3.141   6.754  0.00  0.00    +0.000 A 
ATOM     14  C   UNL     1      47.134   2.158   6.072  0.00  0.00    +0.000 A 
ATOM     15  C   UNL     1      47.159   1.058   6.898  0.00  0.00    +0.000 A 
ATOM     16  O   UNL     1      46.476   1.305   8.048  0.00  0.00    +0.000 OA
ENDBRANCH   9  12
ENDBRANCH   7  10
ENDBRANCH   1   7
BRANCH   4  17
ATOM     17  C   UNL     1      47.313   8.364  13.691  0.00  0.00    +0.000 C 
BRANCH  17  18
ATOM     18  N   UNL     1      47.718   7.587  14.834  0.00  0.00    +0.000 N 
ATOM     19  C   UNL     1      48.951   6.989  14.895  0.00  0.00    +0.000 C 
ATOM     20  O   UNL     1      49.789   7.128  14.008  0.00  0.00    +0.000 OA
ATOM     21  H   UNL     1      46.980   7.265  15.449  0.00  0.00    +0.000 HD
BRANCH  19  22
ATOM     22  C   UNL     1      49.242   6.224  16.115  0.00  0.00    +0.000 A 
ATOM     23  C   UNL     1      50.313   6.588  16.921  0.00  0.00    +0.000 A 
ATOM     24  S   UNL     1      50.457   5.643  18.333  0.00  0.00    +0.000 S 
ATOM     25  C   UNL     1      49.128   4.679  17.890  0.00  0.00    +0.000 A 
ATOM     26  N   UNL     1      48.717   3.648  18.678  0.00  0.00    +0.000 NA
ATOM     27  C   UNL     1      47.717   2.980  18.204  0.00  0.00    +0.000 A 
ATOM     28  N   UNL     1      47.091   3.251  17.016  0.00  0.00    +0.000 N 
ATOM     29  C   UNL     1      47.456   4.293  16.198  0.00  0.00    +0.000 A 
ATOM     30  O   UNL     1      46.855   4.525  15.156  0.00  0.00    +0.000 OA
ATOM     31  C   UNL     1      48.575   5.078  16.686  0.00  0.00    +0.000 A 
ATOM     32  H   UNL     1      46.314   2.690  16.701  0.00  0.00    +0.000 HD
ENDBRANCH  19  22
ENDBRANCH  17  18
ENDBRANCH   4  17
TORSDOF 6
ENDMDL
MODEL 2
REMARK VINA RESULT:    -7.746      1.738      1.945
REMARK INTER + INTRA:         -11.578
REMARK INTER:                 -10.807
REMARK INTRA:                  -0.771
REMARK UNBOUND:                -1.116
REMARK  Name = 
REMARK  6 active torsions:
REMARK  status: ('A' for Active; 'I' for Inactive)
REMARK    1  A    between atoms: C_2  and  C_25
REMARK    2  A    between atoms: N_3  and  C_4
REMARK    3  A    between atoms: C_4  and  C_5
REMARK    4  A    between atoms: C_8  and  C_9
REMARK    5  A    between atoms: C_9  and  N_10
REMARK    6  A    between atoms: C_11  and  C_13
REMARK                            x       y       z     vdW  Elec       q    Type
REMARK                         _______ _______ _______ _____ _____    ______ ____
ROOT
ATOM      1  C   UNL     1      45.384   4.787  11.804  0.00  0.00    +0.000 A 
ATOM      2  C   UNL     1      45.657   6.019  11.194  0.00  0.00    +0.000 A 
ATOM      3  C   UNL     1      46.521   6.938  11.798  0.00  0.00    +0.000 A 
ATOM      4  C   UNL     1      47.145   6.636  13.015  0.00  0.00    +0.000 A 
ATOM      5  C   UNL     1      46.855   5.413  13.636  0.00  0.00    +0.000 A 
ATOM      6  C   UNL     1      45.992   4.493  13.031  0.00  0.00    +0.000 A 
ENDROOT
BRANCH   1   7
ATOM      7  C   UNL     1      44.456   3.797  11.154  0.00  0.00    +0.000 C 
BRANCH   7  10
ATOM      8  O   UNL     1      44.755   4.183   8.440  0.00  0.00    +0.000 OA
ATOM      9  C   UNL     1      45.255   3.172   8.929  0.00  0.00    +0.000 C 
ATOM     10  N   UNL     1      45.146   2.888  10.274  0.00  0.00    +0.000 N 
ATOM     11  H   UNL     1      45.625   2.075  10.641  0.00  0.00    +0.000 HD
BRANCH   9  12
ATOM     12  C   UNL     1      46.004   2.208   8.149  0.00  0.00    +0.000 A 
ATOM     13  C   UNL     1      46.798   2.387   7.029  0.00  0.00    +0.000 A 
ATOM     14  C   UNL     1      47.278   1.109   6.658  0.00  0.00    +0.000 A 
ATOM     15  C   UNL     1      46.750   0.226   7.571  0.00  0.00    +0.000 A 
ATOM     16  O   UNL     1      45.983   0.879   8.484  0.00  0.00    +0.000 OA
ENDBRANCH   9  12
ENDBRANCH   7  10
ENDBRANCH   1   7
BRANCH   4  17
ATOM     17  C   UNL     1      48.076   7.621  13.675  0.00  0.00    +0.000 C 
BRANCH  17  18
ATOM     18  N   UNL     1      48.004   7.518  15.109  0.00  0.00    +0.000 N 
ATOM     19  C   UNL     1      49.060   7.049  15.849  0.00  0.00    +0.000 C 
ATOM     20  O   UNL     1      50.133   6.745  15.336  0.00  0.00    +0.000 OA
ATOM     21  H   UNL     1      47.077   7.530  15.520  0.00  0.00    +0.000 HD
BRANCH  19  22
ATOM     22  C   UNL     1      48.858   6.993  17.303  0.00  0.00    +0.000 A 
ATOM     23  C   UNL     1      48.614   8.161  18.013  0.00  0.00    +0.000 A 
ATOM     24  S   UNL     1      48.328   7.903  19.675  0.00  0.00    +0.000 S 
ATOM     25  C   UNL     1      48.575   6.228  19.514  0.00  0.00    +0.000 A 
ATOM     26  N   UNL     1      48.489   5.401  20.591  0.00  0.00    +0.000 NA
ATOM     27  C   UNL     1      48.732   4.159  20.331  0.00  0.00    +0.000 A 
ATOM     28  N   UNL     1      49.052   3.670  19.092  0.00  0.00    +0.000 N 
ATOM     29  C   UNL     1      49.130   4.462  17.971  0.00  0.00    +0.000 A 
ATOM     30  O   UNL     1      49.390   3.987  16.872  0.00  0.00    +0.000 OA
ATOM     31  C   UNL     1      48.863   5.868  18.209  0.00  0.00    +0.000 A 
ATOM     32  H   UNL     1      49.231   2.686  18.953  0.00  0.00    +0.000 HD
ENDBRANCH  19  22
ENDBRANCH  17  18
ENDBRANCH   4  17
TORSDOF 6
ENDMDL
MODEL 3
REMARK VINA RESULT:    -7.499      2.206      2.572
REMARK INTER + INTRA:         -11.245
REMARK INTER:                 -10.350
REMARK INTRA:                  -0.894
REMARK UNBOUND:                -1.116
REMARK  Name = 
REMARK  6 active torsions:
REMARK  status: ('A' for Active; 'I' for Inactive)
REMARK    1  A    between atoms: C_2  and  C_25
REMARK    2  A    between atoms: N_3  and  C_4
REMARK    3  A    between atoms: C_4  and  C_5
REMARK    4  A    between atoms: C_8  and  C_9
REMARK    5  A    between atoms: C_9  and  N_10
REMARK    6  A    between atoms: C_11  and  C_13
REMARK                            x       y       z     vdW  Elec       q    Type
REMARK                         _______ _______ _______ _____ _____    ______ ____
ROOT
ATOM      1  C   UNL     1      45.153   5.265  11.457  0.00  0.00    +0.000 A 
ATOM      2  C   UNL     1      45.293   6.651  11.305  0.00  0.00    +0.000 A 
ATOM      3  C   UNL     1      46.207   7.365  12.088  0.00  0.00    +0.000 A 
ATOM      4  C   UNL     1      47.013   6.705  13.023  0.00  0.00    +0.000 A 
ATOM      5  C   UNL     1      46.857   5.322  13.190  0.00  0.00    +0.000 A 
ATOM      6  C   UNL     1      45.944   4.608  12.407  0.00  0.00    +0.000 A 
ENDROOT
BRANCH   1   7
ATOM      7  C   UNL     1      44.171   4.496  10.615  0.00  0.00    +0.000 C 
BRANCH   7  10
ATOM      8  O   UNL     1      45.587   4.970   8.297  0.00  0.00    +0.000 OA
ATOM      9  C   UNL     1      45.503   3.806   8.684  0.00  0.00    +0.000 C 
ATOM     10  N   UNL     1      44.805   3.470   9.825  0.00  0.00    +0.000 N 
ATOM     11  H   UNL     1      44.815   2.507  10.137  0.00  0.00    +0.000 HD
BRANCH   9  12
ATOM     12  C   UNL     1      46.133   2.700   7.993  0.00  0.00    +0.000 A 
ATOM     13  C   UNL     1      46.766   2.657   6.763  0.00  0.00    +0.000 A 
ATOM     14  C   UNL     1      47.184   1.321   6.562  0.00  0.00    +0.000 A 
ATOM     15  C   UNL     1      46.780   0.625   7.678  0.00  0.00    +0.000 A 
ATOM     16  O   UNL     1      46.150   1.450   8.557  0.00  0.00    +0.000 OA
ENDBRANCH   9  12
ENDBRANCH   7  10
ENDBRANCH   1   7
BRANCH   4  17
ATOM     17  C   UNL     1      47.999   7.466  13.872  0.00  0.00    +0.000 C 
BRANCH  17  18
ATOM     18  N   UNL     1      47.946   7.029  15.243  0.00  0.00    +0.000 N 
ATOM     19  C   UNL     1      49.065   6.580  15.897  0.00  0.00    +0.000 C 
ATOM     20  O   UNL     1      50.173   6.578  15.368  0.00  0.00    +0.000 OA
ATOM     21  H   UNL     1      47.030   6.799  15.611  0.00  0.00    +0.000 HD
BRANCH  19  22
ATOM     22  C   UNL     1      48.877   6.162  17.292  0.00  0.00    +0.000 A 
ATOM     23  C   UNL     1      49.222   4.874  17.681  0.00  0.00    +0.000 A 
ATOM     24  S   UNL     1      49.012   4.585  19.349  0.00  0.00    +0.000 S 
ATOM     25  C   UNL     1      48.399   6.152  19.600  0.00  0.00    +0.000 A 
ATOM     26  N   UNL     1      48.004   6.560  20.836  0.00  0.00    +0.000 NA
ATOM     27  C   UNL     1      47.529   7.761  20.876  0.00  0.00    +0.000 A 
ATOM     28  N   UNL     1      47.415   8.591  19.791  0.00  0.00    +0.000 N 
ATOM     29  C   UNL     1      47.820   8.231  18.528  0.00  0.00    +0.000 A 
ATOM     30  O   UNL     1      47.731   9.009  17.586  0.00  0.00    +0.000 OA
ATOM     31  C   UNL     1      48.364   6.890  18.430  0.00  0.00    +0.000 A 
ATOM     32  H   UNL     1      47.034   9.520  19.888  0.00  0.00    +0.000 HD
ENDBRANCH  19  22
ENDBRANCH  17  18
ENDBRANCH   4  17
TORSDOF 6
ENDMDL
MODEL 4
REMARK VINA RESULT:    -7.379      2.345      3.872
REMARK INTER + INTRA:         -11.083
REMARK INTER:                 -10.191
REMARK INTRA:                  -0.892
REMARK UNBOUND:                -1.116
REMARK  Name = 
REMARK  6 active torsions:
REMARK  status: ('A' for Active; 'I' for Inactive)
REMARK    1  A    between atoms: C_2  and  C_25
REMARK    2  A    between atoms: N_3  and  C_4
REMARK    3  A    between atoms: C_4  and  C_5
REMARK    4  A    between atoms: C_8  and  C_9
REMARK    5  A    between atoms: C_9  and  N_10
REMARK    6  A    between atoms: C_11  and  C_13
REMARK                            x       y       z     vdW  Elec       q    Type
REMARK                         _______ _______ _______ _____ _____    ______ ____
ROOT
ATOM      1  C   UNL     1      44.661   4.446  11.336  0.00  0.00    +0.000 A 
ATOM      2  C   UNL     1      44.861   5.666  11.997  0.00  0.00    +0.000 A 
ATOM      3  C   UNL     1      45.591   5.720  13.189  0.00  0.00    +0.000 A 
ATOM      4  C   UNL     1      46.154   4.559  13.733  0.00  0.00    +0.000 A 
ATOM      5  C   UNL     1      45.937   3.336  13.083  0.00  0.00    +0.000 A 
ATOM      6  C   UNL     1      45.208   3.282  11.891  0.00  0.00    +0.000 A 
ENDROOT
BRANCH   1   7
ATOM      7  C   UNL     1      43.877   4.386  10.054  0.00  0.00    +0.000 C 
BRANCH   7  10
ATOM      8  O   UNL     1      46.059   5.317   8.649  0.00  0.00    +0.000 OA
ATOM      9  C   UNL     1      45.651   4.189   8.383  0.00  0.00    +0.000 C 
ATOM     10  N   UNL     1      44.558   3.644   9.023  0.00  0.00    +0.000 N 
ATOM     11  H   UNL     1      44.296   2.689   8.813  0.00  0.00    +0.000 HD
BRANCH   9  12
ATOM     12  C   UNL     1      46.280   3.337   7.394  0.00  0.00    +0.000 A 
ATOM     13  C   UNL     1      46.761   2.044   7.503  0.00  0.00    +0.000 A 
ATOM     14  C   UNL     1      47.292   1.695   6.240  0.00  0.00    +0.000 A 
ATOM     15  C   UNL     1      47.107   2.795   5.434  0.00  0.00    +0.000 A 
ATOM     16  O   UNL     1      46.487   3.793   6.117  0.00  0.00    +0.000 OA
ENDBRANCH   9  12
ENDBRANCH   7  10
ENDBRANCH   1   7
BRANCH   4  17
ATOM     17  C   UNL     1      46.943   4.607  15.017  0.00  0.00    +0.000 C 
BRANCH  17  18
ATOM     18  N   UNL     1      47.722   5.816  15.099  0.00  0.00    +0.000 N 
ATOM     19  C   UNL     1      48.795   5.921  15.946  0.00  0.00    +0.000 C 
ATOM     20  O   UNL     1      49.178   4.981  16.636  0.00  0.00    +0.000 OA
ATOM     21  H   UNL     1      47.293   6.658  14.734  0.00  0.00    +0.000 HD
BRANCH  19  22
ATOM     22  C   UNL     1      49.506   7.207  15.935  0.00  0.00    +0.000 A 
ATOM     23  C   UNL     1      49.769   7.862  17.131  0.00  0.00    +0.000 A 
ATOM     24  S   UNL     1      50.669   9.298  16.940  0.00  0.00    +0.000 S 
ATOM     25  C   UNL     1      50.690   9.125  15.247  0.00  0.00    +0.000 A 
ATOM     26  N   UNL     1      51.302  10.047  14.457  0.00  0.00    +0.000 NA
ATOM     27  C   UNL     1      51.213   9.808  13.190  0.00  0.00    +0.000 A 
ATOM     28  N   UNL     1      50.568   8.729  12.644  0.00  0.00    +0.000 N 
ATOM     29  C   UNL     1      49.955   7.761  13.402  0.00  0.00    +0.000 A 
ATOM     30  O   UNL     1      49.412   6.794  12.882  0.00  0.00    +0.000 OA
ATOM     31  C   UNL     1      50.028   7.982  14.834  0.00  0.00    +0.000 A 
ATOM     32  H   UNL     1      50.533   8.598  11.644  0.00  0.00    +0.000 HD
ENDBRANCH  19  22
ENDBRANCH  17  18
ENDBRANCH   4  17
TORSDOF 6
ENDMDL
MODEL 5
REMARK VINA RESULT:    -7.089      2.936      3.613
REMARK INTER + INTRA:         -10.691
REMARK INTER:                  -9.722
REMARK INTRA:                  -0.969
REMARK UNBOUND:                -1.116
REMARK  Name = 
REMARK  6 active torsions:
REMARK  status: ('A' for Active; 'I' for Inactive)
REMARK    1  A    between atoms: C_2  and  C_25
REMARK    2  A    between atoms: N_3  and  C_4
REMARK    3  A    between atoms: C_4  and  C_5
REMARK    4  A    between atoms: C_8  and  C_9
REMARK    5  A    between atoms: C_9  and  N_10
REMARK    6  A    between atoms: C_11  and  C_13
REMARK                            x       y       z     vdW  Elec       q    Type
REMARK                         _______ _______ _______ _____ _____    ______ ____
ROOT
ATOM      1  C   UNL     1      45.158   4.560  11.713  0.00  0.00    +0.000 A 
ATOM      2  C   UNL     1      45.594   5.811  12.172  0.00  0.00    +0.000 A 
ATOM      3  C   UNL     1      46.429   5.909  13.290  0.00  0.00    +0.000 A 
ATOM      4  C   UNL     1      46.860   4.758  13.960  0.00  0.00    +0.000 A 
ATOM      5  C   UNL     1      46.407   3.508  13.515  0.00  0.00    +0.000 A 
ATOM      6  C   UNL     1      45.574   3.410  12.396  0.00  0.00    +0.000 A 
ENDROOT
BRANCH   1   7
ATOM      7  C   UNL     1      44.261   4.453  10.510  0.00  0.00    +0.000 C 
BRANCH   7  10
ATOM      8  O   UNL     1      46.047   5.398   8.633  0.00  0.00    +0.000 OA
ATOM      9  C   UNL     1      45.735   4.211   8.573  0.00  0.00    +0.000 C 
ATOM     10  N   UNL     1      44.839   3.652   9.460  0.00  0.00    +0.000 N 
ATOM     11  H   UNL     1      44.658   2.656   9.408  0.00  0.00    +0.000 HD
BRANCH   9  12
ATOM     12  C   UNL     1      46.281   3.302   7.586  0.00  0.00    +0.000 A 
ATOM     13  C   UNL     1      46.631   1.967   7.695  0.00  0.00    +0.000 A 
ATOM     14  C   UNL     1      47.131   1.570   6.434  0.00  0.00    +0.000 A 
ATOM     15  C   UNL     1      47.060   2.683   5.629  0.00  0.00    +0.000 A 
ATOM     16  O   UNL     1      46.539   3.737   6.311  0.00  0.00    +0.000 OA
ENDBRANCH   9  12
ENDBRANCH   7  10
ENDBRANCH   1   7
BRANCH   4  17
ATOM     17  C   UNL     1      47.759   4.854  15.167  0.00  0.00    +0.000 C 
BRANCH  17  18
ATOM     18  N   UNL     1      47.786   6.198  15.684  0.00  0.00    +0.000 N 
ATOM     19  C   UNL     1      48.967   6.836  15.961  0.00  0.00    +0.000 C 
ATOM     20  O   UNL     1      50.058   6.320  15.734  0.00  0.00    +0.000 OA
ATOM     21  H   UNL     1      46.926   6.543  16.097  0.00  0.00    +0.000 HD
BRANCH  19  22
ATOM     22  C   UNL     1      48.858   8.204  16.485  0.00  0.00    +0.000 A 
ATOM     23  C   UNL     1      49.389   9.266  15.763  0.00  0.00    +0.000 A 
ATOM     24  S   UNL     1      49.105  10.788  16.478  0.00  0.00    +0.000 S 
ATOM     25  C   UNL     1      48.311  10.078  17.805  0.00  0.00    +0.000 A 
ATOM     26  N   UNL     1      47.819  10.843  18.817  0.00  0.00    +0.000 NA
ATOM     27  C   UNL     1      47.270  10.171  19.775  0.00  0.00    +0.000 A 
ATOM     28  N   UNL     1      47.168   8.805  19.811  0.00  0.00    +0.000 N 
ATOM     29  C   UNL     1      47.630   7.994  18.803  0.00  0.00    +0.000 A 
ATOM     30  O   UNL     1      47.496   6.777  18.853  0.00  0.00    +0.000 OA
ATOM     31  C   UNL     1      48.255   8.700  17.700  0.00  0.00    +0.000 A 
ATOM     32  H   UNL     1      46.727   8.339  20.589  0.00  0.00    +0.000 HD
ENDBRANCH  19  22
ENDBRANCH  17  18
ENDBRANCH   4  17
TORSDOF 6
ENDMDL
MODEL 6
REMARK VINA RESULT:    -6.869      2.597      3.616
REMARK INTER + INTRA:         -10.393
REMARK INTER:                  -9.832
REMARK INTRA:                  -0.561
REMARK UNBOUND:                -1.116
REMARK  Name = 
REMARK  6 active torsions:
REMARK  status: ('A' for Active; 'I' for Inactive)
REMARK    1  A    between atoms: C_2  and  C_25
REMARK    2  A    between atoms: N_3  and  C_4
REMARK    3  A    between atoms: C_4  and  C_5
REMARK    4  A    between atoms: C_8  and  C_9
REMARK    5  A    between atoms: C_9  and  N_10
REMARK    6  A    between atoms: C_11  and  C_13
REMARK                            x       y       z     vdW  Elec       q    Type
REMARK                         _______ _______ _______ _____ _____    ______ ____
ROOT
ATOM      1  C   UNL     1      44.585   4.512  11.237  0.00  0.00    +0.000 A 
ATOM      2  C   UNL     1      44.792   5.720  11.917  0.00  0.00    +0.000 A 
ATOM      3  C   UNL     1      45.500   5.746  13.123  0.00  0.00    +0.000 A 
ATOM      4  C   UNL     1      46.033   4.569  13.663  0.00  0.00    +0.000 A 
ATOM      5  C   UNL     1      45.808   3.359  12.994  0.00  0.00    +0.000 A 
ATOM      6  C   UNL     1      45.101   3.332  11.787  0.00  0.00    +0.000 A 
ENDROOT
BRANCH   1   7
ATOM      7  C   UNL     1      43.825   4.482   9.939  0.00  0.00    +0.000 C 
BRANCH   7  10
ATOM      8  O   UNL     1      46.103   5.335   8.641  0.00  0.00    +0.000 OA
ATOM      9  C   UNL     1      45.650   4.236   8.330  0.00  0.00    +0.000 C 
ATOM     10  N   UNL     1      44.508   3.731   8.915  0.00  0.00    +0.000 N 
ATOM     11  H   UNL     1      44.207   2.795   8.671  0.00  0.00    +0.000 HD
BRANCH   9  12
ATOM     12  C   UNL     1      46.274   3.377   7.344  0.00  0.00    +0.000 A 
ATOM     13  C   UNL     1      46.740   2.078   7.455  0.00  0.00    +0.000 A 
ATOM     14  C   UNL     1      47.273   1.725   6.194  0.00  0.00    +0.000 A 
ATOM     15  C   UNL     1      47.104   2.826   5.387  0.00  0.00    +0.000 A 
ATOM     16  O   UNL     1      46.493   3.831   6.069  0.00  0.00    +0.000 OA
ENDBRANCH   9  12
ENDBRANCH   7  10
ENDBRANCH   1   7
BRANCH   4  17
ATOM     17  C   UNL     1      46.797   4.588  14.963  0.00  0.00    +0.000 C 
BRANCH  17  18
ATOM     18  N   UNL     1      47.813   5.609  14.949  0.00  0.00    +0.000 N 
ATOM     19  C   UNL     1      48.421   6.031  16.103  0.00  0.00    +0.000 C 
ATOM     20  O   UNL     1      48.172   5.527  17.195  0.00  0.00    +0.000 OA
ATOM     21  H   UNL     1      47.860   6.192  14.121  0.00  0.00    +0.000 HD
BRANCH  19  22
ATOM     22  C   UNL     1      49.441   7.078  15.954  0.00  0.00    +0.000 A 
ATOM     23  C   UNL     1      49.085   8.323  15.453  0.00  0.00    +0.000 A 
ATOM     24  S   UNL     1      50.374   9.440  15.420  0.00  0.00    +0.000 S 
ATOM     25  C   UNL     1      51.466   8.281  16.020  0.00  0.00    +0.000 A 
ATOM     26  N   UNL     1      52.776   8.591  16.219  0.00  0.00    +0.000 NA
ATOM     27  C   UNL     1      53.497   7.608  16.647  0.00  0.00    +0.000 A 
ATOM     28  N   UNL     1      53.027   6.345  16.895  0.00  0.00    +0.000 N 
ATOM     29  C   UNL     1      51.709   5.992  16.730  0.00  0.00    +0.000 A 
ATOM     30  O   UNL     1      51.316   4.861  16.990  0.00  0.00    +0.000 OA
ATOM     31  C   UNL     1      50.854   7.062  16.252  0.00  0.00    +0.000 A 
ATOM     32  H   UNL     1      53.643   5.619  17.229  0.00  0.00    +0.000 HD
ENDBRANCH  19  22
ENDBRANCH  17  18
ENDBRANCH   4  17
TORSDOF 6
ENDMDL
MODEL 7
REMARK VINA RESULT:    -6.621      4.725      7.302
REMARK INTER + INTRA:         -10.059
REMARK INTER:                  -9.161
REMARK INTRA:                  -0.898
REMARK UNBOUND:                -1.116
REMARK  Name = 
REMARK  6 active torsions:
REMARK  status: ('A' for Active; 'I' for Inactive)
REMARK    1  A    between atoms: C_2  and  C_25
REMARK    2  A    between atoms: N_3  and  C_4
REMARK    3  A    between atoms: C_4  and  C_5
REMARK    4  A    between atoms: C_8  and  C_9
REMARK    5  A    between atoms: C_9  and  N_10
REMARK    6  A    between atoms: C_11  and  C_13
REMARK                            x       y       z     vdW  Elec       q    Type
REMARK                         _______ _______ _______ _____ _____    ______ ____
ROOT
ATOM      1  C   UNL     1      50.461   8.745  11.349  0.00  0.00    +0.000 A 
ATOM      2  C   UNL     1      49.601   9.844  11.474  0.00  0.00    +0.000 A 
ATOM      3  C   UNL     1      48.309   9.684  11.988  0.00  0.00    +0.000 A 
ATOM      4  C   UNL     1      47.859   8.425  12.404  0.00  0.00    +0.000 A 
ATOM      5  C   UNL     1      48.712   7.322  12.259  0.00  0.00    +0.000 A 
ATOM      6  C   UNL     1      50.004   7.482  11.747  0.00  0.00    +0.000 A 
ENDROOT
BRANCH   1   7
ATOM      7  C   UNL     1      51.851   8.916  10.797  0.00  0.00    +0.000 C 
BRANCH   7  10
ATOM      8  O   UNL     1      52.721   8.881   8.181  0.00  0.00    +0.000 OA
ATOM      9  C   UNL     1      52.750   7.822   8.804  0.00  0.00    +0.000 C 
ATOM     10  N   UNL     1      52.322   7.739  10.112  0.00  0.00    +0.000 N 
ATOM     11  H   UNL     1      52.422   6.858  10.603  0.00  0.00    +0.000 HD
BRANCH   9  12
ATOM     12  C   UNL     1      53.240   6.585   8.231  0.00  0.00    +0.000 A 
ATOM     13  C   UNL     1      54.296   5.777   8.616  0.00  0.00    +0.000 A 
ATOM     14  C   UNL     1      54.347   4.702   7.698  0.00  0.00    +0.000 A 
ATOM     15  C   UNL     1      53.322   4.916   6.806  0.00  0.00    +0.000 A 
ATOM     16  O   UNL     1      52.639   6.049   7.122  0.00  0.00    +0.000 OA
ENDBRANCH   9  12
ENDBRANCH   7  10
ENDBRANCH   1   7
BRANCH   4  17
ATOM     17  C   UNL     1      46.469   8.242  12.958  0.00  0.00    +0.000 C 
BRANCH  17  18
ATOM     18  N   UNL     1      45.976   6.916  12.687  0.00  0.00    +0.000 N 
ATOM     19  C   UNL     1      44.970   6.696  11.781  0.00  0.00    +0.000 C 
ATOM     20  O   UNL     1      44.477   7.605  11.119  0.00  0.00    +0.000 OA
ATOM     21  H   UNL     1      46.189   6.203  13.375  0.00  0.00    +0.000 HD
BRANCH  19  22
ATOM     22  C   UNL     1      44.558   5.299  11.597  0.00  0.00    +0.000 A 
ATOM     23  C   UNL     1      43.881   4.637  12.614  0.00  0.00    +0.000 A 
ATOM     24  S   UNL     1      43.411   3.050  12.202  0.00  0.00    +0.000 S 
ATOM     25  C   UNL     1      44.144   3.171  10.671  0.00  0.00    +0.000 A 
ATOM     26  N   UNL     1      44.118   2.128   9.798  0.00  0.00    +0.000 NA
ATOM     27  C   UNL     1      44.741   2.347   8.687  0.00  0.00    +0.000 A 
ATOM     28  N   UNL     1      45.384   3.514   8.370  0.00  0.00    +0.000 N 
ATOM     29  C   UNL     1      45.418   4.602   9.209  0.00  0.00    +0.000 A 
ATOM     30  O   UNL     1      45.978   5.641   8.882  0.00  0.00    +0.000 OA
ATOM     31  C   UNL     1      44.731   4.409  10.473  0.00  0.00    +0.000 A 
ATOM     32  H   UNL     1      45.853   3.623   7.483  0.00  0.00    +0.000 HD
ENDBRANCH  19  22
ENDBRANCH  17  18
ENDBRANCH   4  17
TORSDOF 6
ENDMDL
MODEL 8
REMARK VINA RESULT:    -6.490      3.271      4.744
REMARK INTER + INTRA:          -9.882
REMARK INTER:                  -8.889
REMARK INTRA:                  -0.994
REMARK UNBOUND:                -1.116
REMARK  Name = 
REMARK  6 active torsions:
REMARK  status: ('A' for Active; 'I' for Inactive)
REMARK    1  A    between atoms: C_2  and  C_25
REMARK    2  A    between atoms: N_3  and  C_4
REMARK    3  A    between atoms: C_4  and  C_5
REMARK    4  A    between atoms: C_8  and  C_9
REMARK    5  A    between atoms: C_9  and  N_10
REMARK    6  A    between atoms: C_11  and  C_13
REMARK                            x       y       z     vdW  Elec       q    Type
REMARK                         _______ _______ _______ _____ _____    ______ ____
ROOT
ATOM      1  C   UNL     1      45.662   5.546  11.548  0.00  0.00    +0.000 A 
ATOM      2  C   UNL     1      45.774   4.748  12.694  0.00  0.00    +0.000 A 
ATOM      3  C   UNL     1      46.639   5.108  13.733  0.00  0.00    +0.000 A 
ATOM      4  C   UNL     1      47.396   6.283  13.654  0.00  0.00    +0.000 A 
ATOM      5  C   UNL     1      47.301   7.071  12.499  0.00  0.00    +0.000 A 
ATOM      6  C   UNL     1      46.434   6.711  11.461  0.00  0.00    +0.000 A 
ENDROOT
BRANCH   1   7
ATOM      7  C   UNL     1      44.731   5.161  10.431  0.00  0.00    +0.000 C 
BRANCH   7  10
ATOM      8  O   UNL     1      44.696   2.475   9.806  0.00  0.00    +0.000 OA
ATOM      9  C   UNL     1      45.338   3.222   9.070  0.00  0.00    +0.000 C 
ATOM     10  N   UNL     1      45.424   4.577   9.310  0.00  0.00    +0.000 N 
ATOM     11  H   UNL     1      45.914   5.160   8.642  0.00  0.00    +0.000 HD
BRANCH   9  12
ATOM     12  C   UNL     1      46.041   2.753   7.893  0.00  0.00    +0.000 A 
ATOM     13  C   UNL     1      46.245   3.366   6.669  0.00  0.00    +0.000 A 
ATOM     14  C   UNL     1      46.982   2.459   5.873  0.00  0.00    +0.000 A 
ATOM     15  C   UNL     1      47.183   1.345   6.655  0.00  0.00    +0.000 A 
ATOM     16  O   UNL     1      46.626   1.513   7.883  0.00  0.00    +0.000 OA
ENDBRANCH   9  12
ENDBRANCH   7  10
ENDBRANCH   1   7
BRANCH   4  17
ATOM     17  C   UNL     1      48.332   6.679  14.768  0.00  0.00    +0.000 C 
BRANCH  17  18
ATOM     18  N   UNL     1      49.647   6.970  14.257  0.00  0.00    +0.000 N 
ATOM     19  C   UNL     1      50.306   8.126  14.590  0.00  0.00    +0.000 C 
ATOM     20  O   UNL     1      49.836   8.942  15.378  0.00  0.00    +0.000 OA
ATOM     21  H   UNL     1      49.943   6.447  13.441  0.00  0.00    +0.000 HD
BRANCH  19  22
ATOM     22  C   UNL     1      51.640   8.304  14.003  0.00  0.00    +0.000 A 
ATOM     23  C   UNL     1      52.762   8.305  14.822  0.00  0.00    +0.000 A 
ATOM     24  S   UNL     1      54.232   8.444  13.967  0.00  0.00    +0.000 S 
ATOM     25  C   UNL     1      53.418   8.566  12.478  0.00  0.00    +0.000 A 
ATOM     26  N   UNL     1      54.106   8.722  11.315  0.00  0.00    +0.000 NA
ATOM     27  C   UNL     1      53.362   8.833  10.265  0.00  0.00    +0.000 A 
ATOM     28  N   UNL     1      51.992   8.801  10.273  0.00  0.00    +0.000 N 
ATOM     29  C   UNL     1      51.254   8.623  11.419  0.00  0.00    +0.000 A 
ATOM     30  O   UNL     1      50.031   8.570  11.387  0.00  0.00    +0.000 OA
ATOM     31  C   UNL     1      52.045   8.491  12.629  0.00  0.00    +0.000 A 
ATOM     32  H   UNL     1      51.466   8.894   9.417  0.00  0.00    +0.000 HD
ENDBRANCH  19  22
ENDBRANCH  17  18
ENDBRANCH   4  17
TORSDOF 6
ENDMDL
MODEL 9
REMARK VINA RESULT:    -5.680      5.468      6.836
REMARK INTER + INTRA:          -8.788
REMARK INTER:                  -8.215
REMARK INTRA:                  -0.573
REMARK UNBOUND:                -1.116
REMARK  Name = 
REMARK  6 active torsions:
REMARK  status: ('A' for Active; 'I' for Inactive)
REMARK    1  A    between atoms: C_2  and  C_25
REMARK    2  A    between atoms: N_3  and  C_4
REMARK    3  A    between atoms: C_4  and  C_5
REMARK    4  A    between atoms: C_8  and  C_9
REMARK    5  A    between atoms: C_9  and  N_10
REMARK    6  A    between atoms: C_11  and  C_13
REMARK                            x       y       z     vdW  Elec       q    Type
REMARK                         _______ _______ _______ _____ _____    ______ ____
ROOT
ATOM      1  C   UNL     1      52.332   8.707   9.772  0.00  0.00    +0.000 A 
ATOM      2  C   UNL     1      51.829   7.519  10.320  0.00  0.00    +0.000 A 
ATOM      3  C   UNL     1      50.858   7.553  11.326  0.00  0.00    +0.000 A 
ATOM      4  C   UNL     1      50.356   8.775  11.791  0.00  0.00    +0.000 A 
ATOM      5  C   UNL     1      50.874   9.963  11.258  0.00  0.00    +0.000 A 
ATOM      6  C   UNL     1      51.845   9.929  10.251  0.00  0.00    +0.000 A 
ENDROOT
BRANCH   1   7
ATOM      7  C   UNL     1      53.376   8.671   8.689  0.00  0.00    +0.000 C 
BRANCH   7  10
ATOM      8  O   UNL     1      52.589   7.184   6.504  0.00  0.00    +0.000 OA
ATOM      9  C   UNL     1      53.393   6.673   7.280  0.00  0.00    +0.000 C 
ATOM     10  N   UNL     1      53.835   7.334   8.407  0.00  0.00    +0.000 N 
ATOM     11  H   UNL     1      54.543   6.896   8.983  0.00  0.00    +0.000 HD
BRANCH   9  12
ATOM     12  C   UNL     1      53.952   5.352   7.077  0.00  0.00    +0.000 A 
ATOM     13  C   UNL     1      54.989   4.708   7.730  0.00  0.00    +0.000 A 
ATOM     14  C   UNL     1      55.133   3.440   7.121  0.00  0.00    +0.000 A 
ATOM     15  C   UNL     1      54.179   3.383   6.132  0.00  0.00    +0.000 A 
ATOM     16  O   UNL     1      53.451   4.530   6.099  0.00  0.00    +0.000 OA
ENDBRANCH   9  12
ENDBRANCH   7  10
ENDBRANCH   1   7
BRANCH   4  17
ATOM     17  C   UNL     1      49.310   8.822  12.876  0.00  0.00    +0.000 C 
BRANCH  17  18
ATOM     18  N   UNL     1      48.087   8.197  12.441  0.00  0.00    +0.000 N 
ATOM     19  C   UNL     1      47.462   7.241  13.199  0.00  0.00    +0.000 C 
ATOM     20  O   UNL     1      47.878   6.908  14.304  0.00  0.00    +0.000 OA
ATOM     21  H   UNL     1      47.863   8.274  11.455  0.00  0.00    +0.000 HD
BRANCH  19  22
ATOM     22  C   UNL     1      46.223   6.681  12.643  0.00  0.00    +0.000 A 
ATOM     23  C   UNL     1      45.278   7.524  12.072  0.00  0.00    +0.000 A 
ATOM     24  S   UNL     1      43.940   6.700  11.408  0.00  0.00    +0.000 S 
ATOM     25  C   UNL     1      44.548   5.193  11.911  0.00  0.00    +0.000 A 
ATOM     26  N   UNL     1      43.863   4.043  11.664  0.00  0.00    +0.000 NA
ATOM     27  C   UNL     1      44.424   2.977  12.129  0.00  0.00    +0.000 A 
ATOM     28  N   UNL     1      45.609   2.956  12.818  0.00  0.00    +0.000 N 
ATOM     29  C   UNL     1      46.347   4.087  13.071  0.00  0.00    +0.000 A 
ATOM     30  O   UNL     1      47.418   4.029  13.664  0.00  0.00    +0.000 OA
ATOM     31  C   UNL     1      45.760   5.315  12.567  0.00  0.00    +0.000 A 
ATOM     32  H   UNL     1      45.996   2.088  13.156  0.00  0.00    +0.000 HD
ENDBRANCH  19  22
ENDBRANCH  17  18
ENDBRANCH   4  17
TORSDOF 6
ENDMDL
