MODEL 1
REMARK VINA RESULT:    -8.613      0.000      0.000
REMARK INTER + INTRA:         -12.796
REMARK INTER:                 -11.885
REMARK INTRA:                  -0.911
REMARK UNBOUND:                -0.911
REMARK  Name = 
REMARK  7 active torsions:
REMARK  status: ('A' for Active; 'I' for Inactive)
REMARK    1  A    between atoms: C_2  and  C_21
REMARK    2  A    between atoms: N_3  and  C_4
REMARK    3  A    between atoms: C_4  and  C_5
REMARK    4  A    between atoms: C_8  and  C_9
REMARK    5  A    between atoms: C_9  and  O_10
REMARK    6  A    between atoms: C_9  and  C_11
REMARK    7  A    between atoms: C_11  and  N_12
REMARK                            x       y       z     vdW  Elec       q    Type
REMARK                         _______ _______ _______ _____ _____    ______ ____
ROOT
ATOM      1  C   UNL     1      46.907   6.533  13.088  0.00  0.00    +0.000 A 
ATOM      2  C   UNL     1      46.572   6.900  11.786  0.00  0.00    +0.000 A 
ATOM      3  C   UNL     1      45.581   6.185  11.113  0.00  0.00    +0.000 A 
ATOM      4  C   UNL     1      44.939   5.112  11.739  0.00  0.00    +0.000 A 
ATOM      5  C   UNL     1      45.370   4.800  13.029  0.00  0.00    +0.000 A 
ATOM      6  N   UNL     1      46.335   5.470  13.704  0.00  0.00    +0.000 NA
ENDROOT
BRANCH   1   7
ATOM      7  C   UNL     1      48.004   7.257  13.838  0.00  0.00    +0.000 C 
BRANCH   7  10
ATOM      8  O   UNL     1      48.590   8.224  16.465  0.00  0.00    +0.000 OA
ATOM      9  C   UNL     1      48.796   7.048  16.172  0.00  0.00    +0.000 C 
ATOM     10  N   UNL     1      48.417   6.478  14.977  0.00  0.00    +0.000 N 
ATOM     11  H   UNL     1      48.826   5.588  14.731  0.00  0.00    +0.000 HD
BRANCH   9  12
ATOM     12  C   UNL     1      49.657   6.168  16.946  0.00  0.00    +0.000 A 
ATOM     13  C   UNL     1      50.867   6.576  17.472  0.00  0.00    +0.000 A 
ATOM     14  S   UNL     1      51.885   5.238  17.823  0.00  0.00    +0.000 S 
ATOM     15  C   UNL     1      50.661   4.125  17.403  0.00  0.00    +0.000 A 
ATOM     16  N   UNL     1      50.885   2.787  17.313  0.00  0.00    +0.000 NA
ATOM     17  C   UNL     1      49.831   2.092  17.030  0.00  0.00    +0.000 A 
ATOM     18  N   UNL     1      48.563   2.605  16.881  0.00  0.00    +0.000 N 
ATOM     19  C   UNL     1      48.289   3.947  16.979  0.00  0.00    +0.000 A 
ATOM     20  O   UNL     1      47.144   4.383  16.929  0.00  0.00    +0.000 OA
ATOM     21  C   UNL     1      49.470   4.766  17.159  0.00  0.00    +0.000 A 
ATOM     22  H   UNL     1      47.768   2.001  16.746  0.00  0.00    +0.000 HD
ENDBRANCH   9  12
ENDBRANCH   7  10
ENDBRANCH   1   7
BRANCH   4  23
ATOM     23  C   UNL     1      43.829   4.365  11.019  0.00  0.00    +0.000 C 
BRANCH  23  24
ATOM     24  O   UNL     1      43.059   5.294  10.241  0.00  0.00    +0.000 OA
ATOM     25  H   UNL     1      42.121   5.077  10.364  0.00  0.00    +0.000 HD
ENDBRANCH  23  24
BRANCH  23  26
ATOM     26  C   UNL     1      44.325   3.229  10.103  0.00  0.00    +0.000 C 
BRANCH  26  27
ATOM     27  N   UNL     1      44.387   3.620   8.698  0.00  0.00    +0.000 N 
ATOM     28  C   UNL     1      45.434   2.990   8.032  0.00  0.00    +0.000 A 
ATOM     29  N   UNL     1      45.793   1.747   8.394  0.00  0.00    +0.000 NA
ATOM     30  C   UNL     1      46.822   1.180   7.743  0.00  0.00    +0.000 A 
ATOM     31  C   UNL     1      47.510   1.810   6.741  0.00  0.00    +0.000 A 
ATOM     32  C   UNL     1      47.077   3.078   6.443  0.00  0.00    +0.000 A 
ATOM     33  N   UNL     1      46.053   3.688   7.073  0.00  0.00    +0.000 NA
ATOM     34  H   UNL     1      44.481   4.619   8.534  0.00  0.00    +0.000 HD
ENDBRANCH  26  27
ENDBRANCH  23  26
ENDBRANCH   4  23
TORSDOF 7
ENDMDL
MODEL 2
REMARK VINA RESULT:    -8.495      1.782      1.938
REMARK INTER + INTRA:         -12.634
REMARK INTER:                 -11.738
REMARK INTRA:                  -0.896
REMARK UNBOUND:                -0.911
REMARK  Name = 
REMARK  7 active torsions:
REMARK  status: ('A' for Active; 'I' for Inactive)
REMARK    1  A    between atoms: C_2  and  C_21
REMARK    2  A    between atoms: N_3  and  C_4
REMARK    3  A    between atoms: C_4  and  C_5
REMARK    4  A    between atoms: C_8  and  C_9
REMARK    5  A    between atoms: C_9  and  O_10
REMARK    6  A    between atoms: C_9  and  C_11
REMARK    7  A    between atoms: C_11  and  N_12
REMARK                            x       y       z     vdW  Elec       q    Type
REMARK                         _______ _______ _______ _____ _____    ______ ____
ROOT
ATOM      1  C   UNL     1      47.369   6.235  13.017  0.00  0.00    +0.000 A 
ATOM      2  C   UNL     1      46.996   6.703  11.759  0.00  0.00    +0.000 A 
ATOM      3  C   UNL     1      45.823   6.223  11.176  0.00  0.00    +0.000 A 
ATOM      4  C   UNL     1      45.038   5.281  11.847  0.00  0.00    +0.000 A 
ATOM      5  C   UNL     1      45.515   4.847  13.085  0.00  0.00    +0.000 A 
ATOM      6  N   UNL     1      46.654   5.288  13.672  0.00  0.00    +0.000 NA
ENDROOT
BRANCH   1   7
ATOM      7  C   UNL     1      48.654   6.701  13.667  0.00  0.00    +0.000 C 
BRANCH   7  10
ATOM      8  O   UNL     1      50.418   6.418  15.900  0.00  0.00    +0.000 OA
ATOM      9  C   UNL     1      49.264   6.808  16.062  0.00  0.00    +0.000 C 
ATOM     10  N   UNL     1      48.400   7.097  15.029  0.00  0.00    +0.000 N 
ATOM     11  H   UNL     1      47.418   7.183  15.248  0.00  0.00    +0.000 HD
BRANCH   9  12
ATOM     12  C   UNL     1      48.589   6.803  17.350  0.00  0.00    +0.000 A 
ATOM     13  C   UNL     1      48.165   7.959  17.977  0.00  0.00    +0.000 A 
ATOM     14  S   UNL     1      47.934   7.713  19.661  0.00  0.00    +0.000 S 
ATOM     15  C   UNL     1      48.267   6.045  19.521  0.00  0.00    +0.000 A 
ATOM     16  N   UNL     1      48.404   5.230  20.600  0.00  0.00    +0.000 NA
ATOM     17  C   UNL     1      48.607   3.987  20.303  0.00  0.00    +0.000 A 
ATOM     18  N   UNL     1      48.631   3.474  19.027  0.00  0.00    +0.000 N 
ATOM     19  C   UNL     1      48.481   4.258  17.908  0.00  0.00    +0.000 A 
ATOM     20  O   UNL     1      48.419   3.779  16.782  0.00  0.00    +0.000 OA
ATOM     21  C   UNL     1      48.390   5.673  18.204  0.00  0.00    +0.000 A 
ATOM     22  H   UNL     1      48.707   2.484  18.864  0.00  0.00    +0.000 HD
ENDBRANCH   9  12
ENDBRANCH   7  10
ENDBRANCH   1   7
BRANCH   4  23
ATOM     23  C   UNL     1      43.738   4.795  11.228  0.00  0.00    +0.000 C 
BRANCH  23  24
ATOM     24  O   UNL     1      43.084   5.893  10.576  0.00  0.00    +0.000 OA
ATOM     25  H   UNL     1      42.325   6.154  11.123  0.00  0.00    +0.000 HD
ENDBRANCH  23  24
BRANCH  23  26
ATOM     26  C   UNL     1      43.913   3.640  10.222  0.00  0.00    +0.000 C 
BRANCH  26  27
ATOM     27  N   UNL     1      44.195   4.107   8.867  0.00  0.00    +0.000 N 
ATOM     28  C   UNL     1      45.230   3.387   8.279  0.00  0.00    +0.000 A 
ATOM     29  N   UNL     1      45.385   2.088   8.582  0.00  0.00    +0.000 NA
ATOM     30  C   UNL     1      46.408   1.431   8.009  0.00  0.00    +0.000 A 
ATOM     31  C   UNL     1      47.288   2.026   7.146  0.00  0.00    +0.000 A 
ATOM     32  C   UNL     1      47.055   3.357   6.900  0.00  0.00    +0.000 A 
ATOM     33  N   UNL     1      46.045   4.056   7.455  0.00  0.00    +0.000 NA
ATOM     34  H   UNL     1      44.432   5.093   8.794  0.00  0.00    +0.000 HD
ENDBRANCH  26  27
ENDBRANCH  23  26
ENDBRANCH   4  23
TORSDOF 7
ENDMDL
MODEL 3
REMARK VINA RESULT:    -8.177      2.368      3.561
REMARK INTER + INTRA:         -12.195
REMARK INTER:                 -11.313
REMARK INTRA:                  -0.882
REMARK UNBOUND:                -0.911
REMARK  Name = 
REMARK  7 active torsions:
REMARK  status: ('A' for Active; 'I' for Inactive)
REMARK    1  A    between atoms: C_2  and  C_21
REMARK    2  A    between atoms: N_3  and  C_4
REMARK    3  A    between atoms: C_4  and  C_5
REMARK    4  A    between atoms: C_8  and  C_9
REMARK    5  A    between atoms: C_9  and  O_10
REMARK    6  A    between atoms: C_9  and  C_11
REMARK    7  A    between atoms: C_11  and  N_12
REMARK                            x       y       z     vdW  Elec       q    Type
REMARK                         _______ _______ _______ _____ _____    ______ ____
ROOT
ATOM      1  C   UNL     1      46.774   4.278  14.305  0.00  0.00    +0.000 A 
ATOM      2  C   UNL     1      46.670   5.607  13.899  0.00  0.00    +0.000 A 
ATOM      3  C   UNL     1      45.980   5.906  12.724  0.00  0.00    +0.000 A 
ATOM      4  C   UNL     1      45.406   4.882  11.965  0.00  0.00    +0.000 A 
ATOM      5  C   UNL     1      45.597   3.582  12.435  0.00  0.00    +0.000 A 
ATOM      6  N   UNL     1      46.269   3.260  13.566  0.00  0.00    +0.000 NA
ENDROOT
BRANCH   1   7
ATOM      7  C   UNL     1      47.548   3.908  15.552  0.00  0.00    +0.000 C 
BRANCH   7  10
ATOM      8  O   UNL     1      49.921   5.129  16.579  0.00  0.00    +0.000 OA
ATOM      9  C   UNL     1      48.814   5.485  16.977  0.00  0.00    +0.000 C 
ATOM     10  N   UNL     1      47.627   5.042  16.436  0.00  0.00    +0.000 N 
ATOM     11  H   UNL     1      46.781   5.200  16.967  0.00  0.00    +0.000 HD
BRANCH   9  12
ATOM     12  C   UNL     1      48.605   6.238  18.203  0.00  0.00    +0.000 A 
ATOM     13  C   UNL     1      48.354   5.635  19.419  0.00  0.00    +0.000 A 
ATOM     14  S   UNL     1      47.611   6.723  20.521  0.00  0.00    +0.000 S 
ATOM     15  C   UNL     1      47.754   8.021  19.423  0.00  0.00    +0.000 A 
ATOM     16  N   UNL     1      47.181   9.234  19.641  0.00  0.00    +0.000 NA
ATOM     17  C   UNL     1      47.435  10.112  18.725  0.00  0.00    +0.000 A 
ATOM     18  N   UNL     1      48.253   9.906  17.638  0.00  0.00    +0.000 N 
ATOM     19  C   UNL     1      48.866   8.702  17.388  0.00  0.00    +0.000 A 
ATOM     20  O   UNL     1      49.659   8.556  16.465  0.00  0.00    +0.000 OA
ATOM     21  C   UNL     1      48.491   7.659  18.320  0.00  0.00    +0.000 A 
ATOM     22  H   UNL     1      48.480  10.656  17.006  0.00  0.00    +0.000 HD
ENDBRANCH   9  12
ENDBRANCH   7  10
ENDBRANCH   1   7
BRANCH   4  23
ATOM     23  C   UNL     1      44.617   5.216  10.710  0.00  0.00    +0.000 C 
BRANCH  23  24
ATOM     24  O   UNL     1      45.423   6.030   9.845  0.00  0.00    +0.000 OA
ATOM     25  H   UNL     1      45.140   5.863   8.932  0.00  0.00    +0.000 HD
ENDBRANCH  23  24
BRANCH  23  26
ATOM     26  C   UNL     1      44.124   3.982   9.928  0.00  0.00    +0.000 C 
BRANCH  26  27
ATOM     27  N   UNL     1      44.269   4.132   8.483  0.00  0.00    +0.000 N 
ATOM     28  C   UNL     1      45.254   3.291   7.974  0.00  0.00    +0.000 A 
ATOM     29  N   UNL     1      45.456   2.091   8.543  0.00  0.00    +0.000 NA
ATOM     30  C   UNL     1      46.429   1.316   8.037  0.00  0.00    +0.000 A 
ATOM     31  C   UNL     1      47.214   1.696   6.982  0.00  0.00    +0.000 A 
ATOM     32  C   UNL     1      46.940   2.939   6.468  0.00  0.00    +0.000 A 
ATOM     33  N   UNL     1      45.977   3.752   6.947  0.00  0.00    +0.000 NA
ATOM     34  H   UNL     1      44.484   5.075   8.169  0.00  0.00    +0.000 HD
ENDBRANCH  26  27
ENDBRANCH  23  26
ENDBRANCH   4  23
TORSDOF 7
ENDMDL
MODEL 4
REMARK VINA RESULT:    -8.089      1.765      2.314
REMARK INTER + INTRA:         -12.073
REMARK INTER:                 -11.135
REMARK INTRA:                  -0.939
REMARK UNBOUND:                -0.911
REMARK  Name = 
REMARK  7 active torsions:
REMARK  status: ('A' for Active; 'I' for Inactive)
REMARK    1  A    between atoms: C_2  and  C_21
REMARK    2  A    between atoms: N_3  and  C_4
REMARK    3  A    between atoms: C_4  and  C_5
REMARK    4  A    between atoms: C_8  and  C_9
REMARK    5  A    between atoms: C_9  and  O_10
REMARK    6  A    between atoms: C_9  and  C_11
REMARK    7  A    between atoms: C_11  and  N_12
REMARK                            x       y       z     vdW  Elec       q    Type
REMARK                         _______ _______ _______ _____ _____    ______ ____
ROOT
ATOM      1  C   UNL     1      47.588   6.439  12.759  0.00  0.00    +0.000 A 
ATOM      2  C   UNL     1      46.940   5.441  13.484  0.00  0.00    +0.000 A 
ATOM      3  C   UNL     1      45.722   4.945  13.017  0.00  0.00    +0.000 A 
ATOM      4  C   UNL     1      45.161   5.449  11.840  0.00  0.00    +0.000 A 
ATOM      5  C   UNL     1      45.869   6.471  11.206  0.00  0.00    +0.000 A 
ATOM      6  N   UNL     1      47.047   6.979  11.639  0.00  0.00    +0.000 NA
ENDROOT
BRANCH   1   7
ATOM      7  C   UNL     1      48.890   7.031  13.251  0.00  0.00    +0.000 C 
BRANCH   7  10
ATOM      8  O   UNL     1      51.150   7.638  14.896  0.00  0.00    +0.000 OA
ATOM      9  C   UNL     1      50.156   7.097  15.375  0.00  0.00    +0.000 C 
ATOM     10  N   UNL     1      48.983   6.895  14.682  0.00  0.00    +0.000 N 
ATOM     11  H   UNL     1      48.313   6.246  15.070  0.00  0.00    +0.000 HD
BRANCH   9  12
ATOM     12  C   UNL     1      50.158   6.402  16.653  0.00  0.00    +0.000 A 
ATOM     13  C   UNL     1      51.052   5.394  16.955  0.00  0.00    +0.000 A 
ATOM     14  S   UNL     1      50.481   4.410  18.242  0.00  0.00    +0.000 S 
ATOM     15  C   UNL     1      49.119   5.411  18.477  0.00  0.00    +0.000 A 
ATOM     16  N   UNL     1      48.103   5.083  19.319  0.00  0.00    +0.000 NA
ATOM     17  C   UNL     1      47.177   5.983  19.407  0.00  0.00    +0.000 A 
ATOM     18  N   UNL     1      47.199   7.204  18.774  0.00  0.00    +0.000 N 
ATOM     19  C   UNL     1      48.213   7.583  17.927  0.00  0.00    +0.000 A 
ATOM     20  O   UNL     1      48.264   8.704  17.435  0.00  0.00    +0.000 OA
ATOM     21  C   UNL     1      49.195   6.542  17.700  0.00  0.00    +0.000 A 
ATOM     22  H   UNL     1      46.490   7.896  18.950  0.00  0.00    +0.000 HD
ENDBRANCH   9  12
ENDBRANCH   7  10
ENDBRANCH   1   7
BRANCH   4  23
ATOM     23  C   UNL     1      43.857   4.874  11.312  0.00  0.00    +0.000 C 
BRANCH  23  24
ATOM     24  O   UNL     1      43.123   5.906  10.637  0.00  0.00    +0.000 OA
ATOM     25  H   UNL     1      43.590   6.745  10.781  0.00  0.00    +0.000 HD
ENDBRANCH  23  24
BRANCH  23  26
ATOM     26  C   UNL     1      44.037   3.676  10.359  0.00  0.00    +0.000 C 
BRANCH  26  27
ATOM     27  N   UNL     1      44.201   4.080   8.966  0.00  0.00    +0.000 N 
ATOM     28  C   UNL     1      45.202   3.351   8.332  0.00  0.00    +0.000 A 
ATOM     29  N   UNL     1      45.410   2.071   8.684  0.00  0.00    +0.000 NA
ATOM     30  C   UNL     1      46.400   1.407   8.064  0.00  0.00    +0.000 A 
ATOM     31  C   UNL     1      47.195   1.974   7.105  0.00  0.00    +0.000 A 
ATOM     32  C   UNL     1      46.913   3.286   6.814  0.00  0.00    +0.000 A 
ATOM     33  N   UNL     1      45.934   3.993   7.414  0.00  0.00    +0.000 NA
ATOM     34  H   UNL     1      44.408   5.065   8.826  0.00  0.00    +0.000 HD
ENDBRANCH  26  27
ENDBRANCH  23  26
ENDBRANCH   4  23
TORSDOF 7
ENDMDL
MODEL 5
REMARK VINA RESULT:    -7.801      2.441      3.137
REMARK INTER + INTRA:         -11.676
REMARK INTER:                 -10.666
REMARK INTRA:                  -1.010
REMARK UNBOUND:                -0.911
REMARK  Name = 
REMARK  7 active torsions:
REMARK  status: ('A' for Active; 'I' for Inactive)
REMARK    1  A    between atoms: C_2  and  C_21
REMARK    2  A    between atoms: N_3  and  C_4
REMARK    3  A    between atoms: C_4  and  C_5
REMARK    4  A    between atoms: C_8  and  C_9
REMARK    5  A    between atoms: C_9  and  O_10
REMARK    6  A    between atoms: C_9  and  C_11
REMARK    7  A    between atoms: C_11  and  N_12
REMARK                            x       y       z     vdW  Elec       q    Type
REMARK                         _______ _______ _______ _____ _____    ______ ____
ROOT
ATOM      1  C   UNL     1      46.697   4.949  13.786  0.00  0.00    +0.000 A 
ATOM      2  C   UNL     1      46.782   5.759  12.656  0.00  0.00    +0.000 A 
ATOM      3  C   UNL     1      45.814   5.636  11.659  0.00  0.00    +0.000 A 
ATOM      4  C   UNL     1      44.778   4.707  11.794  0.00  0.00    +0.000 A 
ATOM      5  C   UNL     1      44.801   3.918  12.945  0.00  0.00    +0.000 A 
ATOM      6  N   UNL     1      45.732   4.008  13.925  0.00  0.00    +0.000 NA
ENDROOT
BRANCH   1   7
ATOM      7  C   UNL     1      47.748   5.024  14.873  0.00  0.00    +0.000 C 
BRANCH   7  10
ATOM      8  O   UNL     1      50.104   6.341  15.820  0.00  0.00    +0.000 OA
ATOM      9  C   UNL     1      49.004   6.881  15.918  0.00  0.00    +0.000 C 
ATOM     10  N   UNL     1      47.848   6.373  15.368  0.00  0.00    +0.000 N 
ATOM     11  H   UNL     1      46.969   6.751  15.691  0.00  0.00    +0.000 HD
BRANCH   9  12
ATOM     12  C   UNL     1      48.737   8.000  16.808  0.00  0.00    +0.000 A 
ATOM     13  C   UNL     1      48.963   9.314  16.446  0.00  0.00    +0.000 A 
ATOM     14  S   UNL     1      49.101  10.331  17.823  0.00  0.00    +0.000 S 
ATOM     15  C   UNL     1      48.726   9.046  18.881  0.00  0.00    +0.000 A 
ATOM     16  N   UNL     1      48.818   9.156  20.233  0.00  0.00    +0.000 NA
ATOM     17  C   UNL     1      48.449   8.096  20.877  0.00  0.00    +0.000 A 
ATOM     18  N   UNL     1      47.944   6.955  20.297  0.00  0.00    +0.000 N 
ATOM     19  C   UNL     1      47.818   6.806  18.937  0.00  0.00    +0.000 A 
ATOM     20  O   UNL     1      47.289   5.820  18.437  0.00  0.00    +0.000 OA
ATOM     21  C   UNL     1      48.352   7.922  18.183  0.00  0.00    +0.000 A 
ATOM     22  H   UNL     1      47.593   6.196  20.858  0.00  0.00    +0.000 HD
ENDBRANCH   9  12
ENDBRANCH   7  10
ENDBRANCH   1   7
BRANCH   4  23
ATOM     23  C   UNL     1      43.701   4.608  10.727  0.00  0.00    +0.000 C 
BRANCH  23  24
ATOM     24  O   UNL     1      43.224   5.924  10.411  0.00  0.00    +0.000 OA
ATOM     25  H   UNL     1      43.997   6.502  10.304  0.00  0.00    +0.000 HD
ENDBRANCH  23  24
BRANCH  23  26
ATOM     26  C   UNL     1      44.161   3.912   9.430  0.00  0.00    +0.000 C 
BRANCH  26  27
ATOM     27  N   UNL     1      44.977   2.728   9.682  0.00  0.00    +0.000 N 
ATOM     28  C   UNL     1      45.833   2.456   8.620  0.00  0.00    +0.000 A 
ATOM     29  N   UNL     1      46.339   3.473   7.904  0.00  0.00    +0.000 NA
ATOM     30  C   UNL     1      47.145   3.170   6.873  0.00  0.00    +0.000 A 
ATOM     31  C   UNL     1      47.465   1.884   6.527  0.00  0.00    +0.000 A 
ATOM     32  C   UNL     1      46.898   0.911   7.311  0.00  0.00    +0.000 A 
ATOM     33  N   UNL     1      46.080   1.168   8.351  0.00  0.00    +0.000 NA
ATOM     34  H   UNL     1      44.452   1.878   9.874  0.00  0.00    +0.000 HD
ENDBRANCH  26  27
ENDBRANCH  23  26
ENDBRANCH   4  23
TORSDOF 7
ENDMDL
MODEL 6
REMARK VINA RESULT:    -7.067      5.111      6.452
REMARK INTER + INTRA:         -10.663
REMARK INTER:                  -9.736
REMARK INTRA:                  -0.927
REMARK UNBOUND:                -0.911
REMARK  Name = 
REMARK  7 active torsions:
REMARK  status: ('A' for Active; 'I' for Inactive)
REMARK    1  A    between atoms: C_2  and  C_21
REMARK    2  A    between atoms: N_3  and  C_4
REMARK    3  A    between atoms: C_4  and  C_5
REMARK    4  A    between atoms: C_8  and  C_9
REMARK    5  A    between atoms: C_9  and  O_10
REMARK    6  A    between atoms: C_9  and  C_11
REMARK    7  A    between atoms: C_11  and  N_12
REMARK                            x       y       z     vdW  Elec       q    Type
REMARK                         _______ _______ _______ _____ _____    ______ ____
ROOT
ATOM      1  C   UNL     1      49.022   8.208  12.294  0.00  0.00    +0.000 A 
ATOM      2  C   UNL     1      47.903   9.014  12.094  0.00  0.00    +0.000 A 
ATOM      3  C   UNL     1      46.634   8.437  12.142  0.00  0.00    +0.000 A 
ATOM      4  C   UNL     1      46.492   7.067  12.383  0.00  0.00    +0.000 A 
ATOM      5  C   UNL     1      47.673   6.340  12.534  0.00  0.00    +0.000 A 
ATOM      6  N   UNL     1      48.918   6.869  12.483  0.00  0.00    +0.000 NA
ENDROOT
BRANCH   1   7
ATOM      7  C   UNL     1      50.418   8.786  12.211  0.00  0.00    +0.000 C 
BRANCH   7  10
ATOM      8  O   UNL     1      53.203   8.188  11.954  0.00  0.00    +0.000 OA
ATOM      9  C   UNL     1      52.461   8.136  10.976  0.00  0.00    +0.000 C 
ATOM     10  N   UNL     1      51.092   8.278  11.044  0.00  0.00    +0.000 N 
ATOM     11  H   UNL     1      50.595   8.453  10.182  0.00  0.00    +0.000 HD
BRANCH   9  12
ATOM     12  C   UNL     1      52.940   8.142   9.604  0.00  0.00    +0.000 A 
ATOM     13  C   UNL     1      52.924   9.272   8.809  0.00  0.00    +0.000 A 
ATOM     14  S   UNL     1      53.004   8.871   7.141  0.00  0.00    +0.000 S 
ATOM     15  C   UNL     1      53.196   7.211   7.491  0.00  0.00    +0.000 A 
ATOM     16  N   UNL     1      53.171   6.250   6.531  0.00  0.00    +0.000 NA
ATOM     17  C   UNL     1      53.381   5.053   6.974  0.00  0.00    +0.000 A 
ATOM     18  N   UNL     1      53.669   4.733   8.281  0.00  0.00    +0.000 N 
ATOM     19  C   UNL     1      53.721   5.674   9.281  0.00  0.00    +0.000 A 
ATOM     20  O   UNL     1      54.061   5.390  10.424  0.00  0.00    +0.000 OA
ATOM     21  C   UNL     1      53.354   7.005   8.841  0.00  0.00    +0.000 A 
ATOM     22  H   UNL     1      53.908   3.793   8.548  0.00  0.00    +0.000 HD
ENDBRANCH   9  12
ENDBRANCH   7  10
ENDBRANCH   1   7
BRANCH   4  23
ATOM     23  C   UNL     1      45.105   6.452  12.478  0.00  0.00    +0.000 C 
BRANCH  23  24
ATOM     24  O   UNL     1      44.122   7.448  12.162  0.00  0.00    +0.000 OA
ATOM     25  H   UNL     1      43.314   7.236  12.657  0.00  0.00    +0.000 HD
ENDBRANCH  23  24
BRANCH  23  26
ATOM     26  C   UNL     1      44.895   5.227  11.567  0.00  0.00    +0.000 C 
BRANCH  26  27
ATOM     27  N   UNL     1      44.870   5.574  10.149  0.00  0.00    +0.000 N 
ATOM     28  C   UNL     1      45.247   4.500   9.348  0.00  0.00    +0.000 A 
ATOM     29  N   UNL     1      44.942   3.250   9.734  0.00  0.00    +0.000 NA
ATOM     30  C   UNL     1      45.341   2.238   8.946  0.00  0.00    +0.000 A 
ATOM     31  C   UNL     1      46.040   2.428   7.784  0.00  0.00    +0.000 A 
ATOM     32  C   UNL     1      46.312   3.737   7.473  0.00  0.00    +0.000 A 
ATOM     33  N   UNL     1      45.936   4.782   8.236  0.00  0.00    +0.000 NA
ATOM     34  H   UNL     1      45.454   6.365   9.890  0.00  0.00    +0.000 HD
ENDBRANCH  26  27
ENDBRANCH  23  26
ENDBRANCH   4  23
TORSDOF 7
ENDMDL
MODEL 7
REMARK VINA RESULT:    -7.015      2.329      3.991
REMARK INTER + INTRA:         -10.592
REMARK INTER:                  -9.788
REMARK INTRA:                  -0.804
REMARK UNBOUND:                -0.911
REMARK  Name = 
REMARK  7 active torsions:
REMARK  status: ('A' for Active; 'I' for Inactive)
REMARK    1  A    between atoms: C_2  and  C_21
REMARK    2  A    between atoms: N_3  and  C_4
REMARK    3  A    between atoms: C_4  and  C_5
REMARK    4  A    between atoms: C_8  and  C_9
REMARK    5  A    between atoms: C_9  and  O_10
REMARK    6  A    between atoms: C_9  and  C_11
REMARK    7  A    between atoms: C_11  and  N_12
REMARK                            x       y       z     vdW  Elec       q    Type
REMARK                         _______ _______ _______ _____ _____    ______ ____
ROOT
ATOM      1  C   UNL     1      46.287   5.011  13.862  0.00  0.00    +0.000 A 
ATOM      2  C   UNL     1      46.667   5.540  12.630  0.00  0.00    +0.000 A 
ATOM      3  C   UNL     1      45.791   5.440  11.550  0.00  0.00    +0.000 A 
ATOM      4  C   UNL     1      44.551   4.813  11.704  0.00  0.00    +0.000 A 
ATOM      5  C   UNL     1      44.278   4.285  12.966  0.00  0.00    +0.000 A 
ATOM      6  N   UNL     1      45.112   4.357  14.031  0.00  0.00    +0.000 NA
ENDROOT
BRANCH   1   7
ATOM      7  C   UNL     1      47.224   5.064  15.050  0.00  0.00    +0.000 C 
BRANCH   7  10
ATOM      8  O   UNL     1      49.763   5.539  16.278  0.00  0.00    +0.000 OA
ATOM      9  C   UNL     1      49.145   6.458  15.746  0.00  0.00    +0.000 C 
ATOM     10  N   UNL     1      47.987   6.285  15.020  0.00  0.00    +0.000 N 
ATOM     11  H   UNL     1      47.431   7.104  14.822  0.00  0.00    +0.000 HD
BRANCH   9  12
ATOM     12  C   UNL     1      49.426   7.863  15.995  0.00  0.00    +0.000 A 
ATOM     13  C   UNL     1      49.364   8.427  17.255  0.00  0.00    +0.000 A 
ATOM     14  S   UNL     1      49.184  10.133  17.173  0.00  0.00    +0.000 S 
ATOM     15  C   UNL     1      49.326  10.123  15.472  0.00  0.00    +0.000 A 
ATOM     16  N   UNL     1      49.109  11.228  14.711  0.00  0.00    +0.000 NA
ATOM     17  C   UNL     1      49.309  11.046  13.445  0.00  0.00    +0.000 A 
ATOM     18  N   UNL     1      49.759   9.877  12.876  0.00  0.00    +0.000 N 
ATOM     19  C   UNL     1      50.007   8.742  13.610  0.00  0.00    +0.000 A 
ATOM     20  O   UNL     1      50.488   7.734  13.105  0.00  0.00    +0.000 OA
ATOM     21  C   UNL     1      49.660   8.873  15.010  0.00  0.00    +0.000 A 
ATOM     22  H   UNL     1      49.978   9.825  11.895  0.00  0.00    +0.000 HD
ENDBRANCH   9  12
ENDBRANCH   7  10
ENDBRANCH   1   7
BRANCH   4  23
ATOM     23  C   UNL     1      43.582   4.747  10.535  0.00  0.00    +0.000 C 
BRANCH  23  24
ATOM     24  O   UNL     1      43.174   6.077  10.182  0.00  0.00    +0.000 OA
ATOM     25  H   UNL     1      43.571   6.290   9.322  0.00  0.00    +0.000 HD
ENDBRANCH  23  24
BRANCH  23  26
ATOM     26  C   UNL     1      44.148   4.043   9.286  0.00  0.00    +0.000 C 
BRANCH  26  27
ATOM     27  N   UNL     1      44.936   2.859   9.613  0.00  0.00    +0.000 N 
ATOM     28  C   UNL     1      45.836   2.543   8.600  0.00  0.00    +0.000 A 
ATOM     29  N   UNL     1      46.386   3.530   7.874  0.00  0.00    +0.000 NA
ATOM     30  C   UNL     1      47.233   3.185   6.891  0.00  0.00    +0.000 A 
ATOM     31  C   UNL     1      47.551   1.885   6.601  0.00  0.00    +0.000 A 
ATOM     32  C   UNL     1      46.938   0.944   7.390  0.00  0.00    +0.000 A 
ATOM     33  N   UNL     1      46.078   1.244   8.384  0.00  0.00    +0.000 NA
ATOM     34  H   UNL     1      44.393   2.022   9.808  0.00  0.00    +0.000 HD
ENDBRANCH  26  27
ENDBRANCH  23  26
ENDBRANCH   4  23
TORSDOF 7
ENDMDL
MODEL 8
REMARK VINA RESULT:    -6.939      2.823      9.118
REMARK INTER + INTRA:         -10.486
REMARK INTER:                  -9.531
REMARK INTRA:                  -0.955
REMARK UNBOUND:                -0.911
REMARK  Name = 
REMARK  7 active torsions:
REMARK  status: ('A' for Active; 'I' for Inactive)
REMARK    1  A    between atoms: C_2  and  C_21
REMARK    2  A    between atoms: N_3  and  C_4
REMARK    3  A    between atoms: C_4  and  C_5
REMARK    4  A    between atoms: C_8  and  C_9
REMARK    5  A    between atoms: C_9  and  O_10
REMARK    6  A    between atoms: C_9  and  C_11
REMARK    7  A    between atoms: C_11  and  N_12
REMARK                            x       y       z     vdW  Elec       q    Type
REMARK                         _______ _______ _______ _____ _____    ______ ____
ROOT
ATOM      1  C   UNL     1      47.866   5.880  14.377  0.00  0.00    +0.000 A 
ATOM      2  C   UNL     1      47.136   4.729  14.666  0.00  0.00    +0.000 A 
ATOM      3  C   UNL     1      47.186   4.200  15.956  0.00  0.00    +0.000 A 
ATOM      4  C   UNL     1      47.963   4.816  16.941  0.00  0.00    +0.000 A 
ATOM      5  C   UNL     1      48.686   5.943  16.543  0.00  0.00    +0.000 A 
ATOM      6  N   UNL     1      48.665   6.473  15.297  0.00  0.00    +0.000 NA
ENDROOT
BRANCH   1   7
ATOM      7  C   UNL     1      47.870   6.464  12.981  0.00  0.00    +0.000 C 
BRANCH   7  10
ATOM      8  O   UNL     1      45.503   7.420  11.692  0.00  0.00    +0.000 OA
ATOM      9  C   UNL     1      45.796   6.227  11.653  0.00  0.00    +0.000 C 
ATOM     10  N   UNL     1      46.981   5.713  12.131  0.00  0.00    +0.000 N 
ATOM     11  H   UNL     1      47.038   4.714  12.270  0.00  0.00    +0.000 HD
BRANCH   9  12
ATOM     12  C   UNL     1      44.850   5.179  11.306  0.00  0.00    +0.000 A 
ATOM     13  C   UNL     1      43.827   4.785  12.146  0.00  0.00    +0.000 A 
ATOM     14  S   UNL     1      43.252   3.216  11.748  0.00  0.00    +0.000 S 
ATOM     15  C   UNL     1      44.272   3.128  10.382  0.00  0.00    +0.000 A 
ATOM     16  N   UNL     1      44.423   1.992   9.651  0.00  0.00    +0.000 NA
ATOM     17  C   UNL     1      45.199   2.124   8.623  0.00  0.00    +0.000 A 
ATOM     18  N   UNL     1      45.793   3.300   8.228  0.00  0.00    +0.000 N 
ATOM     19  C   UNL     1      45.655   4.474   8.927  0.00  0.00    +0.000 A 
ATOM     20  O   UNL     1      46.119   5.533   8.519  0.00  0.00    +0.000 OA
ATOM     21  C   UNL     1      44.905   4.327  10.158  0.00  0.00    +0.000 A 
ATOM     22  H   UNL     1      46.317   3.358   7.369  0.00  0.00    +0.000 HD
ENDBRANCH   9  12
ENDBRANCH   7  10
ENDBRANCH   1   7
BRANCH   4  23
ATOM     23  C   UNL     1      47.979   4.262  18.356  0.00  0.00    +0.000 C 
BRANCH  23  24
ATOM     24  O   UNL     1      47.553   2.892  18.332  0.00  0.00    +0.000 OA
ATOM     25  H   UNL     1      46.803   2.804  18.944  0.00  0.00    +0.000 HD
ENDBRANCH  23  24
BRANCH  23  26
ATOM     26  C   UNL     1      49.351   4.353  19.053  0.00  0.00    +0.000 C 
BRANCH  26  27
ATOM     27  N   UNL     1      50.360   3.500  18.431  0.00  0.00    +0.000 N 
ATOM     28  C   UNL     1      51.646   3.984  18.644  0.00  0.00    +0.000 A 
ATOM     29  N   UNL     1      51.930   4.624  19.790  0.00  0.00    +0.000 NA
ATOM     30  C   UNL     1      53.178   5.096  19.949  0.00  0.00    +0.000 A 
ATOM     31  C   UNL     1      54.156   4.955  19.002  0.00  0.00    +0.000 A 
ATOM     32  C   UNL     1      53.774   4.292  17.863  0.00  0.00    +0.000 A 
ATOM     33  N   UNL     1      52.534   3.807  17.657  0.00  0.00    +0.000 NA
ATOM     34  H   UNL     1      50.248   3.363  17.430  0.00  0.00    +0.000 HD
ENDBRANCH  26  27
ENDBRANCH  23  26
ENDBRANCH   4  23
TORSDOF 7
ENDMDL
MODEL 9
REMARK VINA RESULT:    -6.578      4.813      7.691
REMARK INTER + INTRA:          -9.989
REMARK INTER:                  -9.261
REMARK INTRA:                  -0.728
REMARK UNBOUND:                -0.911
REMARK  Name = 
REMARK  7 active torsions:
REMARK  status: ('A' for Active; 'I' for Inactive)
REMARK    1  A    between atoms: C_2  and  C_21
REMARK    2  A    between atoms: N_3  and  C_4
REMARK    3  A    between atoms: C_4  and  C_5
REMARK    4  A    between atoms: C_8  and  C_9
REMARK    5  A    between atoms: C_9  and  O_10
REMARK    6  A    between atoms: C_9  and  C_11
REMARK    7  A    between atoms: C_11  and  N_12
REMARK                            x       y       z     vdW  Elec       q    Type
REMARK                         _______ _______ _______ _____ _____    ______ ____
ROOT
ATOM      1  C   UNL     1      51.550   2.921  17.769  0.00  0.00    +0.000 A 
ATOM      2  C   UNL     1      50.813   1.915  17.147  0.00  0.00    +0.000 A 
ATOM      3  C   UNL     1      49.455   2.122  16.903  0.00  0.00    +0.000 A 
ATOM      4  C   UNL     1      48.846   3.321  17.283  0.00  0.00    +0.000 A 
ATOM      5  C   UNL     1      49.660   4.251  17.931  0.00  0.00    +0.000 A 
ATOM      6  N   UNL     1      50.978   4.075  18.190  0.00  0.00    +0.000 NA
ENDROOT
BRANCH   1   7
ATOM      7  C   UNL     1      53.016   2.722  18.088  0.00  0.00    +0.000 C 
BRANCH   7  10
ATOM      8  O   UNL     1      54.678   1.078  19.736  0.00  0.00    +0.000 OA
ATOM      9  C   UNL     1      54.295   0.677  18.639  0.00  0.00    +0.000 C 
ATOM     10  N   UNL     1      53.389   1.350  17.850  0.00  0.00    +0.000 N 
ATOM     11  H   UNL     1      53.312   1.073  16.882  0.00  0.00    +0.000 HD
BRANCH   9  12
ATOM     12  C   UNL     1      54.909  -0.436  17.934  0.00  0.00    +0.000 A 
ATOM     13  C   UNL     1      55.667  -0.272  16.791  0.00  0.00    +0.000 A 
ATOM     14  S   UNL     1      55.775  -1.731  15.891  0.00  0.00    +0.000 S 
ATOM     15  C   UNL     1      54.931  -2.600  17.093  0.00  0.00    +0.000 A 
ATOM     16  N   UNL     1      54.520  -3.885  16.919  0.00  0.00    +0.000 NA
ATOM     17  C   UNL     1      53.937  -4.399  17.953  0.00  0.00    +0.000 A 
ATOM     18  N   UNL     1      53.776  -3.767  19.165  0.00  0.00    +0.000 N 
ATOM     19  C   UNL     1      54.190  -2.477  19.390  0.00  0.00    +0.000 A 
ATOM     20  O   UNL     1      54.117  -1.955  20.497  0.00  0.00    +0.000 OA
ATOM     21  C   UNL     1      54.721  -1.827  18.209  0.00  0.00    +0.000 A 
ATOM     22  H   UNL     1      53.391  -4.252  19.959  0.00  0.00    +0.000 HD
ENDBRANCH   9  12
ENDBRANCH   7  10
ENDBRANCH   1   7
BRANCH   4  23
ATOM     23  C   UNL     1      47.377   3.559  16.973  0.00  0.00    +0.000 C 
BRANCH  23  24
ATOM     24  O   UNL     1      46.769   4.260  18.068  0.00  0.00    +0.000 OA
ATOM     25  H   UNL     1      45.885   4.543  17.785  0.00  0.00    +0.000 HD
ENDBRANCH  23  24
BRANCH  23  26
ATOM     26  C   UNL     1      47.126   4.343  15.670  0.00  0.00    +0.000 C 
BRANCH  26  27
ATOM     27  N   UNL     1      47.072   3.481  14.492  0.00  0.00    +0.000 N 
ATOM     28  C   UNL     1      46.304   4.042  13.477  0.00  0.00    +0.000 A 
ATOM     29  N   UNL     1      46.281   5.377  13.328  0.00  0.00    +0.000 NA
ATOM     30  C   UNL     1      45.511   5.883  12.350  0.00  0.00    +0.000 A 
ATOM     31  C   UNL     1      44.756   5.103  11.515  0.00  0.00    +0.000 A 
ATOM     32  C   UNL     1      44.838   3.753  11.746  0.00  0.00    +0.000 A 
ATOM     33  N   UNL     1      45.592   3.202  12.717  0.00  0.00    +0.000 NA
ATOM     34  H   UNL     1      46.713   2.545  14.662  0.00  0.00    +0.000 HD
ENDBRANCH  26  27
ENDBRANCH  23  26
ENDBRANCH   4  23
TORSDOF 7
ENDMDL
