MODEL 1
REMARK VINA RESULT:    -8.428      0.000      0.000
REMARK INTER + INTRA:         -13.308
REMARK INTER:                 -11.876
REMARK INTRA:                  -1.432
REMARK UNBOUND:                -1.432
REMARK  Name = 
REMARK  8 active torsions:
REMARK  status: ('A' for Active; 'I' for Inactive)
REMARK    1  A    between atoms: C_1  and  C_2
REMARK    2  A    between atoms: C_2  and  N_3
REMARK    3  A    between atoms: C_2  and  C_25
REMARK    4  A    between atoms: N_3  and  C_4
REMARK    5  A    between atoms: C_4  and  C_5
REMARK    6  A    between atoms: C_8  and  C_9
REMARK    7  A    between atoms: C_9  and  N_10
REMARK    8  A    between atoms: C_11  and  C_13
REMARK                            x       y       z     vdW  Elec       q    Type
REMARK                         _______ _______ _______ _____ _____    ______ ____
ROOT
ATOM      1  C   UNL     1      44.610   5.678  10.968  0.00  0.00    +0.000 A 
ATOM      2  C   UNL     1      44.118   6.303  12.124  0.00  0.00    +0.000 A 
ATOM      3  C   UNL     1      44.945   7.121  12.901  0.00  0.00    +0.000 A 
ATOM      4  C   UNL     1      46.281   7.332  12.541  0.00  0.00    +0.000 A 
ATOM      5  C   UNL     1      46.781   6.690  11.402  0.00  0.00    +0.000 A 
ATOM      6  C   UNL     1      45.953   5.881  10.619  0.00  0.00    +0.000 A 
ENDROOT
BRANCH   1   7
ATOM      7  C   UNL     1      43.731   4.782  10.121  0.00  0.00    +0.000 C 
BRANCH   7   8
ATOM      8  N   UNL     1      44.390   4.415   8.871  0.00  0.00    +0.000 NA
ATOM      9  H   UNL     1      43.869   4.827   8.097  0.00  0.00    +0.000 HD
BRANCH   8  11
ATOM     10  C   UNL     1      44.463   2.159   9.943  0.00  0.00    +0.000 C 
ATOM     11  C   UNL     1      44.478   2.964   8.638  0.00  0.00    +0.000 C 
BRANCH  11  12
ATOM     12  C   UNL     1      45.741   2.632   7.862  0.00  0.00    +0.000 A 
ATOM     13  C   UNL     1      46.384   3.564   7.036  0.00  0.00    +0.000 A 
ATOM     14  C   UNL     1      47.537   3.207   6.343  0.00  0.00    +0.000 A 
ATOM     15  C   UNL     1      48.029   1.925   6.510  0.00  0.00    +0.000 A 
ATOM     16  N   UNL     1      47.459   1.000   7.313  0.00  0.00    +0.000 NA
ATOM     17  C   UNL     1      46.335   1.376   7.969  0.00  0.00    +0.000 A 
ENDBRANCH  11  12
ENDBRANCH   8  11
ENDBRANCH   7   8
ENDBRANCH   1   7
BRANCH   4  18
ATOM     18  C   UNL     1      47.187   8.189  13.385  0.00  0.00    +0.000 C 
BRANCH  18  19
ATOM     19  N   UNL     1      47.570   7.495  14.589  0.00  0.00    +0.000 N 
ATOM     20  C   UNL     1      48.788   6.875  14.697  0.00  0.00    +0.000 C 
ATOM     21  O   UNL     1      49.623   6.917  13.800  0.00  0.00    +0.000 OA
ATOM     22  H   UNL     1      46.828   7.255  15.237  0.00  0.00    +0.000 HD
BRANCH  20  23
ATOM     23  C   UNL     1      49.068   6.209  15.977  0.00  0.00    +0.000 A 
ATOM     24  C   UNL     1      50.097   6.680  16.783  0.00  0.00    +0.000 A 
ATOM     25  S   UNL     1      50.253   5.837  18.256  0.00  0.00    +0.000 S 
ATOM     26  C   UNL     1      48.988   4.776  17.846  0.00  0.00    +0.000 A 
ATOM     27  N   UNL     1      48.618   3.773  18.687  0.00  0.00    +0.000 NA
ATOM     28  C   UNL     1      47.667   3.026  18.239  0.00  0.00    +0.000 A 
ATOM     29  N   UNL     1      47.046   3.192  17.027  0.00  0.00    +0.000 N 
ATOM     30  C   UNL     1      47.365   4.210  16.159  0.00  0.00    +0.000 A 
ATOM     31  O   UNL     1      46.760   4.358  15.102  0.00  0.00    +0.000 OA
ATOM     32  C   UNL     1      48.440   5.073  16.610  0.00  0.00    +0.000 A 
ATOM     33  H   UNL     1      46.302   2.576  16.737  0.00  0.00    +0.000 HD
ENDBRANCH  20  23
ENDBRANCH  18  19
ENDBRANCH   4  18
TORSDOF 7
ENDMDL
MODEL 2
REMARK VINA RESULT:    -7.832      1.741      1.985
REMARK INTER + INTRA:         -12.470
REMARK INTER:                 -11.261
REMARK INTRA:                  -1.209
REMARK UNBOUND:                -1.432
REMARK  Name = 
REMARK  8 active torsions:
REMARK  status: ('A' for Active; 'I' for Inactive)
REMARK    1  A    between atoms: C_1  and  C_2
REMARK    2  A    between atoms: C_2  and  N_3
REMARK    3  A    between atoms: C_2  and  C_25
REMARK    4  A    between atoms: N_3  and  C_4
REMARK    5  A    between atoms: C_4  and  C_5
REMARK    6  A    between atoms: C_8  and  C_9
REMARK    7  A    between atoms: C_9  and  N_10
REMARK    8  A    between atoms: C_11  and  C_13
REMARK                            x       y       z     vdW  Elec       q    Type
REMARK                         _______ _______ _______ _____ _____    ______ ____
ROOT
ATOM      1  C   UNL     1      45.231   5.635  11.536  0.00  0.00    +0.000 A 
ATOM      2  C   UNL     1      45.408   5.159  12.843  0.00  0.00    +0.000 A 
ATOM      3  C   UNL     1      46.510   5.560  13.606  0.00  0.00    +0.000 A 
ATOM      4  C   UNL     1      47.459   6.443  13.079  0.00  0.00    +0.000 A 
ATOM      5  C   UNL     1      47.297   6.900  11.765  0.00  0.00    +0.000 A 
ATOM      6  C   UNL     1      46.192   6.509  11.006  0.00  0.00    +0.000 A 
ENDROOT
BRANCH   1   7
ATOM      7  C   UNL     1      44.049   5.203  10.694  0.00  0.00    +0.000 C 
BRANCH   7   8
ATOM      8  N   UNL     1      44.474   4.734   9.378  0.00  0.00    +0.000 NA
ATOM      9  H   UNL     1      43.946   5.241   8.667  0.00  0.00    +0.000 HD
BRANCH   8  11
ATOM     10  C   UNL     1      44.092   2.516  10.465  0.00  0.00    +0.000 C 
ATOM     11  C   UNL     1      44.269   3.293   9.154  0.00  0.00    +0.000 C 
BRANCH  11  12
ATOM     12  C   UNL     1      45.441   2.708   8.383  0.00  0.00    +0.000 A 
ATOM     13  C   UNL     1      46.265   3.489   7.561  0.00  0.00    +0.000 A 
ATOM     14  C   UNL     1      47.323   2.903   6.873  0.00  0.00    +0.000 A 
ATOM     15  C   UNL     1      47.541   1.547   7.040  0.00  0.00    +0.000 A 
ATOM     16  N   UNL     1      46.788   0.759   7.839  0.00  0.00    +0.000 NA
ATOM     17  C   UNL     1      45.763   1.357   8.491  0.00  0.00    +0.000 A 
ENDBRANCH  11  12
ENDBRANCH   8  11
ENDBRANCH   7   8
ENDBRANCH   1   7
BRANCH   4  18
ATOM     18  C   UNL     1      48.664   6.860  13.881  0.00  0.00    +0.000 C 
BRANCH  18  19
ATOM     19  N   UNL     1      48.407   6.730  15.293  0.00  0.00    +0.000 N 
ATOM     20  C   UNL     1      49.011   7.554  16.207  0.00  0.00    +0.000 C 
ATOM     21  O   UNL     1      49.760   8.464  15.868  0.00  0.00    +0.000 OA
ATOM     22  H   UNL     1      47.985   5.861  15.605  0.00  0.00    +0.000 HD
BRANCH  20  23
ATOM     23  C   UNL     1      48.662   7.331  17.616  0.00  0.00    +0.000 A 
ATOM     24  C   UNL     1      48.122   8.371  18.361  0.00  0.00    +0.000 A 
ATOM     25  S   UNL     1      47.718   7.934  19.958  0.00  0.00    +0.000 S 
ATOM     26  C   UNL     1      48.302   6.351  19.729  0.00  0.00    +0.000 A 
ATOM     27  N   UNL     1      48.272   5.443  20.742  0.00  0.00    +0.000 NA
ATOM     28  C   UNL     1      48.773   4.294  20.441  0.00  0.00    +0.000 A 
ATOM     29  N   UNL     1      49.299   3.966  19.217  0.00  0.00    +0.000 N 
ATOM     30  C   UNL     1      49.321   4.840  18.156  0.00  0.00    +0.000 A 
ATOM     31  O   UNL     1      49.758   4.500  17.061  0.00  0.00    +0.000 OA
ATOM     32  C   UNL     1      48.780   6.154  18.446  0.00  0.00    +0.000 A 
ATOM     33  H   UNL     1      49.671   3.044  19.043  0.00  0.00    +0.000 HD
ENDBRANCH  20  23
ENDBRANCH  18  19
ENDBRANCH   4  18
TORSDOF 7
ENDMDL
MODEL 3
REMARK VINA RESULT:    -7.554      2.122      2.595
REMARK INTER + INTRA:         -12.077
REMARK INTER:                 -10.988
REMARK INTRA:                  -1.089
REMARK UNBOUND:                -1.432
REMARK  Name = 
REMARK  8 active torsions:
REMARK  status: ('A' for Active; 'I' for Inactive)
REMARK    1  A    between atoms: C_1  and  C_2
REMARK    2  A    between atoms: C_2  and  N_3
REMARK    3  A    between atoms: C_2  and  C_25
REMARK    4  A    between atoms: N_3  and  C_4
REMARK    5  A    between atoms: C_4  and  C_5
REMARK    6  A    between atoms: C_8  and  C_9
REMARK    7  A    between atoms: C_9  and  N_10
REMARK    8  A    between atoms: C_11  and  C_13
REMARK                            x       y       z     vdW  Elec       q    Type
REMARK                         _______ _______ _______ _____ _____    ______ ____
ROOT
ATOM      1  C   UNL     1      45.219   6.343  11.426  0.00  0.00    +0.000 A 
ATOM      2  C   UNL     1      46.393   5.701  11.847  0.00  0.00    +0.000 A 
ATOM      3  C   UNL     1      47.281   6.338  12.720  0.00  0.00    +0.000 A 
ATOM      4  C   UNL     1      47.017   7.630  13.189  0.00  0.00    +0.000 A 
ATOM      5  C   UNL     1      45.858   8.282  12.751  0.00  0.00    +0.000 A 
ATOM      6  C   UNL     1      44.965   7.643  11.887  0.00  0.00    +0.000 A 
ENDROOT
BRANCH   1   7
ATOM      7  C   UNL     1      44.252   5.671  10.474  0.00  0.00    +0.000 C 
BRANCH   7   8
ATOM      8  N   UNL     1      44.953   5.039   9.360  0.00  0.00    +0.000 NA
ATOM      9  H   UNL     1      44.825   5.615   8.528  0.00  0.00    +0.000 HD
BRANCH   8  11
ATOM     10  C   UNL     1      44.098   2.888  10.301  0.00  0.00    +0.000 C 
ATOM     11  C   UNL     1      44.486   3.678   9.046  0.00  0.00    +0.000 C 
BRANCH  11  12
ATOM     12  C   UNL     1      45.560   2.915   8.288  0.00  0.00    +0.000 A 
ATOM     13  C   UNL     1      46.401   3.531   7.351  0.00  0.00    +0.000 A 
ATOM     14  C   UNL     1      47.366   2.785   6.681  0.00  0.00    +0.000 A 
ATOM     15  C   UNL     1      47.477   1.439   6.982  0.00  0.00    +0.000 A 
ATOM     16  N   UNL     1      46.706   0.808   7.893  0.00  0.00    +0.000 NA
ATOM     17  C   UNL     1      45.772   1.559   8.524  0.00  0.00    +0.000 A 
ENDBRANCH  11  12
ENDBRANCH   8  11
ENDBRANCH   7   8
ENDBRANCH   1   7
BRANCH   4  18
ATOM     18  C   UNL     1      47.980   8.336  14.107  0.00  0.00    +0.000 C 
BRANCH  18  19
ATOM     19  N   UNL     1      47.924   7.776  15.434  0.00  0.00    +0.000 N 
ATOM     20  C   UNL     1      48.901   6.931  15.893  0.00  0.00    +0.000 C 
ATOM     21  O   UNL     1      49.885   6.646  15.219  0.00  0.00    +0.000 OA
ATOM     22  H   UNL     1      47.028   7.811  15.911  0.00  0.00    +0.000 HD
BRANCH  20  23
ATOM     23  C   UNL     1      48.739   6.433  17.266  0.00  0.00    +0.000 A 
ATOM     24  C   UNL     1      49.024   5.104  17.550  0.00  0.00    +0.000 A 
ATOM     25  S   UNL     1      48.842   4.702  19.197  0.00  0.00    +0.000 S 
ATOM     26  C   UNL     1      48.322   6.276  19.580  0.00  0.00    +0.000 A 
ATOM     27  N   UNL     1      47.974   6.606  20.853  0.00  0.00    +0.000 NA
ATOM     28  C   UNL     1      47.570   7.823  20.997  0.00  0.00    +0.000 A 
ATOM     29  N   UNL     1      47.486   8.744  19.984  0.00  0.00    +0.000 N 
ATOM     30  C   UNL     1      47.856   8.464  18.689  0.00  0.00    +0.000 A 
ATOM     31  O   UNL     1      47.811   9.324  17.815  0.00  0.00    +0.000 OA
ATOM     32  C   UNL     1      48.306   7.103  18.470  0.00  0.00    +0.000 A 
ATOM     33  H   UNL     1      47.168   9.684  20.163  0.00  0.00    +0.000 HD
ENDBRANCH  20  23
ENDBRANCH  18  19
ENDBRANCH   4  18
TORSDOF 7
ENDMDL
MODEL 4
REMARK VINA RESULT:    -7.181      2.797      8.243
REMARK INTER + INTRA:         -11.552
REMARK INTER:                  -9.931
REMARK INTRA:                  -1.620
REMARK UNBOUND:                -1.432
REMARK  Name = 
REMARK  8 active torsions:
REMARK  status: ('A' for Active; 'I' for Inactive)
REMARK    1  A    between atoms: C_1  and  C_2
REMARK    2  A    between atoms: C_2  and  N_3
REMARK    3  A    between atoms: C_2  and  C_25
REMARK    4  A    between atoms: N_3  and  C_4
REMARK    5  A    between atoms: C_4  and  C_5
REMARK    6  A    between atoms: C_8  and  C_9
REMARK    7  A    between atoms: C_9  and  N_10
REMARK    8  A    between atoms: C_11  and  C_13
REMARK                            x       y       z     vdW  Elec       q    Type
REMARK                         _______ _______ _______ _____ _____    ______ ____
ROOT
ATOM      1  C   UNL     1      49.403   8.266  15.915  0.00  0.00    +0.000 A 
ATOM      2  C   UNL     1      49.912   7.304  15.029  0.00  0.00    +0.000 A 
ATOM      3  C   UNL     1      49.405   7.191  13.731  0.00  0.00    +0.000 A 
ATOM      4  C   UNL     1      48.379   8.035  13.289  0.00  0.00    +0.000 A 
ATOM      5  C   UNL     1      47.853   8.979  14.180  0.00  0.00    +0.000 A 
ATOM      6  C   UNL     1      48.366   9.100  15.474  0.00  0.00    +0.000 A 
ENDROOT
BRANCH   1   7
ATOM      7  C   UNL     1      49.935   8.395  17.327  0.00  0.00    +0.000 C 
BRANCH   7   8
ATOM      8  N   UNL     1      49.775   7.150  18.073  0.00  0.00    +0.000 NA
ATOM      9  H   UNL     1      50.343   6.429  17.627  0.00  0.00    +0.000 HD
BRANCH   8  11
ATOM     10  C   UNL     1      47.776   6.817  19.536  0.00  0.00    +0.000 C 
ATOM     11  C   UNL     1      48.388   6.659  18.139  0.00  0.00    +0.000 C 
BRANCH  11  12
ATOM     12  C   UNL     1      48.328   5.196  17.730  0.00  0.00    +0.000 A 
ATOM     13  C   UNL     1      49.471   4.392  17.643  0.00  0.00    +0.000 A 
ATOM     14  C   UNL     1      49.362   3.059  17.259  0.00  0.00    +0.000 A 
ATOM     15  C   UNL     1      48.100   2.558  16.990  0.00  0.00    +0.000 A 
ATOM     16  N   UNL     1      46.968   3.288  17.083  0.00  0.00    +0.000 NA
ATOM     17  C   UNL     1      47.108   4.583  17.453  0.00  0.00    +0.000 A 
ENDBRANCH  11  12
ENDBRANCH   8  11
ENDBRANCH   7   8
ENDBRANCH   1   7
BRANCH   4  18
ATOM     18  C   UNL     1      47.807   7.904  11.902  0.00  0.00    +0.000 C 
BRANCH  18  19
ATOM     19  N   UNL     1      47.075   6.670  11.766  0.00  0.00    +0.000 N 
ATOM     20  C   UNL     1      45.705   6.645  11.815  0.00  0.00    +0.000 C 
ATOM     21  O   UNL     1      45.038   7.667  11.931  0.00  0.00    +0.000 OA
ATOM     22  H   UNL     1      47.596   5.809  11.899  0.00  0.00    +0.000 HD
BRANCH  20  23
ATOM     23  C   UNL     1      45.072   5.329  11.654  0.00  0.00    +0.000 A 
ATOM     24  C   UNL     1      44.421   4.745  12.733  0.00  0.00    +0.000 A 
ATOM     25  S   UNL     1      43.691   3.250  12.366  0.00  0.00    +0.000 S 
ATOM     26  C   UNL     1      44.265   3.301  10.765  0.00  0.00    +0.000 A 
ATOM     27  N   UNL     1      44.007   2.285   9.897  0.00  0.00    +0.000 NA
ATOM     28  C   UNL     1      44.527   2.438   8.727  0.00  0.00    +0.000 A 
ATOM     29  N   UNL     1      45.280   3.518   8.341  0.00  0.00    +0.000 N 
ATOM     30  C   UNL     1      45.541   4.581   9.174  0.00  0.00    +0.000 A 
ATOM     31  O   UNL     1      46.180   5.553   8.783  0.00  0.00    +0.000 OA
ATOM     32  C   UNL     1      44.988   4.453  10.509  0.00  0.00    +0.000 A 
ATOM     33  H   UNL     1      45.654   3.582   7.407  0.00  0.00    +0.000 HD
ENDBRANCH  20  23
ENDBRANCH  18  19
ENDBRANCH   4  18
TORSDOF 7
ENDMDL
MODEL 5
REMARK VINA RESULT:    -7.081      1.856      2.664
REMARK INTER + INTRA:         -11.410
REMARK INTER:                 -10.481
REMARK INTRA:                  -0.929
REMARK UNBOUND:                -1.432
REMARK  Name = 
REMARK  8 active torsions:
REMARK  status: ('A' for Active; 'I' for Inactive)
REMARK    1  A    between atoms: C_1  and  C_2
REMARK    2  A    between atoms: C_2  and  N_3
REMARK    3  A    between atoms: C_2  and  C_25
REMARK    4  A    between atoms: N_3  and  C_4
REMARK    5  A    between atoms: C_4  and  C_5
REMARK    6  A    between atoms: C_8  and  C_9
REMARK    7  A    between atoms: C_9  and  N_10
REMARK    8  A    between atoms: C_11  and  C_13
REMARK                            x       y       z     vdW  Elec       q    Type
REMARK                         _______ _______ _______ _____ _____    ______ ____
ROOT
ATOM      1  C   UNL     1      44.863   5.808  11.353  0.00  0.00    +0.000 A 
ATOM      2  C   UNL     1      45.732   5.032  12.134  0.00  0.00    +0.000 A 
ATOM      3  C   UNL     1      46.655   5.638  12.993  0.00  0.00    +0.000 A 
ATOM      4  C   UNL     1      46.731   7.032  13.089  0.00  0.00    +0.000 A 
ATOM      5  C   UNL     1      45.881   7.809  12.292  0.00  0.00    +0.000 A 
ATOM      6  C   UNL     1      44.952   7.205  11.442  0.00  0.00    +0.000 A 
ENDROOT
BRANCH   1   7
ATOM      7  C   UNL     1      43.865   5.167  10.412  0.00  0.00    +0.000 C 
BRANCH   7   8
ATOM      8  N   UNL     1      44.505   4.727   9.175  0.00  0.00    +0.000 NA
ATOM      9  H   UNL     1      44.083   5.230   8.395  0.00  0.00    +0.000 HD
BRANCH   8  11
ATOM     10  C   UNL     1      44.177   2.467  10.192  0.00  0.00    +0.000 C 
ATOM     11  C   UNL     1      44.376   3.284   8.909  0.00  0.00    +0.000 C 
BRANCH  11  12
ATOM     12  C   UNL     1      45.605   2.772   8.177  0.00  0.00    +0.000 A 
ATOM     13  C   UNL     1      45.988   1.424   8.201  0.00  0.00    +0.000 A 
ATOM     14  C   UNL     1      47.125   1.007   7.517  0.00  0.00    +0.000 A 
ATOM     15  C   UNL     1      47.843   1.953   6.806  0.00  0.00    +0.000 A 
ATOM     16  N   UNL     1      47.501   3.257   6.734  0.00  0.00    +0.000 NA
ATOM     17  C   UNL     1      46.392   3.633   7.415  0.00  0.00    +0.000 A 
ENDBRANCH  11  12
ENDBRANCH   8  11
ENDBRANCH   7   8
ENDBRANCH   1   7
BRANCH   4  18
ATOM     18  C   UNL     1      47.739   7.696  13.990  0.00  0.00    +0.000 C 
BRANCH  18  19
ATOM     19  N   UNL     1      48.211   6.775  14.994  0.00  0.00    +0.000 N 
ATOM     20  C   UNL     1      49.025   7.191  16.015  0.00  0.00    +0.000 C 
ATOM     21  O   UNL     1      49.354   8.364  16.151  0.00  0.00    +0.000 OA
ATOM     22  H   UNL     1      48.144   5.786  14.778  0.00  0.00    +0.000 HD
BRANCH  20  23
ATOM     23  C   UNL     1      49.431   6.163  16.983  0.00  0.00    +0.000 A 
ATOM     24  C   UNL     1      48.470   5.551  17.777  0.00  0.00    +0.000 A 
ATOM     25  S   UNL     1      49.096   4.342  18.802  0.00  0.00    +0.000 S 
ATOM     26  C   UNL     1      50.684   4.630  18.262  0.00  0.00    +0.000 A 
ATOM     27  N   UNL     1      51.733   3.929  18.771  0.00  0.00    +0.000 NA
ATOM     28  C   UNL     1      52.883   4.270  18.296  0.00  0.00    +0.000 A 
ATOM     29  N   UNL     1      53.081   5.246  17.353  0.00  0.00    +0.000 N 
ATOM     30  C   UNL     1      52.049   5.958  16.788  0.00  0.00    +0.000 A 
ATOM     31  O   UNL     1      52.256   6.793  15.914  0.00  0.00    +0.000 OA
ATOM     32  C   UNL     1      50.733   5.622  17.298  0.00  0.00    +0.000 A 
ATOM     33  H   UNL     1      54.007   5.461  17.016  0.00  0.00    +0.000 HD
ENDBRANCH  20  23
ENDBRANCH  18  19
ENDBRANCH   4  18
TORSDOF 7
ENDMDL
MODEL 6
REMARK VINA RESULT:    -7.030      5.038      9.222
REMARK INTER + INTRA:         -11.338
REMARK INTER:                 -10.090
REMARK INTRA:                  -1.248
REMARK UNBOUND:                -1.432
REMARK  Name = 
REMARK  8 active torsions:
REMARK  status: ('A' for Active; 'I' for Inactive)
REMARK    1  A    between atoms: C_1  and  C_2
REMARK    2  A    between atoms: C_2  and  N_3
REMARK    3  A    between atoms: C_2  and  C_25
REMARK    4  A    between atoms: N_3  and  C_4
REMARK    5  A    between atoms: C_4  and  C_5
REMARK    6  A    between atoms: C_8  and  C_9
REMARK    7  A    between atoms: C_9  and  N_10
REMARK    8  A    between atoms: C_11  and  C_13
REMARK                            x       y       z     vdW  Elec       q    Type
REMARK                         _______ _______ _______ _____ _____    ______ ____
ROOT
ATOM      1  C   UNL     1      51.240   2.310  17.415  0.00  0.00    +0.000 A 
ATOM      2  C   UNL     1      51.853   3.571  17.442  0.00  0.00    +0.000 A 
ATOM      3  C   UNL     1      51.083   4.739  17.418  0.00  0.00    +0.000 A 
ATOM      4  C   UNL     1      49.686   4.672  17.365  0.00  0.00    +0.000 A 
ATOM      5  C   UNL     1      49.074   3.414  17.313  0.00  0.00    +0.000 A 
ATOM      6  C   UNL     1      49.841   2.247  17.348  0.00  0.00    +0.000 A 
ENDROOT
BRANCH   1   7
ATOM      7  C   UNL     1      52.059   1.036  17.431  0.00  0.00    +0.000 C 
BRANCH   7   8
ATOM      8  N   UNL     1      52.963   0.997  18.578  0.00  0.00    +0.000 NA
ATOM      9  H   UNL     1      52.938   1.906  19.041  0.00  0.00    +0.000 HD
BRANCH   8  11
ATOM     10  C   UNL     1      54.873   1.555  17.067  0.00  0.00    +0.000 C 
ATOM     11  C   UNL     1      54.363   0.701  18.234  0.00  0.00    +0.000 C 
BRANCH  11  12
ATOM     12  C   UNL     1      54.519  -0.769  17.882  0.00  0.00    +0.000 A 
ATOM     13  C   UNL     1      55.005  -1.198  16.640  0.00  0.00    +0.000 A 
ATOM     14  C   UNL     1      55.125  -2.557  16.367  0.00  0.00    +0.000 A 
ATOM     15  C   UNL     1      54.770  -3.456  17.357  0.00  0.00    +0.000 A 
ATOM     16  N   UNL     1      54.320  -3.091  18.576  0.00  0.00    +0.000 NA
ATOM     17  C   UNL     1      54.209  -1.762  18.810  0.00  0.00    +0.000 A 
ENDBRANCH  11  12
ENDBRANCH   8  11
ENDBRANCH   7   8
ENDBRANCH   1   7
BRANCH   4  18
ATOM     18  C   UNL     1      48.849   5.923  17.311  0.00  0.00    +0.000 C 
BRANCH  18  19
ATOM     19  N   UNL     1      47.976   5.904  16.164  0.00  0.00    +0.000 N 
ATOM     20  C   UNL     1      48.415   6.298  14.927  0.00  0.00    +0.000 C 
ATOM     21  O   UNL     1      49.575   6.641  14.725  0.00  0.00    +0.000 OA
ATOM     22  H   UNL     1      46.979   5.848  16.347  0.00  0.00    +0.000 HD
BRANCH  20  23
ATOM     23  C   UNL     1      47.435   6.224  13.835  0.00  0.00    +0.000 A 
ATOM     24  C   UNL     1      47.055   7.386  13.176  0.00  0.00    +0.000 A 
ATOM     25  S   UNL     1      45.958   7.122  11.899  0.00  0.00    +0.000 S 
ATOM     26  C   UNL     1      45.907   5.451  12.216  0.00  0.00    +0.000 A 
ATOM     27  N   UNL     1      45.118   4.624  11.478  0.00  0.00    +0.000 NA
ATOM     28  C   UNL     1      45.152   3.388  11.844  0.00  0.00    +0.000 A 
ATOM     29  N   UNL     1      45.907   2.900  12.880  0.00  0.00    +0.000 N 
ATOM     30  C   UNL     1      46.742   3.692  13.633  0.00  0.00    +0.000 A 
ATOM     31  O   UNL     1      47.438   3.216  14.524  0.00  0.00    +0.000 OA
ATOM     32  C   UNL     1      46.731   5.097  13.269  0.00  0.00    +0.000 A 
ATOM     33  H   UNL     1      45.894   1.919  13.113  0.00  0.00    +0.000 HD
ENDBRANCH  20  23
ENDBRANCH  18  19
ENDBRANCH   4  18
TORSDOF 7
ENDMDL
MODEL 7
REMARK VINA RESULT:    -6.944      3.772      5.211
REMARK INTER + INTRA:         -11.218
REMARK INTER:                  -9.989
REMARK INTRA:                  -1.229
REMARK UNBOUND:                -1.432
REMARK  Name = 
REMARK  8 active torsions:
REMARK  status: ('A' for Active; 'I' for Inactive)
REMARK    1  A    between atoms: C_1  and  C_2
REMARK    2  A    between atoms: C_2  and  N_3
REMARK    3  A    between atoms: C_2  and  C_25
REMARK    4  A    between atoms: N_3  and  C_4
REMARK    5  A    between atoms: C_4  and  C_5
REMARK    6  A    between atoms: C_8  and  C_9
REMARK    7  A    between atoms: C_9  and  N_10
REMARK    8  A    between atoms: C_11  and  C_13
REMARK                            x       y       z     vdW  Elec       q    Type
REMARK                         _______ _______ _______ _____ _____    ______ ____
ROOT
ATOM      1  C   UNL     1      44.965   6.276  11.433  0.00  0.00    +0.000 A 
ATOM      2  C   UNL     1      46.089   5.821  12.138  0.00  0.00    +0.000 A 
ATOM      3  C   UNL     1      46.888   6.713  12.861  0.00  0.00    +0.000 A 
ATOM      4  C   UNL     1      46.581   8.079  12.895  0.00  0.00    +0.000 A 
ATOM      5  C   UNL     1      45.474   8.538  12.173  0.00  0.00    +0.000 A 
ATOM      6  C   UNL     1      44.669   7.647  11.458  0.00  0.00    +0.000 A 
ENDROOT
BRANCH   1   7
ATOM      7  C   UNL     1      44.096   5.325  10.638  0.00  0.00    +0.000 C 
BRANCH   7   8
ATOM      8  N   UNL     1      44.794   4.826   9.456  0.00  0.00    +0.000 NA
ATOM      9  H   UNL     1      44.584   5.442   8.671  0.00  0.00    +0.000 HD
BRANCH   8  11
ATOM     10  C   UNL     1      44.060   2.582  10.278  0.00  0.00    +0.000 C 
ATOM     11  C   UNL     1      44.422   3.455   9.069  0.00  0.00    +0.000 C 
BRANCH  11  12
ATOM     12  C   UNL     1      45.557   2.798   8.302  0.00  0.00    +0.000 A 
ATOM     13  C   UNL     1      46.365   3.506   7.402  0.00  0.00    +0.000 A 
ATOM     14  C   UNL     1      47.390   2.856   6.721  0.00  0.00    +0.000 A 
ATOM     15  C   UNL     1      47.592   1.511   6.974  0.00  0.00    +0.000 A 
ATOM     16  N   UNL     1      46.855   0.793   7.849  0.00  0.00    +0.000 NA
ATOM     17  C   UNL     1      45.862   1.452   8.492  0.00  0.00    +0.000 A 
ENDBRANCH  11  12
ENDBRANCH   8  11
ENDBRANCH   7   8
ENDBRANCH   1   7
BRANCH   4  18
ATOM     18  C   UNL     1      47.450   9.051  13.648  0.00  0.00    +0.000 C 
BRANCH  18  19
ATOM     19  N   UNL     1      48.724   9.211  12.994  0.00  0.00    +0.000 N 
ATOM     20  C   UNL     1      48.902  10.129  11.992  0.00  0.00    +0.000 C 
ATOM     21  O   UNL     1      48.005  10.885  11.635  0.00  0.00    +0.000 OA
ATOM     22  H   UNL     1      49.397   8.459  13.109  0.00  0.00    +0.000 HD
BRANCH  20  23
ATOM     23  C   UNL     1      50.248  10.205  11.409  0.00  0.00    +0.000 A 
ATOM     24  C   UNL     1      50.811  11.447  11.145  0.00  0.00    +0.000 A 
ATOM     25  S   UNL     1      52.397  11.363  10.527  0.00  0.00    +0.000 S 
ATOM     26  C   UNL     1      52.369   9.662  10.538  0.00  0.00    +0.000 A 
ATOM     27  N   UNL     1      53.437   8.943  10.097  0.00  0.00    +0.000 NA
ATOM     28  C   UNL     1      53.270   7.665  10.132  0.00  0.00    +0.000 A 
ATOM     29  N   UNL     1      52.133   7.036  10.572  0.00  0.00    +0.000 N 
ATOM     30  C   UNL     1      51.042   7.720  11.054  0.00  0.00    +0.000 A 
ATOM     31  O   UNL     1      50.058   7.126  11.482  0.00  0.00    +0.000 OA
ATOM     32  C   UNL     1      51.173   9.164  11.025  0.00  0.00    +0.000 A 
ATOM     33  H   UNL     1      52.068   6.030  10.580  0.00  0.00    +0.000 HD
ENDBRANCH  20  23
ENDBRANCH  18  19
ENDBRANCH   4  18
TORSDOF 7
ENDMDL
MODEL 8
REMARK VINA RESULT:    -6.834      4.563      9.400
REMARK INTER + INTRA:         -11.063
REMARK INTER:                  -9.984
REMARK INTRA:                  -1.079
REMARK UNBOUND:                -1.432
REMARK  Name = 
REMARK  8 active torsions:
REMARK  status: ('A' for Active; 'I' for Inactive)
REMARK    1  A    between atoms: C_1  and  C_2
REMARK    2  A    between atoms: C_2  and  N_3
REMARK    3  A    between atoms: C_2  and  C_25
REMARK    4  A    between atoms: N_3  and  C_4
REMARK    5  A    between atoms: C_4  and  C_5
REMARK    6  A    between atoms: C_8  and  C_9
REMARK    7  A    between atoms: C_9  and  N_10
REMARK    8  A    between atoms: C_11  and  C_13
REMARK                            x       y       z     vdW  Elec       q    Type
REMARK                         _______ _______ _______ _____ _____    ______ ____
ROOT
ATOM      1  C   UNL     1      51.333   3.584  17.796  0.00  0.00    +0.000 A 
ATOM      2  C   UNL     1      50.531   4.734  17.856  0.00  0.00    +0.000 A 
ATOM      3  C   UNL     1      49.165   4.667  17.562  0.00  0.00    +0.000 A 
ATOM      4  C   UNL     1      48.571   3.452  17.201  0.00  0.00    +0.000 A 
ATOM      5  C   UNL     1      49.374   2.309  17.116  0.00  0.00    +0.000 A 
ATOM      6  C   UNL     1      50.737   2.372  17.420  0.00  0.00    +0.000 A 
ENDROOT
BRANCH   1   7
ATOM      7  C   UNL     1      52.815   3.641  18.102  0.00  0.00    +0.000 C 
BRANCH   7   8
ATOM      8  N   UNL     1      53.202   2.608  19.059  0.00  0.00    +0.000 NA
ATOM      9  H   UNL     1      53.021   2.955  20.000  0.00  0.00    +0.000 HD
BRANCH   8  11
ATOM     10  C   UNL     1      55.518   3.359  18.495  0.00  0.00    +0.000 C 
ATOM     11  C   UNL     1      54.619   2.216  18.983  0.00  0.00    +0.000 C 
BRANCH  11  12
ATOM     12  C   UNL     1      54.786   1.020  18.061  0.00  0.00    +0.000 A 
ATOM     13  C   UNL     1      55.280   1.141  16.755  0.00  0.00    +0.000 A 
ATOM     14  C   UNL     1      55.410   0.014  15.949  0.00  0.00    +0.000 A 
ATOM     15  C   UNL     1      55.058  -1.214  16.481  0.00  0.00    +0.000 A 
ATOM     16  N   UNL     1      54.600  -1.383  17.740  0.00  0.00    +0.000 NA
ATOM     17  C   UNL     1      54.480  -0.267  18.498  0.00  0.00    +0.000 A 
ENDBRANCH  11  12
ENDBRANCH   8  11
ENDBRANCH   7   8
ENDBRANCH   1   7
BRANCH   4  18
ATOM     18  C   UNL     1      47.107   3.375  16.856  0.00  0.00    +0.000 C 
BRANCH  18  19
ATOM     19  N   UNL     1      46.759   4.376  15.879  0.00  0.00    +0.000 N 
ATOM     20  C   UNL     1      46.888   4.136  14.535  0.00  0.00    +0.000 C 
ATOM     21  O   UNL     1      47.261   3.052  14.100  0.00  0.00    +0.000 OA
ATOM     22  H   UNL     1      46.672   5.331  16.210  0.00  0.00    +0.000 HD
BRANCH  20  23
ATOM     23  C   UNL     1      46.492   5.229  13.638  0.00  0.00    +0.000 A 
ATOM     24  C   UNL     1      47.383   6.262  13.381  0.00  0.00    +0.000 A 
ATOM     25  S   UNL     1      46.794   7.418  12.276  0.00  0.00    +0.000 S 
ATOM     26  C   UNL     1      45.302   6.609  12.143  0.00  0.00    +0.000 A 
ATOM     27  N   UNL     1      44.310   7.100  11.351  0.00  0.00    +0.000 NA
ATOM     28  C   UNL     1      43.224   6.405  11.367  0.00  0.00    +0.000 A 
ATOM     29  N   UNL     1      43.038   5.260  12.099  0.00  0.00    +0.000 N 
ATOM     30  C   UNL     1      44.022   4.711  12.888  0.00  0.00    +0.000 A 
ATOM     31  O   UNL     1      43.838   3.661  13.495  0.00  0.00    +0.000 OA
ATOM     32  C   UNL     1      45.262   5.462  12.916  0.00  0.00    +0.000 A 
ATOM     33  H   UNL     1      42.164   4.757  12.062  0.00  0.00    +0.000 HD
ENDBRANCH  20  23
ENDBRANCH  18  19
ENDBRANCH   4  18
TORSDOF 7
ENDMDL
MODEL 9
REMARK VINA RESULT:    -6.709      2.396      3.031
REMARK INTER + INTRA:         -10.887
REMARK INTER:                  -9.846
REMARK INTRA:                  -1.041
REMARK UNBOUND:                -1.432
REMARK  Name = 
REMARK  8 active torsions:
REMARK  status: ('A' for Active; 'I' for Inactive)
REMARK    1  A    between atoms: C_1  and  C_2
REMARK    2  A    between atoms: C_2  and  N_3
REMARK    3  A    between atoms: C_2  and  C_25
REMARK    4  A    between atoms: N_3  and  C_4
REMARK    5  A    between atoms: C_4  and  C_5
REMARK    6  A    between atoms: C_8  and  C_9
REMARK    7  A    between atoms: C_9  and  N_10
REMARK    8  A    between atoms: C_11  and  C_13
REMARK                            x       y       z     vdW  Elec       q    Type
REMARK                         _______ _______ _______ _____ _____    ______ ____
ROOT
ATOM      1  C   UNL     1      46.559   6.525  12.604  0.00  0.00    +0.000 A 
ATOM      2  C   UNL     1      47.090   5.592  13.506  0.00  0.00    +0.000 A 
ATOM      3  C   UNL     1      47.953   5.999  14.529  0.00  0.00    +0.000 A 
ATOM      4  C   UNL     1      48.305   7.346  14.672  0.00  0.00    +0.000 A 
ATOM      5  C   UNL     1      47.795   8.276  13.757  0.00  0.00    +0.000 A 
ATOM      6  C   UNL     1      46.925   7.872  12.741  0.00  0.00    +0.000 A 
ENDROOT
BRANCH   1   7
ATOM      7  C   UNL     1      45.631   6.100  11.485  0.00  0.00    +0.000 C 
BRANCH   7   8
ATOM      8  N   UNL     1      45.400   4.658  11.503  0.00  0.00    +0.000 NA
ATOM      9  H   UNL     1      46.288   4.185  11.337  0.00  0.00    +0.000 HD
BRANCH   8  11
ATOM     10  C   UNL     1      43.420   3.196  11.070  0.00  0.00    +0.000 C 
ATOM     11  C   UNL     1      44.438   4.187  10.493  0.00  0.00    +0.000 C 
BRANCH  11  12
ATOM     12  C   UNL     1      45.171   3.532   9.334  0.00  0.00    +0.000 A 
ATOM     13  C   UNL     1      45.761   4.274   8.302  0.00  0.00    +0.000 A 
ATOM     14  C   UNL     1      46.417   3.625   7.261  0.00  0.00    +0.000 A 
ATOM     15  C   UNL     1      46.482   2.243   7.290  0.00  0.00    +0.000 A 
ATOM     16  N   UNL     1      45.949   1.487   8.274  0.00  0.00    +0.000 NA
ATOM     17  C   UNL     1      45.312   2.148   9.270  0.00  0.00    +0.000 A 
ENDBRANCH  11  12
ENDBRANCH   8  11
ENDBRANCH   7   8
ENDBRANCH   1   7
BRANCH   4  18
ATOM     18  C   UNL     1      49.254   7.791  15.753  0.00  0.00    +0.000 C 
BRANCH  18  19
ATOM     19  N   UNL     1      50.166   6.731  16.100  0.00  0.00    +0.000 N 
ATOM     20  C   UNL     1      50.477   6.457  17.407  0.00  0.00    +0.000 C 
ATOM     21  O   UNL     1      49.964   7.066  18.340  0.00  0.00    +0.000 OA
ATOM     22  H   UNL     1      50.763   6.377  15.359  0.00  0.00    +0.000 HD
BRANCH  20  23
ATOM     23  C   UNL     1      51.410   5.345  17.635  0.00  0.00    +0.000 A 
ATOM     24  C   UNL     1      52.710   5.615  18.040  0.00  0.00    +0.000 A 
ATOM     25  S   UNL     1      53.646   4.218  18.317  0.00  0.00    +0.000 S 
ATOM     26  C   UNL     1      52.363   3.201  17.852  0.00  0.00    +0.000 A 
ATOM     27  N   UNL     1      52.513   1.849  17.840  0.00  0.00    +0.000 NA
ATOM     28  C   UNL     1      51.473   1.201  17.438  0.00  0.00    +0.000 A 
ATOM     29  N   UNL     1      50.292   1.781  17.050  0.00  0.00    +0.000 N 
ATOM     30  C   UNL     1      50.085   3.140  17.076  0.00  0.00    +0.000 A 
ATOM     31  O   UNL     1      49.001   3.624  16.765  0.00  0.00    +0.000 OA
ATOM     32  C   UNL     1      51.230   3.918  17.509  0.00  0.00    +0.000 A 
ATOM     33  H   UNL     1      49.511   1.217  16.752  0.00  0.00    +0.000 HD
ENDBRANCH  20  23
ENDBRANCH  18  19
ENDBRANCH   4  18
TORSDOF 7
ENDMDL
