MODEL 1
REMARK VINA RESULT:    -8.784      0.000      0.000
REMARK INTER + INTRA:         -12.012
REMARK INTER:                 -11.352
REMARK INTRA:                  -0.660
REMARK UNBOUND:                -0.660
REMARK  Name = 
REMARK  5 active torsions:
REMARK  status: ('A' for Active; 'I' for Inactive)
REMARK    1  A    between atoms: C_2  and  C_4
REMARK    2  A    between atoms: C_7  and  O_8
REMARK    3  A    between atoms: O_8  and  C_9
REMARK    4  A    between atoms: C_9  and  C_10
REMARK    5  A    between atoms: C_14  and  C_15
REMARK                            x       y       z     vdW  Elec       q    Type
REMARK                         _______ _______ _______ _____ _____    ______ ____
ROOT
ATOM      1  C   UNL     1      43.878   2.903  11.576  0.00  0.00    +0.000 C 
ENDROOT
BRANCH   1   2
ATOM      2  C   UNL     1      44.928   3.782  12.218  0.00  0.00    +0.000 A 
ATOM      3  N   UNL     1      45.834   3.191  13.021  0.00  0.00    +0.000 NA
ATOM      4  C   UNL     1      46.714   4.001  13.629  0.00  0.00    +0.000 A 
ATOM      5  C   UNL     1      46.730   5.365  13.461  0.00  0.00    +0.000 A 
ATOM      6  C   UNL     1      45.774   5.899  12.616  0.00  0.00    +0.000 A 
ATOM      7  N   UNL     1      44.865   5.114  11.995  0.00  0.00    +0.000 NA
BRANCH   6   8
ATOM      8  C   UNL     1      45.654   7.345  12.363  0.00  0.00    +0.000 A 
ATOM      9  C   UNL     1      46.550   8.262  12.924  0.00  0.00    +0.000 A 
ATOM     10  N   UNL     1      46.536   9.606  12.707  0.00  0.00    +0.000 NA
ATOM     11  C   UNL     1      45.563  10.073  11.897  0.00  0.00    +0.000 A 
ATOM     12  C   UNL     1      44.614   9.261  11.308  0.00  0.00    +0.000 A 
ATOM     13  F   UNL     1      43.666   9.778  10.517  0.00  0.00    +0.000 F 
ATOM     14  C   UNL     1      44.655   7.891  11.543  0.00  0.00    +0.000 A 
ENDBRANCH   6   8
ENDBRANCH   1   2
BRANCH   1  15
ATOM     15  O   UNL     1      43.524   3.396  10.277  0.00  0.00    +0.000 OA
BRANCH  15  19
ATOM     16  C   UNL     1      46.457   2.617   7.491  0.00  0.00    +0.000 A 
ATOM     17  C   UNL     1      45.955   3.914   7.620  0.00  0.00    +0.000 A 
ATOM     18  C   UNL     1      44.957   4.167   8.564  0.00  0.00    +0.000 A 
ATOM     19  C   UNL     1      44.502   3.114   9.346  0.00  0.00    +0.000 A 
ATOM     20  N   UNL     1      44.965   1.850   9.233  0.00  0.00    +0.000 NA
ATOM     21  C   UNL     1      45.922   1.627   8.303  0.00  0.00    +0.000 A 
BRANCH  16  23
ATOM     22  N   UNL     1      47.585   2.943   5.363  0.00  0.00    +0.000 N 
ATOM     23  C   UNL     1      47.511   2.237   6.530  0.00  0.00    +0.000 C 
ATOM     24  O   UNL     1      48.319   1.353   6.785  0.00  0.00    +0.000 OA
ATOM     25  H   UNL     1      48.387   2.749   4.776  0.00  0.00    +0.000 HD
ATOM     26  H   UNL     1      47.119   3.831   5.234  0.00  0.00    +0.000 HD
ENDBRANCH  16  23
ENDBRANCH  15  19
ENDBRANCH   1  15
TORSDOF 5
ENDMDL
MODEL 2
REMARK VINA RESULT:    -8.583      2.912      4.145
REMARK INTER + INTRA:         -11.752
REMARK INTER:                 -11.197
REMARK INTRA:                  -0.555
REMARK UNBOUND:                -0.660
REMARK  Name = 
REMARK  5 active torsions:
REMARK  status: ('A' for Active; 'I' for Inactive)
REMARK    1  A    between atoms: C_2  and  C_4
REMARK    2  A    between atoms: C_7  and  O_8
REMARK    3  A    between atoms: O_8  and  C_9
REMARK    4  A    between atoms: C_9  and  C_10
REMARK    5  A    between atoms: C_14  and  C_15
REMARK                            x       y       z     vdW  Elec       q    Type
REMARK                         _______ _______ _______ _____ _____    ______ ____
ROOT
ATOM      1  C   UNL     1      43.959   4.354  11.432  0.00  0.00    +0.000 C 
ENDROOT
BRANCH   1   2
ATOM      2  C   UNL     1      45.017   5.287  11.976  0.00  0.00    +0.000 A 
ATOM      3  N   UNL     1      45.278   6.412  11.281  0.00  0.00    +0.000 NA
ATOM      4  C   UNL     1      46.265   7.190  11.751  0.00  0.00    +0.000 A 
ATOM      5  C   UNL     1      46.990   6.896  12.880  0.00  0.00    +0.000 A 
ATOM      6  C   UNL     1      46.661   5.729  13.544  0.00  0.00    +0.000 A 
ATOM      7  N   UNL     1      45.679   4.915  13.095  0.00  0.00    +0.000 NA
BRANCH   6   8
ATOM      8  C   UNL     1      47.370   5.273  14.752  0.00  0.00    +0.000 A 
ATOM      9  C   UNL     1      48.406   6.025  15.319  0.00  0.00    +0.000 A 
ATOM     10  N   UNL     1      49.083   5.698  16.455  0.00  0.00    +0.000 NA
ATOM     11  C   UNL     1      48.721   4.546  17.058  0.00  0.00    +0.000 A 
ATOM     12  C   UNL     1      47.729   3.717  16.573  0.00  0.00    +0.000 A 
ATOM     13  F   UNL     1      47.414   2.581  17.208  0.00  0.00    +0.000 F 
ATOM     14  C   UNL     1      47.051   4.077  15.414  0.00  0.00    +0.000 A 
ENDBRANCH   6   8
ENDBRANCH   1   2
BRANCH   1  15
ATOM     15  O   UNL     1      43.741   4.589  10.034  0.00  0.00    +0.000 OA
BRANCH  15  19
ATOM     16  C   UNL     1      46.393   2.431   7.735  0.00  0.00    +0.000 A 
ATOM     17  C   UNL     1      45.620   1.775   8.695  0.00  0.00    +0.000 A 
ATOM     18  C   UNL     1      44.727   2.516   9.473  0.00  0.00    +0.000 A 
ATOM     19  C   UNL     1      44.639   3.885   9.258  0.00  0.00    +0.000 A 
ATOM     20  N   UNL     1      45.382   4.543   8.342  0.00  0.00    +0.000 NA
ATOM     21  C   UNL     1      46.249   3.805   7.610  0.00  0.00    +0.000 A 
BRANCH  16  23
ATOM     22  N   UNL     1      48.472   2.453   6.477  0.00  0.00    +0.000 N 
ATOM     23  C   UNL     1      47.365   1.749   6.857  0.00  0.00    +0.000 C 
ATOM     24  O   UNL     1      47.210   0.582   6.519  0.00  0.00    +0.000 OA
ATOM     25  H   UNL     1      49.181   1.929   5.979  0.00  0.00    +0.000 HD
ATOM     26  H   UNL     1      48.762   3.304   6.939  0.00  0.00    +0.000 HD
ENDBRANCH  16  23
ENDBRANCH  15  19
ENDBRANCH   1  15
TORSDOF 5
ENDMDL
MODEL 3
REMARK VINA RESULT:    -7.897      2.564      3.519
REMARK INTER + INTRA:         -10.865
REMARK INTER:                 -10.237
REMARK INTRA:                  -0.628
REMARK UNBOUND:                -0.660
REMARK  Name = 
REMARK  5 active torsions:
REMARK  status: ('A' for Active; 'I' for Inactive)
REMARK    1  A    between atoms: C_2  and  C_4
REMARK    2  A    between atoms: C_7  and  O_8
REMARK    3  A    between atoms: O_8  and  C_9
REMARK    4  A    between atoms: C_9  and  C_10
REMARK    5  A    between atoms: C_14  and  C_15
REMARK                            x       y       z     vdW  Elec       q    Type
REMARK                         _______ _______ _______ _____ _____    ______ ____
ROOT
ATOM      1  C   UNL     1      44.304   4.662  11.467  0.00  0.00    +0.000 C 
ENDROOT
BRANCH   1   2
ATOM      2  C   UNL     1      44.852   6.038  11.776  0.00  0.00    +0.000 A 
ATOM      3  N   UNL     1      44.163   7.103  11.321  0.00  0.00    +0.000 NA
ATOM      4  C   UNL     1      44.704   8.308  11.552  0.00  0.00    +0.000 A 
ATOM      5  C   UNL     1      45.891   8.492  12.220  0.00  0.00    +0.000 A 
ATOM      6  C   UNL     1      46.537   7.352  12.664  0.00  0.00    +0.000 A 
ATOM      7  N   UNL     1      46.026   6.120  12.440  0.00  0.00    +0.000 NA
BRANCH   6   8
ATOM      8  C   UNL     1      47.828   7.394  13.370  0.00  0.00    +0.000 A 
ATOM      9  C   UNL     1      48.099   6.543  14.449  0.00  0.00    +0.000 A 
ATOM     10  N   UNL     1      49.278   6.487  15.128  0.00  0.00    +0.000 NA
ATOM     11  C   UNL     1      50.244   7.338  14.724  0.00  0.00    +0.000 A 
ATOM     12  C   UNL     1      50.077   8.234  13.687  0.00  0.00    +0.000 A 
ATOM     13  F   UNL     1      51.068   9.061  13.330  0.00  0.00    +0.000 F 
ATOM     14  C   UNL     1      48.865   8.267  13.007  0.00  0.00    +0.000 A 
ENDBRANCH   6   8
ENDBRANCH   1   2
BRANCH   1  15
ATOM     15  O   UNL     1      43.831   4.592  10.115  0.00  0.00    +0.000 OA
BRANCH  15  19
ATOM     16  C   UNL     1      46.421   2.457   7.725  0.00  0.00    +0.000 A 
ATOM     17  C   UNL     1      45.655   1.788   8.683  0.00  0.00    +0.000 A 
ATOM     18  C   UNL     1      44.783   2.522   9.491  0.00  0.00    +0.000 A 
ATOM     19  C   UNL     1      44.709   3.896   9.309  0.00  0.00    +0.000 A 
ATOM     20  N   UNL     1      45.445   4.566   8.396  0.00  0.00    +0.000 NA
ATOM     21  C   UNL     1      46.291   3.835   7.634  0.00  0.00    +0.000 A 
BRANCH  16  23
ATOM     22  N   UNL     1      48.476   2.485   6.430  0.00  0.00    +0.000 N 
ATOM     23  C   UNL     1      47.370   1.784   6.817  0.00  0.00    +0.000 C 
ATOM     24  O   UNL     1      47.199   0.626   6.458  0.00  0.00    +0.000 OA
ATOM     25  H   UNL     1      49.172   1.965   5.909  0.00  0.00    +0.000 HD
ATOM     26  H   UNL     1      48.782   3.324   6.903  0.00  0.00    +0.000 HD
ENDBRANCH  16  23
ENDBRANCH  15  19
ENDBRANCH   1  15
TORSDOF 5
ENDMDL
MODEL 4
REMARK VINA RESULT:    -7.895      1.605      2.264
REMARK INTER + INTRA:         -10.862
REMARK INTER:                 -10.189
REMARK INTRA:                  -0.673
REMARK UNBOUND:                -0.660
REMARK  Name = 
REMARK  5 active torsions:
REMARK  status: ('A' for Active; 'I' for Inactive)
REMARK    1  A    between atoms: C_2  and  C_4
REMARK    2  A    between atoms: C_7  and  O_8
REMARK    3  A    between atoms: O_8  and  C_9
REMARK    4  A    between atoms: C_9  and  C_10
REMARK    5  A    between atoms: C_14  and  C_15
REMARK                            x       y       z     vdW  Elec       q    Type
REMARK                         _______ _______ _______ _____ _____    ______ ____
ROOT
ATOM      1  C   UNL     1      44.261   4.331  11.390  0.00  0.00    +0.000 C 
ENDROOT
BRANCH   1   2
ATOM      2  C   UNL     1      44.890   5.641  11.807  0.00  0.00    +0.000 A 
ATOM      3  N   UNL     1      45.913   5.596  12.683  0.00  0.00    +0.000 NA
ATOM      4  C   UNL     1      46.409   6.776  13.085  0.00  0.00    +0.000 A 
ATOM      5  C   UNL     1      45.934   7.988  12.645  0.00  0.00    +0.000 A 
ATOM      6  C   UNL     1      44.888   7.955  11.742  0.00  0.00    +0.000 A 
ATOM      7  N   UNL     1      44.356   6.785  11.322  0.00  0.00    +0.000 NA
BRANCH   6   8
ATOM      8  C   UNL     1      44.261   9.175  11.205  0.00  0.00    +0.000 A 
ATOM      9  C   UNL     1      44.989  10.360  11.042  0.00  0.00    +0.000 A 
ATOM     10  N   UNL     1      44.499  11.516  10.515  0.00  0.00    +0.000 NA
ATOM     11  C   UNL     1      43.201  11.503  10.143  0.00  0.00    +0.000 A 
ATOM     12  C   UNL     1      42.386  10.397  10.280  0.00  0.00    +0.000 A 
ATOM     13  F   UNL     1      41.103  10.441   9.900  0.00  0.00    +0.000 F 
ATOM     14  C   UNL     1      42.913   9.228  10.816  0.00  0.00    +0.000 A 
ENDBRANCH   6   8
ENDBRANCH   1   2
BRANCH   1  15
ATOM     15  O   UNL     1      43.828   4.383  10.024  0.00  0.00    +0.000 OA
BRANCH  15  19
ATOM     16  C   UNL     1      46.597   2.664   7.503  0.00  0.00    +0.000 A 
ATOM     17  C   UNL     1      45.855   1.856   8.368  0.00  0.00    +0.000 A 
ATOM     18  C   UNL     1      44.922   2.449   9.222  0.00  0.00    +0.000 A 
ATOM     19  C   UNL     1      44.764   3.828   9.176  0.00  0.00    +0.000 A 
ATOM     20  N   UNL     1      45.476   4.631   8.356  0.00  0.00    +0.000 NA
ATOM     21  C   UNL     1      46.382   4.034   7.547  0.00  0.00    +0.000 A 
BRANCH  16  23
ATOM     22  N   UNL     1      47.784   2.831   5.390  0.00  0.00    +0.000 N 
ATOM     23  C   UNL     1      47.606   2.146   6.558  0.00  0.00    +0.000 C 
ATOM     24  O   UNL     1      48.291   1.168   6.828  0.00  0.00    +0.000 OA
ATOM     25  H   UNL     1      48.562   2.532   4.815  0.00  0.00    +0.000 HD
ATOM     26  H   UNL     1      47.438   3.770   5.250  0.00  0.00    +0.000 HD
ENDBRANCH  16  23
ENDBRANCH  15  19
ENDBRANCH   1  15
TORSDOF 5
ENDMDL
MODEL 5
REMARK VINA RESULT:    -7.735      4.487      8.136
REMARK INTER + INTRA:         -10.655
REMARK INTER:                 -10.194
REMARK INTRA:                  -0.461
REMARK UNBOUND:                -0.660
REMARK  Name = 
REMARK  5 active torsions:
REMARK  status: ('A' for Active; 'I' for Inactive)
REMARK    1  A    between atoms: C_2  and  C_4
REMARK    2  A    between atoms: C_7  and  O_8
REMARK    3  A    between atoms: O_8  and  C_9
REMARK    4  A    between atoms: C_9  and  C_10
REMARK    5  A    between atoms: C_14  and  C_15
REMARK                            x       y       z     vdW  Elec       q    Type
REMARK                         _______ _______ _______ _____ _____    ______ ____
ROOT
ATOM      1  C   UNL     1      46.130   5.242  14.033  0.00  0.00    +0.000 C 
ENDROOT
BRANCH   1   2
ATOM      2  C   UNL     1      45.150   5.074  12.894  0.00  0.00    +0.000 A 
ATOM      3  N   UNL     1      43.868   5.424  13.113  0.00  0.00    +0.000 NA
ATOM      4  C   UNL     1      43.007   5.204  12.107  0.00  0.00    +0.000 A 
ATOM      5  C   UNL     1      43.375   4.662  10.900  0.00  0.00    +0.000 A 
ATOM      6  C   UNL     1      44.710   4.335  10.745  0.00  0.00    +0.000 A 
ATOM      7  N   UNL     1      45.603   4.533  11.740  0.00  0.00    +0.000 NA
BRANCH   6   8
ATOM      8  C   UNL     1      45.242   3.722   9.516  0.00  0.00    +0.000 A 
ATOM      9  C   UNL     1      45.657   4.504   8.431  0.00  0.00    +0.000 A 
ATOM     10  N   UNL     1      46.199   4.021   7.278  0.00  0.00    +0.000 NA
ATOM     11  C   UNL     1      46.323   2.680   7.189  0.00  0.00    +0.000 A 
ATOM     12  C   UNL     1      45.925   1.815   8.189  0.00  0.00    +0.000 A 
ATOM     13  F   UNL     1      46.065   0.491   8.046  0.00  0.00    +0.000 F 
ATOM     14  C   UNL     1      45.380   2.335   9.357  0.00  0.00    +0.000 A 
ENDBRANCH   6   8
ENDBRANCH   1   2
BRANCH   1  15
ATOM     15  O   UNL     1      46.438   3.976  14.633  0.00  0.00    +0.000 OA
BRANCH  15  19
ATOM     16  C   UNL     1      48.445   4.507  18.192  0.00  0.00    +0.000 A 
ATOM     17  C   UNL     1      48.725   5.344  17.110  0.00  0.00    +0.000 A 
ATOM     18  C   UNL     1      48.043   5.153  15.906  0.00  0.00    +0.000 A 
ATOM     19  C   UNL     1      47.103   4.134  15.831  0.00  0.00    +0.000 A 
ATOM     20  N   UNL     1      46.821   3.305  16.860  0.00  0.00    +0.000 NA
ATOM     21  C   UNL     1      47.504   3.502  18.012  0.00  0.00    +0.000 A 
BRANCH  16  23
ATOM     22  N   UNL     1      48.532   3.952  20.556  0.00  0.00    +0.000 N 
ATOM     23  C   UNL     1      49.102   4.619  19.509  0.00  0.00    +0.000 C 
ATOM     24  O   UNL     1      50.144   5.246  19.651  0.00  0.00    +0.000 OA
ATOM     25  H   UNL     1      49.064   3.942  21.418  0.00  0.00    +0.000 HD
ATOM     26  H   UNL     1      47.841   3.226  20.428  0.00  0.00    +0.000 HD
ENDBRANCH  16  23
ENDBRANCH  15  19
ENDBRANCH   1  15
TORSDOF 5
ENDMDL
MODEL 6
REMARK VINA RESULT:    -7.365      3.440      7.367
REMARK INTER + INTRA:         -10.178
REMARK INTER:                  -9.667
REMARK INTRA:                  -0.510
REMARK UNBOUND:                -0.660
REMARK  Name = 
REMARK  5 active torsions:
REMARK  status: ('A' for Active; 'I' for Inactive)
REMARK    1  A    between atoms: C_2  and  C_4
REMARK    2  A    between atoms: C_7  and  O_8
REMARK    3  A    between atoms: O_8  and  C_9
REMARK    4  A    between atoms: C_9  and  C_10
REMARK    5  A    between atoms: C_14  and  C_15
REMARK                            x       y       z     vdW  Elec       q    Type
REMARK                         _______ _______ _______ _____ _____    ______ ____
ROOT
ATOM      1  C   UNL     1      46.253   7.157  11.965  0.00  0.00    +0.000 C 
ENDROOT
BRANCH   1   2
ATOM      2  C   UNL     1      45.285   6.215  11.286  0.00  0.00    +0.000 A 
ATOM      3  N   UNL     1      43.991   6.272  11.658  0.00  0.00    +0.000 NA
ATOM      4  C   UNL     1      43.165   5.381  11.088  0.00  0.00    +0.000 A 
ATOM      5  C   UNL     1      43.574   4.450  10.165  0.00  0.00    +0.000 A 
ATOM      6  C   UNL     1      44.915   4.457   9.827  0.00  0.00    +0.000 A 
ATOM      7  N   UNL     1      45.779   5.333  10.389  0.00  0.00    +0.000 NA
BRANCH   6   8
ATOM      8  C   UNL     1      45.501   3.500   8.873  0.00  0.00    +0.000 A 
ATOM      9  C   UNL     1      45.545   2.128   9.147  0.00  0.00    +0.000 A 
ATOM     10  N   UNL     1      46.029   1.174   8.304  0.00  0.00    +0.000 NA
ATOM     11  C   UNL     1      46.515   1.608   7.122  0.00  0.00    +0.000 A 
ATOM     12  C   UNL     1      46.540   2.940   6.758  0.00  0.00    +0.000 A 
ATOM     13  F   UNL     1      47.039   3.317   5.574  0.00  0.00    +0.000 F 
ATOM     14  C   UNL     1      46.036   3.892   7.636  0.00  0.00    +0.000 A 
ENDBRANCH   6   8
ENDBRANCH   1   2
BRANCH   1  15
ATOM     15  O   UNL     1      47.517   6.516  12.189  0.00  0.00    +0.000 OA
BRANCH  15  19
ATOM     16  C   UNL     1      47.720   4.872  15.961  0.00  0.00    +0.000 A 
ATOM     17  C   UNL     1      48.353   6.091  15.704  0.00  0.00    +0.000 A 
ATOM     18  C   UNL     1      48.282   6.638  14.421  0.00  0.00    +0.000 A 
ATOM     19  C   UNL     1      47.578   5.946  13.444  0.00  0.00    +0.000 A 
ATOM     20  N   UNL     1      46.967   4.763  13.665  0.00  0.00    +0.000 NA
ATOM     21  C   UNL     1      47.060   4.247  14.913  0.00  0.00    +0.000 A 
BRANCH  16  23
ATOM     22  N   UNL     1      46.926   3.110  17.433  0.00  0.00    +0.000 N 
ATOM     23  C   UNL     1      47.728   4.205  17.278  0.00  0.00    +0.000 C 
ATOM     24  O   UNL     1      48.457   4.587  18.183  0.00  0.00    +0.000 OA
ATOM     25  H   UNL     1      47.039   2.597  18.299  0.00  0.00    +0.000 HD
ATOM     26  H   UNL     1      46.522   2.615  16.650  0.00  0.00    +0.000 HD
ENDBRANCH  16  23
ENDBRANCH  15  19
ENDBRANCH   1  15
TORSDOF 5
ENDMDL
MODEL 7
REMARK VINA RESULT:    -7.000      3.600      7.146
REMARK INTER + INTRA:          -9.706
REMARK INTER:                  -9.036
REMARK INTRA:                  -0.670
REMARK UNBOUND:                -0.660
REMARK  Name = 
REMARK  5 active torsions:
REMARK  status: ('A' for Active; 'I' for Inactive)
REMARK    1  A    between atoms: C_2  and  C_4
REMARK    2  A    between atoms: C_7  and  O_8
REMARK    3  A    between atoms: O_8  and  C_9
REMARK    4  A    between atoms: C_9  and  C_10
REMARK    5  A    between atoms: C_14  and  C_15
REMARK                            x       y       z     vdW  Elec       q    Type
REMARK                         _______ _______ _______ _____ _____    ______ ____
ROOT
ATOM      1  C   UNL     1      44.295   6.840  12.131  0.00  0.00    +0.000 C 
ENDROOT
BRANCH   1   2
ATOM      2  C   UNL     1      44.136   5.394  11.720  0.00  0.00    +0.000 A 
ATOM      3  N   UNL     1      43.416   4.588  12.525  0.00  0.00    +0.000 NA
ATOM      4  C   UNL     1      43.346   3.296  12.170  0.00  0.00    +0.000 A 
ATOM      5  C   UNL     1      43.954   2.782  11.051  0.00  0.00    +0.000 A 
ATOM      6  C   UNL     1      44.670   3.671  10.269  0.00  0.00    +0.000 A 
ATOM      7  N   UNL     1      44.771   4.978  10.600  0.00  0.00    +0.000 NA
BRANCH   6   8
ATOM      8  C   UNL     1      45.395   3.258   9.055  0.00  0.00    +0.000 A 
ATOM      9  C   UNL     1      45.765   4.186   8.074  0.00  0.00    +0.000 A 
ATOM     10  N   UNL     1      46.471   3.896   6.947  0.00  0.00    +0.000 NA
ATOM     11  C   UNL     1      46.819   2.603   6.772  0.00  0.00    +0.000 A 
ATOM     12  C   UNL     1      46.487   1.604   7.664  0.00  0.00    +0.000 A 
ATOM     13  F   UNL     1      46.852   0.335   7.439  0.00  0.00    +0.000 F 
ATOM     14  C   UNL     1      45.770   1.928   8.810  0.00  0.00    +0.000 A 
ENDBRANCH   6   8
ENDBRANCH   1   2
BRANCH   1  15
ATOM     15  O   UNL     1      45.352   7.468  11.393  0.00  0.00    +0.000 OA
BRANCH  15  19
ATOM     16  C   UNL     1      48.719   8.041  13.697  0.00  0.00    +0.000 A 
ATOM     17  C   UNL     1      48.764   7.156  12.617  0.00  0.00    +0.000 A 
ATOM     18  C   UNL     1      47.615   6.965  11.845  0.00  0.00    +0.000 A 
ATOM     19  C   UNL     1      46.467   7.669  12.180  0.00  0.00    +0.000 A 
ATOM     20  N   UNL     1      46.396   8.523  13.224  0.00  0.00    +0.000 NA
ATOM     21  C   UNL     1      47.518   8.682  13.965  0.00  0.00    +0.000 A 
BRANCH  16  23
ATOM     22  N   UNL     1      50.946   7.483  14.494  0.00  0.00    +0.000 N 
ATOM     23  C   UNL     1      49.871   8.321  14.577  0.00  0.00    +0.000 C 
ATOM     24  O   UNL     1      49.883   9.293  15.322  0.00  0.00    +0.000 OA
ATOM     25  H   UNL     1      51.768   7.763  15.014  0.00  0.00    +0.000 HD
ATOM     26  H   UNL     1      51.080   6.844  13.722  0.00  0.00    +0.000 HD
ENDBRANCH  16  23
ENDBRANCH  15  19
ENDBRANCH   1  15
TORSDOF 5
ENDMDL
MODEL 8
REMARK VINA RESULT:    -6.951      5.414      8.113
REMARK INTER + INTRA:          -9.642
REMARK INTER:                  -9.111
REMARK INTRA:                  -0.531
REMARK UNBOUND:                -0.660
REMARK  Name = 
REMARK  5 active torsions:
REMARK  status: ('A' for Active; 'I' for Inactive)
REMARK    1  A    between atoms: C_2  and  C_4
REMARK    2  A    between atoms: C_7  and  O_8
REMARK    3  A    between atoms: O_8  and  C_9
REMARK    4  A    between atoms: C_9  and  C_10
REMARK    5  A    between atoms: C_14  and  C_15
REMARK                            x       y       z     vdW  Elec       q    Type
REMARK                         _______ _______ _______ _____ _____    ______ ____
ROOT
ATOM      1  C   UNL     1      47.568   4.042  16.590  0.00  0.00    +0.000 C 
ENDROOT
BRANCH   1   2
ATOM      2  C   UNL     1      47.498   4.788  15.277  0.00  0.00    +0.000 A 
ATOM      3  N   UNL     1      48.291   5.867  15.126  0.00  0.00    +0.000 NA
ATOM      4  C   UNL     1      48.162   6.549  13.977  0.00  0.00    +0.000 A 
ATOM      5  C   UNL     1      47.286   6.194  12.980  0.00  0.00    +0.000 A 
ATOM      6  C   UNL     1      46.511   5.071  13.203  0.00  0.00    +0.000 A 
ATOM      7  N   UNL     1      46.607   4.366  14.353  0.00  0.00    +0.000 NA
BRANCH   6   8
ATOM      8  C   UNL     1      45.511   4.589  12.235  0.00  0.00    +0.000 A 
ATOM      9  C   UNL     1      45.343   5.205  10.989  0.00  0.00    +0.000 A 
ATOM     10  N   UNL     1      44.475   4.797  10.022  0.00  0.00    +0.000 NA
ATOM     11  C   UNL     1      43.713   3.722  10.315  0.00  0.00    +0.000 A 
ATOM     12  C   UNL     1      43.781   3.052  11.520  0.00  0.00    +0.000 A 
ATOM     13  F   UNL     1      42.997   1.994  11.760  0.00  0.00    +0.000 F 
ATOM     14  C   UNL     1      44.680   3.486  12.487  0.00  0.00    +0.000 A 
ENDBRANCH   6   8
ENDBRANCH   1   2
BRANCH   1  15
ATOM     15  O   UNL     1      48.600   4.581  17.429  0.00  0.00    +0.000 OA
BRANCH  15  19
ATOM     16  C   UNL     1      51.887   2.107  17.656  0.00  0.00    +0.000 A 
ATOM     17  C   UNL     1      51.975   3.417  18.134  0.00  0.00    +0.000 A 
ATOM     18  C   UNL     1      50.856   4.249  18.048  0.00  0.00    +0.000 A 
ATOM     19  C   UNL     1      49.691   3.739  17.490  0.00  0.00    +0.000 A 
ATOM     20  N   UNL     1      49.585   2.480  17.013  0.00  0.00    +0.000 NA
ATOM     21  C   UNL     1      50.686   1.697  17.096  0.00  0.00    +0.000 A 
BRANCH  16  23
ATOM     22  N   UNL     1      52.740  -0.103  18.194  0.00  0.00    +0.000 N 
ATOM     23  C   UNL     1      53.003   1.142  17.697  0.00  0.00    +0.000 C 
ATOM     24  O   UNL     1      54.111   1.428  17.262  0.00  0.00    +0.000 OA
ATOM     25  H   UNL     1      53.484  -0.784  18.100  0.00  0.00    +0.000 HD
ATOM     26  H   UNL     1      51.801  -0.455  18.312  0.00  0.00    +0.000 HD
ENDBRANCH  16  23
ENDBRANCH  15  19
ENDBRANCH   1  15
TORSDOF 5
ENDMDL
MODEL 9
REMARK VINA RESULT:    -6.765      4.523      8.179
REMARK INTER + INTRA:          -9.402
REMARK INTER:                  -8.892
REMARK INTRA:                  -0.510
REMARK UNBOUND:                -0.660
REMARK  Name = 
REMARK  5 active torsions:
REMARK  status: ('A' for Active; 'I' for Inactive)
REMARK    1  A    between atoms: C_2  and  C_4
REMARK    2  A    between atoms: C_7  and  O_8
REMARK    3  A    between atoms: O_8  and  C_9
REMARK    4  A    between atoms: C_9  and  C_10
REMARK    5  A    between atoms: C_14  and  C_15
REMARK                            x       y       z     vdW  Elec       q    Type
REMARK                         _______ _______ _______ _____ _____    ______ ____
ROOT
ATOM      1  C   UNL     1      47.970   6.852  14.029  0.00  0.00    +0.000 C 
ENDROOT
BRANCH   1   2
ATOM      2  C   UNL     1      46.859   7.069  13.027  0.00  0.00    +0.000 A 
ATOM      3  N   UNL     1      46.232   8.262  13.035  0.00  0.00    +0.000 NA
ATOM      4  C   UNL     1      45.207   8.405  12.180  0.00  0.00    +0.000 A 
ATOM      5  C   UNL     1      44.793   7.417  11.321  0.00  0.00    +0.000 A 
ATOM      6  C   UNL     1      45.489   6.222  11.364  0.00  0.00    +0.000 A 
ATOM      7  N   UNL     1      46.520   6.039  12.219  0.00  0.00    +0.000 NA
BRANCH   6   8
ATOM      8  C   UNL     1      45.141   5.066  10.521  0.00  0.00    +0.000 A 
ATOM      9  C   UNL     1      44.340   4.024  11.003  0.00  0.00    +0.000 A 
ATOM     10  N   UNL     1      43.937   2.944  10.279  0.00  0.00    +0.000 NA
ATOM     11  C   UNL     1      44.368   2.884   9.001  0.00  0.00    +0.000 A 
ATOM     12  C   UNL     1      45.179   3.844   8.430  0.00  0.00    +0.000 A 
ATOM     13  F   UNL     1      45.583   3.732   7.159  0.00  0.00    +0.000 F 
ATOM     14  C   UNL     1      45.571   4.940   9.191  0.00  0.00    +0.000 A 
ENDBRANCH   6   8
ENDBRANCH   1   2
BRANCH   1  15
ATOM     15  O   UNL     1      48.095   5.462  14.360  0.00  0.00    +0.000 OA
BRANCH  15  19
ATOM     16  C   UNL     1      48.754   4.877  18.385  0.00  0.00    +0.000 A 
ATOM     17  C   UNL     1      47.674   4.246  17.763  0.00  0.00    +0.000 A 
ATOM     18  C   UNL     1      47.456   4.455  16.399  0.00  0.00    +0.000 A 
ATOM     19  C   UNL     1      48.329   5.284  15.708  0.00  0.00    +0.000 A 
ATOM     20  N   UNL     1      49.374   5.912  16.288  0.00  0.00    +0.000 NA
ATOM     21  C   UNL     1      49.557   5.705  17.613  0.00  0.00    +0.000 A 
BRANCH  16  23
ATOM     22  N   UNL     1      48.440   3.738  20.508  0.00  0.00    +0.000 N 
ATOM     23  C   UNL     1      49.079   4.727  19.817  0.00  0.00    +0.000 C 
ATOM     24  O   UNL     1      49.923   5.431  20.357  0.00  0.00    +0.000 OA
ATOM     25  H   UNL     1      48.767   3.574  21.452  0.00  0.00    +0.000 HD
ATOM     26  H   UNL     1      47.948   2.983  20.049  0.00  0.00    +0.000 HD
ENDBRANCH  16  23
ENDBRANCH  15  19
ENDBRANCH   1  15
TORSDOF 5
ENDMDL
