MODEL 1
REMARK VINA RESULT:    -7.457      0.000      0.000
REMARK INTER + INTRA:         -11.270
REMARK INTER:                 -10.290
REMARK INTRA:                  -0.980
REMARK UNBOUND:                -0.980
REMARK  Name = 
REMARK  7 active torsions:
REMARK  status: ('A' for Active; 'I' for Inactive)
REMARK    1  A    between atoms: N_1  and  C_2
REMARK    2  A    between atoms: C_5  and  C_6
REMARK    3  A    between atoms: N_8  and  C_9
REMARK    4  A    between atoms: C_9  and  C_10
REMARK    5  A    between atoms: C_13  and  C_14
REMARK    6  A    between atoms: C_14  and  N_15
REMARK    7  A    between atoms: C_16  and  C_18
REMARK                            x       y       z     vdW  Elec       q    Type
REMARK                         _______ _______ _______ _____ _____    ______ ____
ROOT
ATOM      1  C   UNL     1      50.510   7.521  14.811  0.00  0.00    +0.000 A 
ATOM      2  C   UNL     1      50.677   8.308  13.675  0.00  0.00    +0.000 A 
ATOM      3  C   UNL     1      49.620   8.435  12.777  0.00  0.00    +0.000 A 
ATOM      4  C   UNL     1      48.422   7.760  13.017  0.00  0.00    +0.000 A 
ATOM      5  C   UNL     1      48.344   6.997  14.175  0.00  0.00    +0.000 A 
ATOM      6  N   UNL     1      49.355   6.854  15.066  0.00  0.00    +0.000 NA
ENDROOT
BRANCH   1   7
ATOM      7  C   UNL     1      51.640   7.361  15.803  0.00  0.00    +0.000 C 
BRANCH   7  10
ATOM      8  C   UNL     1      52.091   5.503  17.357  0.00  0.00    +0.000 C 
ATOM      9  O   UNL     1      53.213   5.329  16.885  0.00  0.00    +0.000 OA
ATOM     10  N   UNL     1      51.273   6.519  16.926  0.00  0.00    +0.000 N 
ATOM     11  H   UNL     1      50.305   6.553  17.213  0.00  0.00    +0.000 HD
BRANCH   8  15
ATOM     12  C   UNL     1      49.994   2.386  17.327  0.00  0.00    +0.000 C 
ATOM     13  C   UNL     1      51.527   2.386  17.336  0.00  0.00    +0.000 C 
ATOM     14  C   UNL     1      52.094   3.226  18.485  0.00  0.00    +0.000 C 
ATOM     15  C   UNL     1      51.530   4.657  18.511  0.00  0.00    +0.000 C 
ATOM     16  C   UNL     1      49.997   4.605  18.545  0.00  0.00    +0.000 C 
ATOM     17  C   UNL     1      49.421   3.805  17.377  0.00  0.00    +0.000 C 
BRANCH  12  18
ATOM     18  N   UNL     1      49.491   1.701  16.136  0.00  0.00    +0.000 NA
ATOM     19  H   UNL     1      49.363   2.376  15.384  0.00  0.00    +0.000 HD
ATOM     20  H   UNL     1      48.562   1.323  16.327  0.00  0.00    +0.000 HD
ENDBRANCH  12  18
ENDBRANCH   8  15
ENDBRANCH   7  10
ENDBRANCH   1   7
BRANCH   4  21
ATOM     21  C   UNL     1      47.255   7.878  12.081  0.00  0.00    +0.000 C 
BRANCH  21  22
ATOM     22  N   UNL     1      46.650   6.594  11.826  0.00  0.00    +0.000 N 
ATOM     23  C   UNL     1      45.291   6.475  11.671  0.00  0.00    +0.000 C 
ATOM     24  O   UNL     1      44.551   7.454  11.695  0.00  0.00    +0.000 OA
ATOM     25  H   UNL     1      47.200   5.766  12.039  0.00  0.00    +0.000 HD
BRANCH  23  26
ATOM     26  C   UNL     1      44.770   5.128  11.409  0.00  0.00    +0.000 A 
ATOM     27  C   UNL     1      44.039   4.473  12.393  0.00  0.00    +0.000 A 
ATOM     28  S   UNL     1      43.456   2.945  11.910  0.00  0.00    +0.000 S 
ATOM     29  C   UNL     1      44.204   3.080  10.389  0.00  0.00    +0.000 A 
ATOM     30  N   UNL     1      44.115   2.076   9.476  0.00  0.00    +0.000 NA
ATOM     31  C   UNL     1      44.762   2.292   8.380  0.00  0.00    +0.000 A 
ATOM     32  N   UNL     1      45.484   3.425   8.110  0.00  0.00    +0.000 N 
ATOM     33  C   UNL     1      45.575   4.480   8.989  0.00  0.00    +0.000 A 
ATOM     34  O   UNL     1      46.194   5.498   8.700  0.00  0.00    +0.000 OA
ATOM     35  C   UNL     1      44.877   4.280  10.243  0.00  0.00    +0.000 A 
ATOM     36  H   UNL     1      45.964   3.535   7.229  0.00  0.00    +0.000 HD
ENDBRANCH  23  26
ENDBRANCH  21  22
ENDBRANCH   4  21
TORSDOF 7
ENDMDL
MODEL 2
REMARK VINA RESULT:    -6.924      1.768      2.468
REMARK INTER + INTRA:         -10.535
REMARK INTER:                  -9.364
REMARK INTRA:                  -1.171
REMARK UNBOUND:                -0.980
REMARK  Name = 
REMARK  7 active torsions:
REMARK  status: ('A' for Active; 'I' for Inactive)
REMARK    1  A    between atoms: N_1  and  C_2
REMARK    2  A    between atoms: C_5  and  C_6
REMARK    3  A    between atoms: N_8  and  C_9
REMARK    4  A    between atoms: C_9  and  C_10
REMARK    5  A    between atoms: C_13  and  C_14
REMARK    6  A    between atoms: C_14  and  N_15
REMARK    7  A    between atoms: C_16  and  C_18
REMARK                            x       y       z     vdW  Elec       q    Type
REMARK                         _______ _______ _______ _____ _____    ______ ____
ROOT
ATOM      1  C   UNL     1      50.418   7.491  15.368  0.00  0.00    +0.000 A 
ATOM      2  C   UNL     1      50.644   8.696  14.709  0.00  0.00    +0.000 A 
ATOM      3  C   UNL     1      49.893   9.000  13.575  0.00  0.00    +0.000 A 
ATOM      4  C   UNL     1      48.943   8.091  13.108  0.00  0.00    +0.000 A 
ATOM      5  C   UNL     1      48.784   6.912  13.828  0.00  0.00    +0.000 A 
ATOM      6  N   UNL     1      49.500   6.589  14.932  0.00  0.00    +0.000 NA
ENDROOT
BRANCH   1   7
ATOM      7  C   UNL     1      51.219   7.131  16.599  0.00  0.00    +0.000 C 
BRANCH   7  10
ATOM      8  C   UNL     1      50.720   4.943  17.618  0.00  0.00    +0.000 C 
ATOM      9  O   UNL     1      51.652   4.409  17.021  0.00  0.00    +0.000 OA
ATOM     10  N   UNL     1      50.471   6.291  17.516  0.00  0.00    +0.000 N 
ATOM     11  H   UNL     1      49.617   6.683  17.887  0.00  0.00    +0.000 HD
BRANCH   8  15
ATOM     12  C   UNL     1      47.143   3.855  17.254  0.00  0.00    +0.000 C 
ATOM     13  C   UNL     1      48.345   2.997  16.842  0.00  0.00    +0.000 C 
ATOM     14  C   UNL     1      49.352   2.834  17.985  0.00  0.00    +0.000 C 
ATOM     15  C   UNL     1      49.798   4.180  18.581  0.00  0.00    +0.000 C 
ATOM     16  C   UNL     1      48.566   4.983  19.018  0.00  0.00    +0.000 C 
ATOM     17  C   UNL     1      47.576   5.188  17.871  0.00  0.00    +0.000 C 
BRANCH  12  18
ATOM     18  N   UNL     1      46.281   4.112  16.100  0.00  0.00    +0.000 NA
ATOM     19  H   UNL     1      45.455   3.518  16.152  0.00  0.00    +0.000 HD
ATOM     20  H   UNL     1      46.765   3.833  15.244  0.00  0.00    +0.000 HD
ENDBRANCH  12  18
ENDBRANCH   8  15
ENDBRANCH   7  10
ENDBRANCH   1   7
BRANCH   4  21
ATOM     21  C   UNL     1      48.106   8.383  11.899  0.00  0.00    +0.000 C 
BRANCH  21  22
ATOM     22  N   UNL     1      47.483   7.189  11.384  0.00  0.00    +0.000 N 
ATOM     23  C   UNL     1      46.116   7.074  11.335  0.00  0.00    +0.000 C 
ATOM     24  O   UNL     1      45.378   7.993  11.677  0.00  0.00    +0.000 OA
ATOM     25  H   UNL     1      48.054   6.350  11.327  0.00  0.00    +0.000 HD
BRANCH  23  26
ATOM     26  C   UNL     1      45.576   5.823  10.790  0.00  0.00    +0.000 A 
ATOM     27  C   UNL     1      45.765   5.523   9.446  0.00  0.00    +0.000 A 
ATOM     28  S   UNL     1      45.129   4.009   8.987  0.00  0.00    +0.000 S 
ATOM     29  C   UNL     1      44.531   3.723  10.553  0.00  0.00    +0.000 A 
ATOM     30  N   UNL     1      43.843   2.586  10.841  0.00  0.00    +0.000 NA
ATOM     31  C   UNL     1      43.413   2.515  12.056  0.00  0.00    +0.000 A 
ATOM     32  N   UNL     1      43.615   3.476  13.013  0.00  0.00    +0.000 N 
ATOM     33  C   UNL     1      44.332   4.626  12.776  0.00  0.00    +0.000 A 
ATOM     34  O   UNL     1      44.531   5.446  13.666  0.00  0.00    +0.000 OA
ATOM     35  C   UNL     1      44.825   4.760  11.421  0.00  0.00    +0.000 A 
ATOM     36  H   UNL     1      43.256   3.357  13.948  0.00  0.00    +0.000 HD
ENDBRANCH  23  26
ENDBRANCH  21  22
ENDBRANCH   4  21
TORSDOF 7
ENDMDL
MODEL 3
REMARK VINA RESULT:    -6.670      3.219      4.895
REMARK INTER + INTRA:         -10.184
REMARK INTER:                  -9.352
REMARK INTRA:                  -0.832
REMARK UNBOUND:                -0.980
REMARK  Name = 
REMARK  7 active torsions:
REMARK  status: ('A' for Active; 'I' for Inactive)
REMARK    1  A    between atoms: N_1  and  C_2
REMARK    2  A    between atoms: C_5  and  C_6
REMARK    3  A    between atoms: N_8  and  C_9
REMARK    4  A    between atoms: C_9  and  C_10
REMARK    5  A    between atoms: C_13  and  C_14
REMARK    6  A    between atoms: C_14  and  N_15
REMARK    7  A    between atoms: C_16  and  C_18
REMARK                            x       y       z     vdW  Elec       q    Type
REMARK                         _______ _______ _______ _____ _____    ______ ____
ROOT
ATOM      1  C   UNL     1      51.319   4.399  17.977  0.00  0.00    +0.000 A 
ATOM      2  C   UNL     1      50.313   5.311  18.288  0.00  0.00    +0.000 A 
ATOM      3  C   UNL     1      49.004   5.034  17.902  0.00  0.00    +0.000 A 
ATOM      4  C   UNL     1      48.722   3.863  17.197  0.00  0.00    +0.000 A 
ATOM      5  C   UNL     1      49.786   3.010  16.930  0.00  0.00    +0.000 A 
ATOM      6  N   UNL     1      51.070   3.253  17.292  0.00  0.00    +0.000 NA
ENDROOT
BRANCH   1   7
ATOM      7  C   UNL     1      52.750   4.673  18.381  0.00  0.00    +0.000 C 
BRANCH   7  10
ATOM      8  C   UNL     1      54.244   2.762  18.817  0.00  0.00    +0.000 C 
ATOM      9  O   UNL     1      53.947   2.752  20.009  0.00  0.00    +0.000 OA
ATOM     10  N   UNL     1      53.657   3.634  17.931  0.00  0.00    +0.000 N 
ATOM     11  H   UNL     1      54.020   3.732  16.993  0.00  0.00    +0.000 HD
BRANCH   8  15
ATOM     12  C   UNL     1      54.061  -0.971  18.437  0.00  0.00    +0.000 C 
ATOM     13  C   UNL     1      53.544   0.023  17.390  0.00  0.00    +0.000 C 
ATOM     14  C   UNL     1      54.615   1.040  16.986  0.00  0.00    +0.000 C 
ATOM     15  C   UNL     1      55.233   1.765  18.194  0.00  0.00    +0.000 C 
ATOM     16  C   UNL     1      55.775   0.733  19.191  0.00  0.00    +0.000 C 
ATOM     17  C   UNL     1      54.700  -0.260  19.633  0.00  0.00    +0.000 C 
BRANCH  12  18
ATOM     18  N   UNL     1      52.973  -1.828  18.906  0.00  0.00    +0.000 NA
ATOM     19  H   UNL     1      52.408  -1.322  19.586  0.00  0.00    +0.000 HD
ATOM     20  H   UNL     1      53.362  -2.625  19.413  0.00  0.00    +0.000 HD
ENDBRANCH  12  18
ENDBRANCH   8  15
ENDBRANCH   7  10
ENDBRANCH   1   7
BRANCH   4  21
ATOM     21  C   UNL     1      47.325   3.521  16.772  0.00  0.00    +0.000 C 
BRANCH  21  22
ATOM     22  N   UNL     1      46.803   4.489  15.840  0.00  0.00    +0.000 N 
ATOM     23  C   UNL     1      46.802   4.237  14.491  0.00  0.00    +0.000 C 
ATOM     24  O   UNL     1      47.195   3.168  14.033  0.00  0.00    +0.000 OA
ATOM     25  H   UNL     1      46.702   5.446  16.166  0.00  0.00    +0.000 HD
BRANCH  23  26
ATOM     26  C   UNL     1      46.245   5.281  13.622  0.00  0.00    +0.000 A 
ATOM     27  C   UNL     1      46.969   6.446  13.401  0.00  0.00    +0.000 A 
ATOM     28  S   UNL     1      46.212   7.530  12.324  0.00  0.00    +0.000 S 
ATOM     29  C   UNL     1      44.864   6.506  12.156  0.00  0.00    +0.000 A 
ATOM     30  N   UNL     1      43.812   6.861  11.371  0.00  0.00    +0.000 NA
ATOM     31  C   UNL     1      42.840   6.010  11.365  0.00  0.00    +0.000 A 
ATOM     32  N   UNL     1      42.828   4.833  12.067  0.00  0.00    +0.000 N 
ATOM     33  C   UNL     1      43.884   4.417  12.846  0.00  0.00    +0.000 A 
ATOM     34  O   UNL     1      43.859   3.338  13.427  0.00  0.00    +0.000 OA
ATOM     35  C   UNL     1      44.995   5.345  12.898  0.00  0.00    +0.000 A 
ATOM     36  H   UNL     1      42.038   4.208  12.014  0.00  0.00    +0.000 HD
ENDBRANCH  23  26
ENDBRANCH  21  22
ENDBRANCH   4  21
TORSDOF 7
ENDMDL
MODEL 4
REMARK VINA RESULT:    -6.509      2.954      5.146
REMARK INTER + INTRA:          -9.963
REMARK INTER:                  -9.013
REMARK INTRA:                  -0.950
REMARK UNBOUND:                -0.980
REMARK  Name = 
REMARK  7 active torsions:
REMARK  status: ('A' for Active; 'I' for Inactive)
REMARK    1  A    between atoms: N_1  and  C_2
REMARK    2  A    between atoms: C_5  and  C_6
REMARK    3  A    between atoms: N_8  and  C_9
REMARK    4  A    between atoms: C_9  and  C_10
REMARK    5  A    between atoms: C_13  and  C_14
REMARK    6  A    between atoms: C_14  and  N_15
REMARK    7  A    between atoms: C_16  and  C_18
REMARK                            x       y       z     vdW  Elec       q    Type
REMARK                         _______ _______ _______ _____ _____    ______ ____
ROOT
ATOM      1  C   UNL     1      51.255   3.622  18.060  0.00  0.00    +0.000 A 
ATOM      2  C   UNL     1      50.383   4.614  18.502  0.00  0.00    +0.000 A 
ATOM      3  C   UNL     1      49.039   4.543  18.142  0.00  0.00    +0.000 A 
ATOM      4  C   UNL     1      48.591   3.496  17.334  0.00  0.00    +0.000 A 
ATOM      5  C   UNL     1      49.531   2.552  16.940  0.00  0.00    +0.000 A 
ATOM      6  N   UNL     1      50.844   2.595  17.273  0.00  0.00    +0.000 NA
ENDROOT
BRANCH   1   7
ATOM      7  C   UNL     1      52.720   3.673  18.431  0.00  0.00    +0.000 C 
BRANCH   7  10
ATOM      8  C   UNL     1      54.449   5.093  17.398  0.00  0.00    +0.000 C 
ATOM      9  O   UNL     1      54.952   4.131  16.824  0.00  0.00    +0.000 OA
ATOM     10  N   UNL     1      53.312   4.970  18.161  0.00  0.00    +0.000 N 
ATOM     11  H   UNL     1      53.002   5.734  18.744  0.00  0.00    +0.000 HD
BRANCH   8  15
ATOM     12  C   UNL     1      53.534   7.852  15.018  0.00  0.00    +0.000 C 
ATOM     13  C   UNL     1      52.866   7.642  16.382  0.00  0.00    +0.000 C 
ATOM     14  C   UNL     1      53.892   7.570  17.518  0.00  0.00    +0.000 C 
ATOM     15  C   UNL     1      54.991   6.525  17.261  0.00  0.00    +0.000 C 
ATOM     16  C   UNL     1      55.658   6.802  15.908  0.00  0.00    +0.000 C 
ATOM     17  C   UNL     1      54.647   6.832  14.762  0.00  0.00    +0.000 C 
BRANCH  12  18
ATOM     18  N   UNL     1      52.542   7.767  13.947  0.00  0.00    +0.000 NA
ATOM     19  H   UNL     1      52.901   8.227  13.112  0.00  0.00    +0.000 HD
ATOM     20  H   UNL     1      51.708   8.294  14.212  0.00  0.00    +0.000 HD
ENDBRANCH  12  18
ENDBRANCH   8  15
ENDBRANCH   7  10
ENDBRANCH   1   7
BRANCH   4  21
ATOM     21  C   UNL     1      47.151   3.377  16.933  0.00  0.00    +0.000 C 
BRANCH  21  22
ATOM     22  N   UNL     1      46.788   4.376  15.959  0.00  0.00    +0.000 N 
ATOM     23  C   UNL     1      46.916   4.128  14.616  0.00  0.00    +0.000 C 
ATOM     24  O   UNL     1      47.294   3.039  14.193  0.00  0.00    +0.000 OA
ATOM     25  H   UNL     1      46.708   5.337  16.281  0.00  0.00    +0.000 HD
BRANCH  23  26
ATOM     26  C   UNL     1      46.515   5.205  13.702  0.00  0.00    +0.000 A 
ATOM     27  C   UNL     1      47.394   6.251  13.450  0.00  0.00    +0.000 A 
ATOM     28  S   UNL     1      46.802   7.386  12.323  0.00  0.00    +0.000 S 
ATOM     29  C   UNL     1      45.329   6.550  12.172  0.00  0.00    +0.000 A 
ATOM     30  N   UNL     1      44.343   7.015  11.360  0.00  0.00    +0.000 NA
ATOM     31  C   UNL     1      43.264   6.305  11.369  0.00  0.00    +0.000 A 
ATOM     32  N   UNL     1      43.085   5.167  12.113  0.00  0.00    +0.000 N 
ATOM     33  C   UNL     1      44.066   4.642  12.922  0.00  0.00    +0.000 A 
ATOM     34  O   UNL     1      43.888   3.598  13.541  0.00  0.00    +0.000 OA
ATOM     35  C   UNL     1      45.293   5.411  12.958  0.00  0.00    +0.000 A 
ATOM     36  H   UNL     1      42.217   4.654  12.071  0.00  0.00    +0.000 HD
ENDBRANCH  23  26
ENDBRANCH  21  22
ENDBRANCH   4  21
TORSDOF 7
ENDMDL
MODEL 5
REMARK VINA RESULT:    -6.440      3.688      5.683
REMARK INTER + INTRA:          -9.866
REMARK INTER:                  -8.959
REMARK INTRA:                  -0.907
REMARK UNBOUND:                -0.980
REMARK  Name = 
REMARK  7 active torsions:
REMARK  status: ('A' for Active; 'I' for Inactive)
REMARK    1  A    between atoms: N_1  and  C_2
REMARK    2  A    between atoms: C_5  and  C_6
REMARK    3  A    between atoms: N_8  and  C_9
REMARK    4  A    between atoms: C_9  and  C_10
REMARK    5  A    between atoms: C_13  and  C_14
REMARK    6  A    between atoms: C_14  and  N_15
REMARK    7  A    between atoms: C_16  and  C_18
REMARK                            x       y       z     vdW  Elec       q    Type
REMARK                         _______ _______ _______ _____ _____    ______ ____
ROOT
ATOM      1  C   UNL     1      49.094   5.469  19.961  0.00  0.00    +0.000 A 
ATOM      2  C   UNL     1      47.816   5.868  19.577  0.00  0.00    +0.000 A 
ATOM      3  C   UNL     1      47.211   5.247  18.486  0.00  0.00    +0.000 A 
ATOM      4  C   UNL     1      47.897   4.253  17.786  0.00  0.00    +0.000 A 
ATOM      5  C   UNL     1      49.167   3.919  18.239  0.00  0.00    +0.000 A 
ATOM      6  N   UNL     1      49.782   4.505  19.295  0.00  0.00    +0.000 NA
ENDROOT
BRANCH   1   7
ATOM      7  C   UNL     1      49.778   6.126  21.139  0.00  0.00    +0.000 C 
BRANCH   7  10
ATOM      8  C   UNL     1      50.577   8.271  20.226  0.00  0.00    +0.000 C 
ATOM      9  O   UNL     1      51.322   7.700  19.432  0.00  0.00    +0.000 OA
ATOM     10  N   UNL     1      49.737   7.575  21.061  0.00  0.00    +0.000 N 
ATOM     11  H   UNL     1      49.248   8.049  21.807  0.00  0.00    +0.000 HD
BRANCH   8  15
ATOM     12  C   UNL     1      48.623  10.706  18.137  0.00  0.00    +0.000 C 
ATOM     13  C   UNL     1      48.081  10.039  19.407  0.00  0.00    +0.000 C 
ATOM     14  C   UNL     1      49.016  10.240  20.604  0.00  0.00    +0.000 C 
ATOM     15  C   UNL     1      50.461   9.801  20.310  0.00  0.00    +0.000 C 
ATOM     16  C   UNL     1      50.974  10.525  19.058  0.00  0.00    +0.000 C 
ATOM     17  C   UNL     1      50.069  10.295  17.848  0.00  0.00    +0.000 C 
BRANCH  12  18
ATOM     18  N   UNL     1      47.784  10.369  16.987  0.00  0.00    +0.000 NA
ATOM     19  H   UNL     1      47.163   9.600  17.232  0.00  0.00    +0.000 HD
ATOM     20  H   UNL     1      48.370  10.017  16.228  0.00  0.00    +0.000 HD
ENDBRANCH  12  18
ENDBRANCH   8  15
ENDBRANCH   7  10
ENDBRANCH   1   7
BRANCH   4  21
ATOM     21  C   UNL     1      47.278   3.552  16.614  0.00  0.00    +0.000 C 
BRANCH  21  22
ATOM     22  N   UNL     1      46.694   4.488  15.685  0.00  0.00    +0.000 N 
ATOM     23  C   UNL     1      46.778   4.281  14.331  0.00  0.00    +0.000 C 
ATOM     24  O   UNL     1      47.306   3.276  13.863  0.00  0.00    +0.000 OA
ATOM     25  H   UNL     1      46.475   5.417  16.033  0.00  0.00    +0.000 HD
BRANCH  23  26
ATOM     26  C   UNL     1      46.148   5.286  13.467  0.00  0.00    +0.000 A 
ATOM     27  C   UNL     1      46.830   6.460  13.172  0.00  0.00    +0.000 A 
ATOM     28  S   UNL     1      45.987   7.494  12.110  0.00  0.00    +0.000 S 
ATOM     29  C   UNL     1      44.657   6.436  12.049  0.00  0.00    +0.000 A 
ATOM     30  N   UNL     1      43.554   6.744  11.316  0.00  0.00    +0.000 NA
ATOM     31  C   UNL     1      42.604   5.872  11.389  0.00  0.00    +0.000 A 
ATOM     32  N   UNL     1      42.660   4.716  12.124  0.00  0.00    +0.000 N 
ATOM     33  C   UNL     1      43.768   4.347  12.852  0.00  0.00    +0.000 A 
ATOM     34  O   UNL     1      43.802   3.286  13.464  0.00  0.00    +0.000 OA
ATOM     35  C   UNL     1      44.858   5.301  12.814  0.00  0.00    +0.000 A 
ATOM     36  H   UNL     1      41.884   4.072  12.134  0.00  0.00    +0.000 HD
ENDBRANCH  23  26
ENDBRANCH  21  22
ENDBRANCH   4  21
TORSDOF 7
ENDMDL
MODEL 6
REMARK VINA RESULT:    -6.099      3.683      5.973
REMARK INTER + INTRA:          -9.396
REMARK INTER:                  -8.114
REMARK INTRA:                  -1.282
REMARK UNBOUND:                -0.980
REMARK  Name = 
REMARK  7 active torsions:
REMARK  status: ('A' for Active; 'I' for Inactive)
REMARK    1  A    between atoms: N_1  and  C_2
REMARK    2  A    between atoms: C_5  and  C_6
REMARK    3  A    between atoms: N_8  and  C_9
REMARK    4  A    between atoms: C_9  and  C_10
REMARK    5  A    between atoms: C_13  and  C_14
REMARK    6  A    between atoms: C_14  and  N_15
REMARK    7  A    between atoms: C_16  and  C_18
REMARK                            x       y       z     vdW  Elec       q    Type
REMARK                         _______ _______ _______ _____ _____    ______ ____
ROOT
ATOM      1  C   UNL     1      48.885   5.861  19.600  0.00  0.00    +0.000 A 
ATOM      2  C   UNL     1      47.520   5.858  19.322  0.00  0.00    +0.000 A 
ATOM      3  C   UNL     1      47.056   5.153  18.213  0.00  0.00    +0.000 A 
ATOM      4  C   UNL     1      47.961   4.481  17.390  0.00  0.00    +0.000 A 
ATOM      5  C   UNL     1      49.304   4.538  17.743  0.00  0.00    +0.000 A 
ATOM      6  N   UNL     1      49.785   5.215  18.815  0.00  0.00    +0.000 NA
ENDROOT
BRANCH   1   7
ATOM      7  C   UNL     1      49.419   6.618  20.795  0.00  0.00    +0.000 C 
BRANCH   7  10
ATOM      8  C   UNL     1      48.864   9.011  20.602  0.00  0.00    +0.000 C 
ATOM      9  O   UNL     1      47.756   8.835  21.105  0.00  0.00    +0.000 OA
ATOM     10  N   UNL     1      49.770   7.987  20.467  0.00  0.00    +0.000 N 
ATOM     11  H   UNL     1      50.608   8.114  19.917  0.00  0.00    +0.000 HD
BRANCH   8  15
ATOM     12  C   UNL     1      48.645  10.732  17.270  0.00  0.00    +0.000 C 
ATOM     13  C   UNL     1      47.587  10.863  18.372  0.00  0.00    +0.000 C 
ATOM     14  C   UNL     1      48.201  11.295  19.707  0.00  0.00    +0.000 C 
ATOM     15  C   UNL     1      49.365  10.391  20.148  0.00  0.00    +0.000 C 
ATOM     16  C   UNL     1      50.416  10.326  19.032  0.00  0.00    +0.000 C 
ATOM     17  C   UNL     1      49.821   9.853  17.706  0.00  0.00    +0.000 C 
BRANCH  12  18
ATOM     18  N   UNL     1      48.049  10.177  16.055  0.00  0.00    +0.000 NA
ATOM     19  H   UNL     1      48.756  10.117  15.324  0.00  0.00    +0.000 HD
ATOM     20  H   UNL     1      47.340  10.820  15.699  0.00  0.00    +0.000 HD
ENDBRANCH  12  18
ENDBRANCH   8  15
ENDBRANCH   7  10
ENDBRANCH   1   7
BRANCH   4  21
ATOM     21  C   UNL     1      47.503   3.702  16.193  0.00  0.00    +0.000 C 
BRANCH  21  22
ATOM     22  N   UNL     1      46.743   4.525  15.286  0.00  0.00    +0.000 N 
ATOM     23  C   UNL     1      46.506   4.118  13.997  0.00  0.00    +0.000 C 
ATOM     24  O   UNL     1      46.887   3.027  13.584  0.00  0.00    +0.000 OA
ATOM     25  H   UNL     1      46.632   5.507  15.525  0.00  0.00    +0.000 HD
BRANCH  23  26
ATOM     26  C   UNL     1      45.717   5.022  13.151  0.00  0.00    +0.000 A 
ATOM     27  C   UNL     1      44.625   4.525  12.449  0.00  0.00    +0.000 A 
ATOM     28  S   UNL     1      43.782   5.712  11.563  0.00  0.00    +0.000 S 
ATOM     29  C   UNL     1      44.877   6.924  12.040  0.00  0.00    +0.000 A 
ATOM     30  N   UNL     1      44.737   8.203  11.600  0.00  0.00    +0.000 NA
ATOM     31  C   UNL     1      45.659   9.010  12.008  0.00  0.00    +0.000 A 
ATOM     32  N   UNL     1      46.703   8.657  12.821  0.00  0.00    +0.000 N 
ATOM     33  C   UNL     1      46.865   7.384  13.318  0.00  0.00    +0.000 A 
ATOM     34  O   UNL     1      47.787   7.110  14.079  0.00  0.00    +0.000 OA
ATOM     35  C   UNL     1      45.864   6.434  12.878  0.00  0.00    +0.000 A 
ATOM     36  H   UNL     1      47.388   9.340  13.109  0.00  0.00    +0.000 HD
ENDBRANCH  23  26
ENDBRANCH  21  22
ENDBRANCH   4  21
TORSDOF 7
ENDMDL
MODEL 7
REMARK VINA RESULT:    -6.063      2.090      2.729
REMARK INTER + INTRA:          -9.346
REMARK INTER:                  -8.274
REMARK INTRA:                  -1.073
REMARK UNBOUND:                -0.980
REMARK  Name = 
REMARK  7 active torsions:
REMARK  status: ('A' for Active; 'I' for Inactive)
REMARK    1  A    between atoms: N_1  and  C_2
REMARK    2  A    between atoms: C_5  and  C_6
REMARK    3  A    between atoms: N_8  and  C_9
REMARK    4  A    between atoms: C_9  and  C_10
REMARK    5  A    between atoms: C_13  and  C_14
REMARK    6  A    between atoms: C_14  and  N_15
REMARK    7  A    between atoms: C_16  and  C_18
REMARK                            x       y       z     vdW  Elec       q    Type
REMARK                         _______ _______ _______ _____ _____    ______ ____
ROOT
ATOM      1  C   UNL     1      48.949   7.924  13.890  0.00  0.00    +0.000 A 
ATOM      2  C   UNL     1      48.490   6.609  13.875  0.00  0.00    +0.000 A 
ATOM      3  C   UNL     1      47.378   6.289  13.100  0.00  0.00    +0.000 A 
ATOM      4  C   UNL     1      46.731   7.286  12.369  0.00  0.00    +0.000 A 
ATOM      5  C   UNL     1      47.258   8.570  12.443  0.00  0.00    +0.000 A 
ATOM      6  N   UNL     1      48.337   8.912  13.188  0.00  0.00    +0.000 NA
ENDROOT
BRANCH   1   7
ATOM      7  C   UNL     1      50.153   8.304  14.723  0.00  0.00    +0.000 C 
BRANCH   7  10
ATOM      8  C   UNL     1      50.043   7.558  17.069  0.00  0.00    +0.000 C 
ATOM      9  O   UNL     1      49.361   8.529  17.387  0.00  0.00    +0.000 OA
ATOM     10  N   UNL     1      50.426   7.335  15.768  0.00  0.00    +0.000 N 
ATOM     11  H   UNL     1      51.109   6.623  15.551  0.00  0.00    +0.000 HD
BRANCH   8  15
ATOM     12  C   UNL     1      48.156   4.621  18.455  0.00  0.00    +0.000 C 
ATOM     13  C   UNL     1      49.012   4.566  17.184  0.00  0.00    +0.000 C 
ATOM     14  C   UNL     1      50.436   5.074  17.429  0.00  0.00    +0.000 C 
ATOM     15  C   UNL     1      50.467   6.472  18.070  0.00  0.00    +0.000 C 
ATOM     16  C   UNL     1      49.635   6.465  19.359  0.00  0.00    +0.000 C 
ATOM     17  C   UNL     1      48.199   6.001  19.115  0.00  0.00    +0.000 C 
BRANCH  12  18
ATOM     18  N   UNL     1      46.768   4.271  18.150  0.00  0.00    +0.000 NA
ATOM     19  H   UNL     1      46.161   5.057  18.377  0.00  0.00    +0.000 HD
ATOM     20  H   UNL     1      46.468   3.507  18.758  0.00  0.00    +0.000 HD
ENDBRANCH  12  18
ENDBRANCH   8  15
ENDBRANCH   7  10
ENDBRANCH   1   7
BRANCH   4  21
ATOM     21  C   UNL     1      45.537   6.982  11.514  0.00  0.00    +0.000 C 
BRANCH  21  22
ATOM     22  N   UNL     1      45.702   5.742  10.797  0.00  0.00    +0.000 N 
ATOM     23  C   UNL     1      44.612   5.016  10.388  0.00  0.00    +0.000 C 
ATOM     24  O   UNL     1      43.465   5.414  10.570  0.00  0.00    +0.000 OA
ATOM     25  H   UNL     1      46.610   5.287  10.849  0.00  0.00    +0.000 HD
BRANCH  23  26
ATOM     26  C   UNL     1      44.881   3.769   9.660  0.00  0.00    +0.000 A 
ATOM     27  C   UNL     1      44.212   2.606  10.023  0.00  0.00    +0.000 A 
ATOM     28  S   UNL     1      44.592   1.263   9.044  0.00  0.00    +0.000 S 
ATOM     29  C   UNL     1      45.705   2.173   8.134  0.00  0.00    +0.000 A 
ATOM     30  N   UNL     1      46.414   1.601   7.124  0.00  0.00    +0.000 NA
ATOM     31  C   UNL     1      47.250   2.395   6.543  0.00  0.00    +0.000 A 
ATOM     32  N   UNL     1      47.436   3.712   6.875  0.00  0.00    +0.000 N 
ATOM     33  C   UNL     1      46.718   4.341   7.865  0.00  0.00    +0.000 A 
ATOM     34  O   UNL     1      46.878   5.532   8.108  0.00  0.00    +0.000 OA
ATOM     35  C   UNL     1      45.774   3.488   8.559  0.00  0.00    +0.000 A 
ATOM     36  H   UNL     1      48.103   4.281   6.376  0.00  0.00    +0.000 HD
ENDBRANCH  23  26
ENDBRANCH  21  22
ENDBRANCH   4  21
TORSDOF 7
ENDMDL
MODEL 8
REMARK VINA RESULT:    -5.839      3.787      9.104
REMARK INTER + INTRA:          -9.038
REMARK INTER:                  -8.117
REMARK INTRA:                  -0.921
REMARK UNBOUND:                -0.980
REMARK  Name = 
REMARK  7 active torsions:
REMARK  status: ('A' for Active; 'I' for Inactive)
REMARK    1  A    between atoms: N_1  and  C_2
REMARK    2  A    between atoms: C_5  and  C_6
REMARK    3  A    between atoms: N_8  and  C_9
REMARK    4  A    between atoms: C_9  and  C_10
REMARK    5  A    between atoms: C_13  and  C_14
REMARK    6  A    between atoms: C_14  and  N_15
REMARK    7  A    between atoms: C_16  and  C_18
REMARK                            x       y       z     vdW  Elec       q    Type
REMARK                         _______ _______ _______ _____ _____    ______ ____
ROOT
ATOM      1  C   UNL     1      46.248   6.167  12.753  0.00  0.00    +0.000 A 
ATOM      2  C   UNL     1      47.600   5.848  12.854  0.00  0.00    +0.000 A 
ATOM      3  C   UNL     1      48.549   6.838  12.611  0.00  0.00    +0.000 A 
ATOM      4  C   UNL     1      48.136   8.123  12.254  0.00  0.00    +0.000 A 
ATOM      5  C   UNL     1      46.768   8.352  12.177  0.00  0.00    +0.000 A 
ATOM      6  N   UNL     1      45.821   7.409  12.407  0.00  0.00    +0.000 NA
ENDROOT
BRANCH   1   7
ATOM      7  C   UNL     1      45.193   5.114  13.008  0.00  0.00    +0.000 C 
BRANCH   7  10
ATOM      8  C   UNL     1      44.862   3.543  11.140  0.00  0.00    +0.000 C 
ATOM      9  O   UNL     1      45.672   2.749  11.612  0.00  0.00    +0.000 OA
ATOM     10  N   UNL     1      44.519   4.703  11.790  0.00  0.00    +0.000 N 
ATOM     11  H   UNL     1      43.973   5.411  11.321  0.00  0.00    +0.000 HD
BRANCH   8  15
ATOM     12  C   UNL     1      46.110   3.146   7.619  0.00  0.00    +0.000 C 
ATOM     13  C   UNL     1      45.932   1.981   8.600  0.00  0.00    +0.000 C 
ATOM     14  C   UNL     1      44.520   1.943   9.195  0.00  0.00    +0.000 C 
ATOM     15  C   UNL     1      44.105   3.282   9.827  0.00  0.00    +0.000 C 
ATOM     16  C   UNL     1      44.259   4.408   8.796  0.00  0.00    +0.000 C 
ATOM     17  C   UNL     1      45.677   4.481   8.230  0.00  0.00    +0.000 C 
BRANCH  12  18
ATOM     18  N   UNL     1      47.505   3.239   7.188  0.00  0.00    +0.000 NA
ATOM     19  H   UNL     1      47.565   3.064   6.186  0.00  0.00    +0.000 HD
ATOM     20  H   UNL     1      48.049   2.496   7.629  0.00  0.00    +0.000 HD
ENDBRANCH  12  18
ENDBRANCH   8  15
ENDBRANCH   7  10
ENDBRANCH   1   7
BRANCH   4  21
ATOM     21  C   UNL     1      49.125   9.220  11.995  0.00  0.00    +0.000 C 
BRANCH  21  22
ATOM     22  N   UNL     1      50.256   9.135  12.884  0.00  0.00    +0.000 N 
ATOM     23  C   UNL     1      51.462   8.647  12.446  0.00  0.00    +0.000 C 
ATOM     24  O   UNL     1      51.636   8.314  11.277  0.00  0.00    +0.000 OA
ATOM     25  H   UNL     1      50.071   9.174  13.883  0.00  0.00    +0.000 HD
BRANCH  23  26
ATOM     26  C   UNL     1      52.555   8.604  13.424  0.00  0.00    +0.000 A 
ATOM     27  C   UNL     1      53.792   9.143  13.093  0.00  0.00    +0.000 A 
ATOM     28  S   UNL     1      54.934   9.067  14.357  0.00  0.00    +0.000 S 
ATOM     29  C   UNL     1      53.834   8.262  15.375  0.00  0.00    +0.000 A 
ATOM     30  N   UNL     1      54.196   7.878  16.628  0.00  0.00    +0.000 NA
ATOM     31  C   UNL     1      53.277   7.243  17.277  0.00  0.00    +0.000 A 
ATOM     32  N   UNL     1      52.027   6.964  16.789  0.00  0.00    +0.000 N 
ATOM     33  C   UNL     1      51.606   7.363  15.541  0.00  0.00    +0.000 A 
ATOM     34  O   UNL     1      50.466   7.135  15.152  0.00  0.00    +0.000 OA
ATOM     35  C   UNL     1      52.606   8.068  14.766  0.00  0.00    +0.000 A 
ATOM     36  H   UNL     1      51.352   6.468  17.352  0.00  0.00    +0.000 HD
ENDBRANCH  23  26
ENDBRANCH  21  22
ENDBRANCH   4  21
TORSDOF 7
ENDMDL
MODEL 9
REMARK VINA RESULT:    -5.814      2.574      3.051
REMARK INTER + INTRA:          -9.003
REMARK INTER:                  -7.971
REMARK INTRA:                  -1.033
REMARK UNBOUND:                -0.980
REMARK  Name = 
REMARK  7 active torsions:
REMARK  status: ('A' for Active; 'I' for Inactive)
REMARK    1  A    between atoms: N_1  and  C_2
REMARK    2  A    between atoms: C_5  and  C_6
REMARK    3  A    between atoms: N_8  and  C_9
REMARK    4  A    between atoms: C_9  and  C_10
REMARK    5  A    between atoms: C_13  and  C_14
REMARK    6  A    between atoms: C_14  and  N_15
REMARK    7  A    between atoms: C_16  and  C_18
REMARK                            x       y       z     vdW  Elec       q    Type
REMARK                         _______ _______ _______ _____ _____    ______ ____
ROOT
ATOM      1  C   UNL     1      51.616   7.503  15.469  0.00  0.00    +0.000 A 
ATOM      2  C   UNL     1      52.261   8.195  14.447  0.00  0.00    +0.000 A 
ATOM      3  C   UNL     1      51.542   8.545  13.306  0.00  0.00    +0.000 A 
ATOM      4  C   UNL     1      50.199   8.183  13.195  0.00  0.00    +0.000 A 
ATOM      5  C   UNL     1      49.636   7.493  14.263  0.00  0.00    +0.000 A 
ATOM      6  N   UNL     1      50.310   7.139  15.384  0.00  0.00    +0.000 NA
ENDROOT
BRANCH   1   7
ATOM      7  C   UNL     1      52.370   7.107  16.718  0.00  0.00    +0.000 C 
BRANCH   7  10
ATOM      8  C   UNL     1      51.304   6.121  18.709  0.00  0.00    +0.000 C 
ATOM      9  O   UNL     1      51.847   5.036  18.511  0.00  0.00    +0.000 OA
ATOM     10  N   UNL     1      51.552   7.212  17.912  0.00  0.00    +0.000 N 
ATOM     11  H   UNL     1      50.987   8.045  17.994  0.00  0.00    +0.000 HD
BRANCH   8  15
ATOM     12  C   UNL     1      47.629   5.461  19.124  0.00  0.00    +0.000 C 
ATOM     13  C   UNL     1      48.727   4.457  19.496  0.00  0.00    +0.000 C 
ATOM     14  C   UNL     1      49.768   5.069  20.438  0.00  0.00    +0.000 C 
ATOM     15  C   UNL     1      50.364   6.379  19.896  0.00  0.00    +0.000 C 
ATOM     16  C   UNL     1      49.232   7.366  19.580  0.00  0.00    +0.000 C 
ATOM     17  C   UNL     1      48.211   6.779  18.606  0.00  0.00    +0.000 C 
BRANCH  12  18
ATOM     18  N   UNL     1      46.740   4.892  18.111  0.00  0.00    +0.000 NA
ATOM     19  H   UNL     1      47.201   4.107  17.655  0.00  0.00    +0.000 HD
ATOM     20  H   UNL     1      46.578   5.581  17.374  0.00  0.00    +0.000 HD
ENDBRANCH  12  18
ENDBRANCH   8  15
ENDBRANCH   7  10
ENDBRANCH   1   7
BRANCH   4  21
ATOM     21  C   UNL     1      49.385   8.549  11.990  0.00  0.00    +0.000 C 
BRANCH  21  22
ATOM     22  N   UNL     1      48.245   7.680  11.837  0.00  0.00    +0.000 N 
ATOM     23  C   UNL     1      46.997   8.078  12.250  0.00  0.00    +0.000 C 
ATOM     24  O   UNL     1      46.798   9.196  12.716  0.00  0.00    +0.000 OA
ATOM     25  H   UNL     1      48.426   6.692  11.684  0.00  0.00    +0.000 HD
BRANCH  23  26
ATOM     26  C   UNL     1      45.898   7.126  12.047  0.00  0.00    +0.000 A 
ATOM     27  C   UNL     1      44.718   7.559  11.454  0.00  0.00    +0.000 A 
ATOM     28  S   UNL     1      43.566   6.321  11.237  0.00  0.00    +0.000 S 
ATOM     29  C   UNL     1      44.580   5.173  11.978  0.00  0.00    +0.000 A 
ATOM     30  N   UNL     1      44.175   3.885  12.138  0.00  0.00    +0.000 NA
ATOM     31  C   UNL     1      45.026   3.131  12.750  0.00  0.00    +0.000 A 
ATOM     32  N   UNL     1      46.248   3.546  13.210  0.00  0.00    +0.000 N 
ATOM     33  C   UNL     1      46.713   4.830  13.041  0.00  0.00    +0.000 A 
ATOM     34  O   UNL     1      47.830   5.158  13.426  0.00  0.00    +0.000 OA
ATOM     35  C   UNL     1      45.788   5.722  12.371  0.00  0.00    +0.000 A 
ATOM     36  H   UNL     1      46.871   2.903  13.676  0.00  0.00    +0.000 HD
ENDBRANCH  23  26
ENDBRANCH  21  22
ENDBRANCH   4  21
TORSDOF 7
ENDMDL
