MODEL 1
REMARK VINA RESULT:    -8.293      0.000      0.000
REMARK INTER + INTRA:         -10.739
REMARK INTER:                 -10.232
REMARK INTRA:                  -0.507
REMARK UNBOUND:                -0.507
REMARK  Name = 
REMARK  4 active torsions:
REMARK  status: ('A' for Active; 'I' for Inactive)
REMARK    1  A    between atoms: C_2  and  C_4
REMARK    2  A    between atoms: C_7  and  N_8
REMARK    3  A    between atoms: N_8  and  C_9
REMARK    4  A    between atoms: C_9  and  C_10
REMARK                            x       y       z     vdW  Elec       q    Type
REMARK                         _______ _______ _______ _____ _____    ______ ____
ROOT
ATOM      1  C   UNL     1      46.566   2.704   7.482  0.00  0.00    +0.000 A 
ATOM      2  C   UNL     1      46.103   4.020   7.596  0.00  0.00    +0.000 A 
ATOM      3  C   UNL     1      45.143   4.348   8.563  0.00  0.00    +0.000 A 
ATOM      4  C   UNL     1      44.640   3.373   9.430  0.00  0.00    +0.000 A 
ATOM      5  C   UNL     1      45.128   2.064   9.320  0.00  0.00    +0.000 A 
ATOM      6  C   UNL     1      46.065   1.723   8.342  0.00  0.00    +0.000 A 
ENDROOT
BRANCH   1   8
ATOM      7  N   UNL     1      47.538   2.967   5.263  0.00  0.00    +0.000 N 
ATOM      8  C   UNL     1      47.559   2.296   6.455  0.00  0.00    +0.000 C 
ATOM      9  O   UNL     1      48.394   1.428   6.673  0.00  0.00    +0.000 OA
ATOM     10  H   UNL     1      48.293   2.756   4.623  0.00  0.00    +0.000 HD
ATOM     11  H   UNL     1      47.055   3.844   5.148  0.00  0.00    +0.000 HD
ENDBRANCH   1   8
BRANCH   4  12
ATOM     12  N   UNL     1      43.697   3.638  10.440  0.00  0.00    +0.000 N 
ATOM     13  H   UNL     1      43.426   2.783  10.916  0.00  0.00    +0.000 HD
BRANCH  12  14
ATOM     14  C   UNL     1      43.730   4.855  11.263  0.00  0.00    +0.000 C 
ATOM     15  C   UNL     1      42.439   5.241  11.974  0.00  0.00    +0.000 C 
ATOM     16  O   UNL     1      42.892   5.934  10.813  0.00  0.00    +0.000 OA
BRANCH  14  17
ATOM     17  C   UNL     1      45.027   5.205  11.967  0.00  0.00    +0.000 A 
ATOM     18  C   UNL     1      45.788   6.327  11.592  0.00  0.00    +0.000 A 
ATOM     19  C   UNL     1      46.937   6.702  12.294  0.00  0.00    +0.000 A 
ATOM     20  C   UNL     1      47.357   5.954  13.389  0.00  0.00    +0.000 A 
ATOM     21  C   UNL     1      46.636   4.826  13.773  0.00  0.00    +0.000 A 
ATOM     22  C   UNL     1      45.485   4.458  13.068  0.00  0.00    +0.000 A 
ENDBRANCH  14  17
ENDBRANCH  12  14
ENDBRANCH   4  12
TORSDOF 4
ENDMDL
MODEL 2
REMARK VINA RESULT:    -8.042      1.239      1.685
REMARK INTER + INTRA:         -10.429
REMARK INTER:                 -10.194
REMARK INTRA:                  -0.235
REMARK UNBOUND:                -0.507
REMARK  Name = 
REMARK  4 active torsions:
REMARK  status: ('A' for Active; 'I' for Inactive)
REMARK    1  A    between atoms: C_2  and  C_4
REMARK    2  A    between atoms: C_7  and  N_8
REMARK    3  A    between atoms: N_8  and  C_9
REMARK    4  A    between atoms: C_9  and  C_10
REMARK                            x       y       z     vdW  Elec       q    Type
REMARK                         _______ _______ _______ _____ _____    ______ ____
ROOT
ATOM      1  C   UNL     1      46.217   2.103   8.072  0.00  0.00    +0.000 A 
ATOM      2  C   UNL     1      46.388   3.457   7.765  0.00  0.00    +0.000 A 
ATOM      3  C   UNL     1      45.553   4.423   8.347  0.00  0.00    +0.000 A 
ATOM      4  C   UNL     1      44.547   4.050   9.244  0.00  0.00    +0.000 A 
ATOM      5  C   UNL     1      44.401   2.692   9.559  0.00  0.00    +0.000 A 
ATOM      6  C   UNL     1      45.211   1.722   8.965  0.00  0.00    +0.000 A 
ENDROOT
BRANCH   1   8
ATOM      7  N   UNL     1      46.722  -0.260   7.753  0.00  0.00    +0.000 N 
ATOM      8  C   UNL     1      47.052   1.036   7.461  0.00  0.00    +0.000 C 
ATOM      9  O   UNL     1      47.969   1.294   6.695  0.00  0.00    +0.000 OA
ATOM     10  H   UNL     1      47.227  -0.971   7.239  0.00  0.00    +0.000 HD
ATOM     11  H   UNL     1      45.833  -0.512   8.155  0.00  0.00    +0.000 HD
ENDBRANCH   1   8
BRANCH   4  12
ATOM     12  N   UNL     1      43.694   4.967   9.885  0.00  0.00    +0.000 N 
ATOM     13  H   UNL     1      42.757   4.923   9.496  0.00  0.00    +0.000 HD
BRANCH  12  14
ATOM     14  C   UNL     1      43.787   5.276  11.318  0.00  0.00    +0.000 C 
ATOM     15  C   UNL     1      42.849   4.517  12.249  0.00  0.00    +0.000 C 
ATOM     16  O   UNL     1      42.620   5.882  11.902  0.00  0.00    +0.000 OA
BRANCH  14  17
ATOM     17  C   UNL     1      45.144   5.655  11.879  0.00  0.00    +0.000 A 
ATOM     18  C   UNL     1      45.778   4.874  12.863  0.00  0.00    +0.000 A 
ATOM     19  C   UNL     1      47.064   5.171  13.320  0.00  0.00    +0.000 A 
ATOM     20  C   UNL     1      47.748   6.268  12.804  0.00  0.00    +0.000 A 
ATOM     21  C   UNL     1      47.139   7.072  11.844  0.00  0.00    +0.000 A 
ATOM     22  C   UNL     1      45.853   6.767  11.389  0.00  0.00    +0.000 A 
ENDBRANCH  14  17
ENDBRANCH  12  14
ENDBRANCH   4  12
TORSDOF 4
ENDMDL
MODEL 3
REMARK VINA RESULT:    -6.512      3.078      6.566
REMARK INTER + INTRA:          -8.541
REMARK INTER:                  -8.365
REMARK INTRA:                  -0.176
REMARK UNBOUND:                -0.507
REMARK  Name = 
REMARK  4 active torsions:
REMARK  status: ('A' for Active; 'I' for Inactive)
REMARK    1  A    between atoms: C_2  and  C_4
REMARK    2  A    between atoms: C_7  and  N_8
REMARK    3  A    between atoms: N_8  and  C_9
REMARK    4  A    between atoms: C_9  and  C_10
REMARK                            x       y       z     vdW  Elec       q    Type
REMARK                         _______ _______ _______ _____ _____    ______ ____
ROOT
ATOM      1  C   UNL     1      47.298   8.296  13.353  0.00  0.00    +0.000 A 
ATOM      2  C   UNL     1      47.780   7.205  12.622  0.00  0.00    +0.000 A 
ATOM      3  C   UNL     1      46.938   6.529  11.727  0.00  0.00    +0.000 A 
ATOM      4  C   UNL     1      45.613   6.938  11.546  0.00  0.00    +0.000 A 
ATOM      5  C   UNL     1      45.150   8.047  12.268  0.00  0.00    +0.000 A 
ATOM      6  C   UNL     1      45.974   8.709  13.180  0.00  0.00    +0.000 A 
ENDROOT
BRANCH   1   8
ATOM      7  N   UNL     1      47.621   9.203  15.593  0.00  0.00    +0.000 N 
ATOM      8  C   UNL     1      48.138   9.028  14.337  0.00  0.00    +0.000 C 
ATOM      9  O   UNL     1      49.262   9.423  14.060  0.00  0.00    +0.000 OA
ATOM     10  H   UNL     1      48.250   9.599  16.279  0.00  0.00    +0.000 HD
ATOM     11  H   UNL     1      46.831   8.672  15.928  0.00  0.00    +0.000 HD
ENDBRANCH   1   8
BRANCH   4  12
ATOM     12  N   UNL     1      44.723   6.325  10.645  0.00  0.00    +0.000 N 
ATOM     13  H   UNL     1      44.781   6.757   9.728  0.00  0.00    +0.000 HD
BRANCH  12  14
ATOM     14  C   UNL     1      44.432   4.885  10.666  0.00  0.00    +0.000 C 
ATOM     15  C   UNL     1      43.037   4.470  11.114  0.00  0.00    +0.000 C 
ATOM     16  O   UNL     1      44.174   4.320  11.963  0.00  0.00    +0.000 OA
BRANCH  14  17
ATOM     17  C   UNL     1      45.103   4.007   9.626  0.00  0.00    +0.000 A 
ATOM     18  C   UNL     1      45.046   2.603   9.702  0.00  0.00    +0.000 A 
ATOM     19  C   UNL     1      45.588   1.792   8.702  0.00  0.00    +0.000 A 
ATOM     20  C   UNL     1      46.210   2.370   7.600  0.00  0.00    +0.000 A 
ATOM     21  C   UNL     1      46.300   3.756   7.506  0.00  0.00    +0.000 A 
ATOM     22  C   UNL     1      45.753   4.562   8.509  0.00  0.00    +0.000 A 
ENDBRANCH  14  17
ENDBRANCH  12  14
ENDBRANCH   4  12
TORSDOF 4
ENDMDL
MODEL 4
REMARK VINA RESULT:    -6.357      2.956      5.899
REMARK INTER + INTRA:          -8.350
REMARK INTER:                  -8.130
REMARK INTRA:                  -0.220
REMARK UNBOUND:                -0.507
REMARK  Name = 
REMARK  4 active torsions:
REMARK  status: ('A' for Active; 'I' for Inactive)
REMARK    1  A    between atoms: C_2  and  C_4
REMARK    2  A    between atoms: C_7  and  N_8
REMARK    3  A    between atoms: N_8  and  C_9
REMARK    4  A    between atoms: C_9  and  C_10
REMARK                            x       y       z     vdW  Elec       q    Type
REMARK                         _______ _______ _______ _____ _____    ______ ____
ROOT
ATOM      1  C   UNL     1      48.259   6.747  13.114  0.00  0.00    +0.000 A 
ATOM      2  C   UNL     1      47.557   5.733  13.774  0.00  0.00    +0.000 A 
ATOM      3  C   UNL     1      46.351   5.252  13.247  0.00  0.00    +0.000 A 
ATOM      4  C   UNL     1      45.836   5.770  12.054  0.00  0.00    +0.000 A 
ATOM      5  C   UNL     1      46.560   6.770  11.391  0.00  0.00    +0.000 A 
ATOM      6  C   UNL     1      47.749   7.273  11.923  0.00  0.00    +0.000 A 
ENDROOT
BRANCH   1   8
ATOM      7  N   UNL     1      50.507   7.610  12.737  0.00  0.00    +0.000 N 
ATOM      8  C   UNL     1      49.526   7.315  13.645  0.00  0.00    +0.000 C 
ATOM      9  O   UNL     1      49.678   7.553  14.835  0.00  0.00    +0.000 OA
ATOM     10  H   UNL     1      51.313   8.101  13.102  0.00  0.00    +0.000 HD
ATOM     11  H   UNL     1      50.323   7.676  11.748  0.00  0.00    +0.000 HD
ENDBRANCH   1   8
BRANCH   4  12
ATOM     12  N   UNL     1      44.647   5.314  11.454  0.00  0.00    +0.000 N 
ATOM     13  H   UNL     1      44.245   6.031  10.858  0.00  0.00    +0.000 HD
BRANCH  12  14
ATOM     14  C   UNL     1      44.455   3.925  11.017  0.00  0.00    +0.000 C 
ATOM     15  C   UNL     1      43.141   3.257  11.404  0.00  0.00    +0.000 C 
ATOM     16  O   UNL     1      44.365   2.948  12.069  0.00  0.00    +0.000 OA
BRANCH  14  17
ATOM     17  C   UNL     1      45.075   3.499   9.700  0.00  0.00    +0.000 A 
ATOM     18  C   UNL     1      45.496   4.444   8.746  0.00  0.00    +0.000 A 
ATOM     19  C   UNL     1      46.146   4.060   7.570  0.00  0.00    +0.000 A 
ATOM     20  C   UNL     1      46.383   2.712   7.317  0.00  0.00    +0.000 A 
ATOM     21  C   UNL     1      45.960   1.752   8.232  0.00  0.00    +0.000 A 
ATOM     22  C   UNL     1      45.313   2.144   9.408  0.00  0.00    +0.000 A 
ENDBRANCH  14  17
ENDBRANCH  12  14
ENDBRANCH   4  12
TORSDOF 4
ENDMDL
MODEL 5
REMARK VINA RESULT:    -5.984      2.516      6.325
REMARK INTER + INTRA:          -7.889
REMARK INTER:                  -7.720
REMARK INTRA:                  -0.170
REMARK UNBOUND:                -0.507
REMARK  Name = 
REMARK  4 active torsions:
REMARK  status: ('A' for Active; 'I' for Inactive)
REMARK    1  A    between atoms: C_2  and  C_4
REMARK    2  A    between atoms: C_7  and  N_8
REMARK    3  A    between atoms: N_8  and  C_9
REMARK    4  A    between atoms: C_9  and  C_10
REMARK                            x       y       z     vdW  Elec       q    Type
REMARK                         _______ _______ _______ _____ _____    ______ ____
ROOT
ATOM      1  C   UNL     1      46.146   6.832  12.471  0.00  0.00    +0.000 A 
ATOM      2  C   UNL     1      45.039   6.026  12.761  0.00  0.00    +0.000 A 
ATOM      3  C   UNL     1      44.473   5.220  11.763  0.00  0.00    +0.000 A 
ATOM      4  C   UNL     1      45.006   5.204  10.471  0.00  0.00    +0.000 A 
ATOM      5  C   UNL     1      46.128   5.999  10.199  0.00  0.00    +0.000 A 
ATOM      6  C   UNL     1      46.682   6.823  11.180  0.00  0.00    +0.000 A 
ENDROOT
BRANCH   1   8
ATOM      7  N   UNL     1      46.228   8.979  13.622  0.00  0.00    +0.000 N 
ATOM      8  C   UNL     1      46.765   7.727  13.482  0.00  0.00    +0.000 C 
ATOM      9  O   UNL     1      47.688   7.356  14.194  0.00  0.00    +0.000 OA
ATOM     10  H   UNL     1      46.586   9.530  14.392  0.00  0.00    +0.000 HD
ATOM     11  H   UNL     1      45.322   9.220  13.251  0.00  0.00    +0.000 HD
ENDBRANCH   1   8
BRANCH   4  12
ATOM     12  N   UNL     1      44.506   4.399   9.430  0.00  0.00    +0.000 N 
ATOM     13  H   UNL     1      44.285   4.959   8.613  0.00  0.00    +0.000 HD
BRANCH  12  14
ATOM     14  C   UNL     1      44.994   3.037   9.170  0.00  0.00    +0.000 C 
ATOM     15  C   UNL     1      44.028   1.894   9.455  0.00  0.00    +0.000 C 
ATOM     16  O   UNL     1      45.120   2.189  10.324  0.00  0.00    +0.000 OA
BRANCH  14  17
ATOM     17  C   UNL     1      45.970   2.836   8.027  0.00  0.00    +0.000 A 
ATOM     18  C   UNL     1      46.653   1.618   7.848  0.00  0.00    +0.000 A 
ATOM     19  C   UNL     1      47.486   1.399   6.748  0.00  0.00    +0.000 A 
ATOM     20  C   UNL     1      47.663   2.401   5.800  0.00  0.00    +0.000 A 
ATOM     21  C   UNL     1      47.017   3.624   5.959  0.00  0.00    +0.000 A 
ATOM     22  C   UNL     1      46.181   3.836   7.061  0.00  0.00    +0.000 A 
ENDBRANCH  14  17
ENDBRANCH  12  14
ENDBRANCH   4  12
TORSDOF 4
ENDMDL
MODEL 6
REMARK VINA RESULT:    -5.969      3.540      6.876
REMARK INTER + INTRA:          -7.871
REMARK INTER:                  -7.531
REMARK INTRA:                  -0.340
REMARK UNBOUND:                -0.507
REMARK  Name = 
REMARK  4 active torsions:
REMARK  status: ('A' for Active; 'I' for Inactive)
REMARK    1  A    between atoms: C_2  and  C_4
REMARK    2  A    between atoms: C_7  and  N_8
REMARK    3  A    between atoms: N_8  and  C_9
REMARK    4  A    between atoms: C_9  and  C_10
REMARK                            x       y       z     vdW  Elec       q    Type
REMARK                         _______ _______ _______ _____ _____    ______ ____
ROOT
ATOM      1  C   UNL     1      47.943   4.846  16.027  0.00  0.00    +0.000 A 
ATOM      2  C   UNL     1      47.149   4.021  15.223  0.00  0.00    +0.000 A 
ATOM      3  C   UNL     1      46.787   4.432  13.932  0.00  0.00    +0.000 A 
ATOM      4  C   UNL     1      47.217   5.664  13.428  0.00  0.00    +0.000 A 
ATOM      5  C   UNL     1      48.031   6.470  14.236  0.00  0.00    +0.000 A 
ATOM      6  C   UNL     1      48.374   6.080  15.532  0.00  0.00    +0.000 A 
ENDROOT
BRANCH   1   8
ATOM      7  N   UNL     1      47.345   4.489  18.363  0.00  0.00    +0.000 N 
ATOM      8  C   UNL     1      48.330   4.473  17.412  0.00  0.00    +0.000 C 
ATOM      9  O   UNL     1      49.467   4.121  17.693  0.00  0.00    +0.000 OA
ATOM     10  H   UNL     1      47.600   4.122  19.271  0.00  0.00    +0.000 HD
ATOM     11  H   UNL     1      46.366   4.514  18.123  0.00  0.00    +0.000 HD
ENDBRANCH   1   8
BRANCH   4  12
ATOM     12  N   UNL     1      46.916   6.126  12.133  0.00  0.00    +0.000 N 
ATOM     13  H   UNL     1      47.667   5.908  11.487  0.00  0.00    +0.000 HD
BRANCH  12  14
ATOM     14  C   UNL     1      45.556   6.109  11.577  0.00  0.00    +0.000 C 
ATOM     15  C   UNL     1      44.867   7.456  11.400  0.00  0.00    +0.000 C 
ATOM     16  O   UNL     1      44.516   6.567  12.458  0.00  0.00    +0.000 OA
BRANCH  14  17
ATOM     17  C   UNL     1      45.212   5.030  10.568  0.00  0.00    +0.000 A 
ATOM     18  C   UNL     1      45.688   5.081   9.245  0.00  0.00    +0.000 A 
ATOM     19  C   UNL     1      45.445   4.047   8.337  0.00  0.00    +0.000 A 
ATOM     20  C   UNL     1      44.710   2.934   8.733  0.00  0.00    +0.000 A 
ATOM     21  C   UNL     1      44.209   2.863  10.030  0.00  0.00    +0.000 A 
ATOM     22  C   UNL     1      44.458   3.901  10.934  0.00  0.00    +0.000 A 
ENDBRANCH  14  17
ENDBRANCH  12  14
ENDBRANCH   4  12
TORSDOF 4
ENDMDL
MODEL 7
REMARK VINA RESULT:    -5.931      3.295      5.881
REMARK INTER + INTRA:          -7.824
REMARK INTER:                  -7.748
REMARK INTRA:                  -0.076
REMARK UNBOUND:                -0.507
REMARK  Name = 
REMARK  4 active torsions:
REMARK  status: ('A' for Active; 'I' for Inactive)
REMARK    1  A    between atoms: C_2  and  C_4
REMARK    2  A    between atoms: C_7  and  N_8
REMARK    3  A    between atoms: N_8  and  C_9
REMARK    4  A    between atoms: C_9  and  C_10
REMARK                            x       y       z     vdW  Elec       q    Type
REMARK                         _______ _______ _______ _____ _____    ______ ____
ROOT
ATOM      1  C   UNL     1      47.727   8.439  12.346  0.00  0.00    +0.000 A 
ATOM      2  C   UNL     1      46.347   8.549  12.549  0.00  0.00    +0.000 A 
ATOM      3  C   UNL     1      45.589   7.414  12.872  0.00  0.00    +0.000 A 
ATOM      4  C   UNL     1      46.198   6.162  13.003  0.00  0.00    +0.000 A 
ATOM      5  C   UNL     1      47.585   6.070  12.819  0.00  0.00    +0.000 A 
ATOM      6  C   UNL     1      48.343   7.190  12.472  0.00  0.00    +0.000 A 
ENDROOT
BRANCH   1   8
ATOM      7  N   UNL     1      49.901   9.539  12.296  0.00  0.00    +0.000 N 
ATOM      8  C   UNL     1      48.572   9.602  11.973  0.00  0.00    +0.000 C 
ATOM      9  O   UNL     1      48.119  10.561  11.363  0.00  0.00    +0.000 OA
ATOM     10  H   UNL     1      50.480  10.285  11.932  0.00  0.00    +0.000 HD
ATOM     11  H   UNL     1      50.352   8.675  12.552  0.00  0.00    +0.000 HD
ENDBRANCH   1   8
BRANCH   4  12
ATOM     12  N   UNL     1      45.504   4.989  13.352  0.00  0.00    +0.000 N 
ATOM     13  H   UNL     1      45.441   4.892  14.361  0.00  0.00    +0.000 HD
BRANCH  12  14
ATOM     14  C   UNL     1      44.365   4.476  12.579  0.00  0.00    +0.000 C 
ATOM     15  C   UNL     1      42.986   5.008  12.949  0.00  0.00    +0.000 C 
ATOM     16  O   UNL     1      43.409   3.697  13.320  0.00  0.00    +0.000 OA
BRANCH  14  17
ATOM     17  C   UNL     1      44.592   4.126  11.121  0.00  0.00    +0.000 A 
ATOM     18  C   UNL     1      45.195   5.034  10.232  0.00  0.00    +0.000 A 
ATOM     19  C   UNL     1      45.485   4.686   8.910  0.00  0.00    +0.000 A 
ATOM     20  C   UNL     1      45.169   3.414   8.443  0.00  0.00    +0.000 A 
ATOM     21  C   UNL     1      44.553   2.499   9.293  0.00  0.00    +0.000 A 
ATOM     22  C   UNL     1      44.268   2.854  10.615  0.00  0.00    +0.000 A 
ENDBRANCH  14  17
ENDBRANCH  12  14
ENDBRANCH   4  12
TORSDOF 4
ENDMDL
MODEL 8
REMARK VINA RESULT:    -5.775      3.115      4.850
REMARK INTER + INTRA:          -7.632
REMARK INTER:                  -7.628
REMARK INTRA:                  -0.004
REMARK UNBOUND:                -0.507
REMARK  Name = 
REMARK  4 active torsions:
REMARK  status: ('A' for Active; 'I' for Inactive)
REMARK    1  A    between atoms: C_2  and  C_4
REMARK    2  A    between atoms: C_7  and  N_8
REMARK    3  A    between atoms: N_8  and  C_9
REMARK    4  A    between atoms: C_9  and  C_10
REMARK                            x       y       z     vdW  Elec       q    Type
REMARK                         _______ _______ _______ _____ _____    ______ ____
ROOT
ATOM      1  C   UNL     1      44.950   3.764  10.424  0.00  0.00    +0.000 A 
ATOM      2  C   UNL     1      44.986   3.161  11.686  0.00  0.00    +0.000 A 
ATOM      3  C   UNL     1      45.439   3.883  12.799  0.00  0.00    +0.000 A 
ATOM      4  C   UNL     1      45.853   5.212  12.669  0.00  0.00    +0.000 A 
ATOM      5  C   UNL     1      45.790   5.811  11.403  0.00  0.00    +0.000 A 
ATOM      6  C   UNL     1      45.365   5.091  10.285  0.00  0.00    +0.000 A 
ENDROOT
BRANCH   1   8
ATOM      7  N   UNL     1      44.185   3.790   8.110  0.00  0.00    +0.000 N 
ATOM      8  C   UNL     1      44.509   3.036   9.206  0.00  0.00    +0.000 C 
ATOM      9  O   UNL     1      44.475   1.815   9.160  0.00  0.00    +0.000 OA
ATOM     10  H   UNL     1      43.999   3.275   7.259  0.00  0.00    +0.000 HD
ATOM     11  H   UNL     1      44.450   4.759   8.026  0.00  0.00    +0.000 HD
ENDBRANCH   1   8
BRANCH   4  12
ATOM     12  N   UNL     1      46.291   6.003  13.747  0.00  0.00    +0.000 N 
ATOM     13  H   UNL     1      45.544   6.143  14.421  0.00  0.00    +0.000 HD
BRANCH  12  14
ATOM     14  C   UNL     1      47.652   5.922  14.295  0.00  0.00    +0.000 C 
ATOM     15  C   UNL     1      48.562   7.120  14.060  0.00  0.00    +0.000 C 
ATOM     16  O   UNL     1      48.714   5.906  13.326  0.00  0.00    +0.000 OA
BRANCH  14  17
ATOM     17  C   UNL     1      47.855   5.155  15.588  0.00  0.00    +0.000 A 
ATOM     18  C   UNL     1      47.491   3.801  15.705  0.00  0.00    +0.000 A 
ATOM     19  C   UNL     1      47.756   3.067  16.865  0.00  0.00    +0.000 A 
ATOM     20  C   UNL     1      48.387   3.678  17.944  0.00  0.00    +0.000 A 
ATOM     21  C   UNL     1      48.741   5.023  17.866  0.00  0.00    +0.000 A 
ATOM     22  C   UNL     1      48.476   5.750  16.701  0.00  0.00    +0.000 A 
ENDBRANCH  14  17
ENDBRANCH  12  14
ENDBRANCH   4  12
TORSDOF 4
ENDMDL
