MODEL 1
REMARK VINA RESULT:    -8.680      0.000      0.000
REMARK INTER + INTRA:         -13.984
REMARK INTER:                 -12.740
REMARK INTRA:                  -1.244
REMARK UNBOUND:                -1.244
REMARK  Name = 
REMARK  8 active torsions:
REMARK  status: ('A' for Active; 'I' for Inactive)
REMARK    1  A    between atoms: C_2  and  C_3
REMARK    2  A    between atoms: C_3  and  N_4
REMARK    3  A    between atoms: C_5  and  C_7
REMARK    4  A    between atoms: N_17  and  C_18
REMARK    5  A    between atoms: C_18  and  C_19
REMARK    6  A    between atoms: C_22  and  C_23
REMARK    7  A    between atoms: C_23  and  N_24
REMARK    8  A    between atoms: C_25  and  C_27
REMARK                            x       y       z     vdW  Elec       q    Type
REMARK                         _______ _______ _______ _____ _____    ______ ____
ROOT
ATOM      1  O   UNL     1      46.743   4.838  17.835  0.00  0.00    +0.000 OA
ATOM      2  C   UNL     1      47.282   3.985  17.134  0.00  0.00    +0.000 C 
ATOM      3  N   UNL     1      47.593   4.184  15.810  0.00  0.00    +0.000 N 
ATOM      4  H   UNL     1      48.177   3.503  15.331  0.00  0.00    +0.000 HD
ENDROOT
BRANCH   2   5
ATOM      5  C   UNL     1      47.712   2.623  17.691  0.00  0.00    +0.000 C 
BRANCH   5   6
ATOM      6  N   UNL     1      49.128   2.586  17.994  0.00  0.00    +0.000 N 
ATOM      7  C   UNL     1      50.042   2.094  17.100  0.00  0.00    +0.000 C 
ATOM      8  O   UNL     1      49.699   1.702  15.986  0.00  0.00    +0.000 OA
ATOM      9  H   UNL     1      49.414   2.829  18.938  0.00  0.00    +0.000 HD
BRANCH   7  10
ATOM     10  C   UNL     1      51.452   2.118  17.509  0.00  0.00    +0.000 A 
ATOM     11  C   UNL     1      52.143   0.922  17.647  0.00  0.00    +0.000 A 
ATOM     12  S   UNL     1      53.772   1.121  18.108  0.00  0.00    +0.000 S 
ATOM     13  C   UNL     1      53.601   2.812  18.189  0.00  0.00    +0.000 A 
ATOM     14  N   UNL     1      54.642   3.601  18.569  0.00  0.00    +0.000 NA
ATOM     15  C   UNL     1      54.364   4.861  18.619  0.00  0.00    +0.000 A 
ATOM     16  N   UNL     1      53.143   5.403  18.314  0.00  0.00    +0.000 N 
ATOM     17  C   UNL     1      52.076   4.650  17.881  0.00  0.00    +0.000 A 
ATOM     18  O   UNL     1      51.022   5.174  17.534  0.00  0.00    +0.000 OA
ATOM     19  C   UNL     1      52.325   3.221  17.838  0.00  0.00    +0.000 A 
ATOM     20  H   UNL     1      52.999   6.401  18.355  0.00  0.00    +0.000 HD
ENDBRANCH   7  10
ENDBRANCH   5   6
ENDBRANCH   2   5
BRANCH   3  21
ATOM     21  C   UNL     1      47.264   5.401  15.090  0.00  0.00    +0.000 C 
BRANCH  21  22
ATOM     22  C   UNL     1      46.536   5.102  13.796  0.00  0.00    +0.000 A 
ATOM     23  C   UNL     1      46.334   6.106  12.852  0.00  0.00    +0.000 A 
ATOM     24  C   UNL     1      45.586   5.823  11.707  0.00  0.00    +0.000 A 
ATOM     25  C   UNL     1      45.035   4.551  11.532  0.00  0.00    +0.000 A 
ATOM     26  C   UNL     1      45.316   3.602  12.510  0.00  0.00    +0.000 A 
ATOM     27  N   UNL     1      46.041   3.848  13.628  0.00  0.00    +0.000 NA
BRANCH  25  28
ATOM     28  C   UNL     1      44.156   4.220  10.360  0.00  0.00    +0.000 C 
BRANCH  28  29
ATOM     29  N   UNL     1      44.830   3.416   9.372  0.00  0.00    +0.000 N 
ATOM     30  C   UNL     1      45.660   3.995   8.437  0.00  0.00    +0.000 C 
ATOM     31  O   UNL     1      45.844   5.206   8.380  0.00  0.00    +0.000 OA
ATOM     32  H   UNL     1      44.789   2.412   9.445  0.00  0.00    +0.000 HD
BRANCH  30  33
ATOM     33  C   UNL     1      46.306   3.070   7.527  0.00  0.00    +0.000 A 
ATOM     34  C   UNL     1      46.786   3.220   6.236  0.00  0.00    +0.000 A 
ATOM     35  C   UNL     1      47.335   1.982   5.817  0.00  0.00    +0.000 A 
ATOM     36  C   UNL     1      47.184   1.098   6.859  0.00  0.00    +0.000 A 
ATOM     37  N   UNL     1      46.567   1.762   7.886  0.00  0.00    +0.000 N 
ATOM     38  H   UNL     1      46.330   1.368   8.790  0.00  0.00    +0.000 HD
ENDBRANCH  30  33
ENDBRANCH  28  29
ENDBRANCH  25  28
ENDBRANCH  21  22
ENDBRANCH   3  21
TORSDOF 8
ENDMDL
MODEL 2
REMARK VINA RESULT:    -8.183      2.847      4.368
REMARK INTER + INTRA:         -13.254
REMARK INTER:                 -12.004
REMARK INTRA:                  -1.250
REMARK UNBOUND:                -1.244
REMARK  Name = 
REMARK  8 active torsions:
REMARK  status: ('A' for Active; 'I' for Inactive)
REMARK    1  A    between atoms: C_2  and  C_3
REMARK    2  A    between atoms: C_3  and  N_4
REMARK    3  A    between atoms: C_5  and  C_7
REMARK    4  A    between atoms: N_17  and  C_18
REMARK    5  A    between atoms: C_18  and  C_19
REMARK    6  A    between atoms: C_22  and  C_23
REMARK    7  A    between atoms: C_23  and  N_24
REMARK    8  A    between atoms: C_25  and  C_27
REMARK                            x       y       z     vdW  Elec       q    Type
REMARK                         _______ _______ _______ _____ _____    ______ ____
ROOT
ATOM      1  O   UNL     1      48.097   9.610  12.241  0.00  0.00    +0.000 OA
ATOM      2  C   UNL     1      48.000   9.154  13.378  0.00  0.00    +0.000 C 
ATOM      3  N   UNL     1      46.848   8.587  13.867  0.00  0.00    +0.000 N 
ATOM      4  H   UNL     1      46.879   8.088  14.753  0.00  0.00    +0.000 HD
ENDROOT
BRANCH   2   5
ATOM      5  C   UNL     1      49.186   9.125  14.349  0.00  0.00    +0.000 C 
BRANCH   5   6
ATOM      6  N   UNL     1      49.044   8.083  15.346  0.00  0.00    +0.000 N 
ATOM      7  C   UNL     1      50.086   7.258  15.676  0.00  0.00    +0.000 C 
ATOM      8  O   UNL     1      51.196   7.395  15.167  0.00  0.00    +0.000 OA
ATOM      9  H   UNL     1      48.113   7.906  15.711  0.00  0.00    +0.000 HD
BRANCH   7  10
ATOM     10  C   UNL     1      49.830   6.246  16.709  0.00  0.00    +0.000 A 
ATOM     11  C   UNL     1      50.632   6.209  17.842  0.00  0.00    +0.000 A 
ATOM     12  S   UNL     1      50.195   4.991  18.952  0.00  0.00    +0.000 S 
ATOM     13  C   UNL     1      48.948   4.436  17.936  0.00  0.00    +0.000 A 
ATOM     14  N   UNL     1      48.187   3.365  18.289  0.00  0.00    +0.000 NA
ATOM     15  C   UNL     1      47.300   3.030  17.411  0.00  0.00    +0.000 A 
ATOM     16  N   UNL     1      47.100   3.676  16.220  0.00  0.00    +0.000 N 
ATOM     17  C   UNL     1      47.814   4.790  15.842  0.00  0.00    +0.000 A 
ATOM     18  O   UNL     1      47.553   5.396  14.808  0.00  0.00    +0.000 OA
ATOM     19  C   UNL     1      48.847   5.190  16.779  0.00  0.00    +0.000 A 
ATOM     20  H   UNL     1      46.374   3.374  15.587  0.00  0.00    +0.000 HD
ENDBRANCH   7  10
ENDBRANCH   5   6
ENDBRANCH   2   5
BRANCH   3  21
ATOM     21  C   UNL     1      45.611   8.522  13.110  0.00  0.00    +0.000 C 
BRANCH  21  22
ATOM     22  C   UNL     1      45.341   7.119  12.605  0.00  0.00    +0.000 A 
ATOM     23  C   UNL     1      45.993   6.640  11.471  0.00  0.00    +0.000 A 
ATOM     24  C   UNL     1      45.661   5.377  10.979  0.00  0.00    +0.000 A 
ATOM     25  C   UNL     1      44.671   4.620  11.611  0.00  0.00    +0.000 A 
ATOM     26  C   UNL     1      44.096   5.165  12.755  0.00  0.00    +0.000 A 
ATOM     27  N   UNL     1      44.401   6.386  13.257  0.00  0.00    +0.000 NA
BRANCH  25  28
ATOM     28  C   UNL     1      44.221   3.293  11.074  0.00  0.00    +0.000 C 
BRANCH  28  29
ATOM     29  N   UNL     1      45.114   2.770  10.071  0.00  0.00    +0.000 N 
ATOM     30  C   UNL     1      45.013   3.173   8.757  0.00  0.00    +0.000 C 
ATOM     31  O   UNL     1      44.155   3.961   8.374  0.00  0.00    +0.000 OA
ATOM     32  H   UNL     1      45.895   2.201  10.356  0.00  0.00    +0.000 HD
BRANCH  30  33
ATOM     33  C   UNL     1      45.996   2.600   7.858  0.00  0.00    +0.000 A 
ATOM     34  C   UNL     1      46.667   3.120   6.763  0.00  0.00    +0.000 A 
ATOM     35  C   UNL     1      47.531   2.119   6.252  0.00  0.00    +0.000 A 
ATOM     36  C   UNL     1      47.375   1.006   7.045  0.00  0.00    +0.000 A 
ATOM     37  N   UNL     1      46.452   1.306   8.012  0.00  0.00    +0.000 N 
ATOM     38  H   UNL     1      46.138   0.682   8.747  0.00  0.00    +0.000 HD
ENDBRANCH  30  33
ENDBRANCH  28  29
ENDBRANCH  25  28
ENDBRANCH  21  22
ENDBRANCH   3  21
TORSDOF 8
ENDMDL
MODEL 3
REMARK VINA RESULT:    -8.006      1.879      2.762
REMARK INTER + INTRA:         -12.994
REMARK INTER:                 -12.152
REMARK INTRA:                  -0.842
REMARK UNBOUND:                -1.244
REMARK  Name = 
REMARK  8 active torsions:
REMARK  status: ('A' for Active; 'I' for Inactive)
REMARK    1  A    between atoms: C_2  and  C_3
REMARK    2  A    between atoms: C_3  and  N_4
REMARK    3  A    between atoms: C_5  and  C_7
REMARK    4  A    between atoms: N_17  and  C_18
REMARK    5  A    between atoms: C_18  and  C_19
REMARK    6  A    between atoms: C_22  and  C_23
REMARK    7  A    between atoms: C_23  and  N_24
REMARK    8  A    between atoms: C_25  and  C_27
REMARK                            x       y       z     vdW  Elec       q    Type
REMARK                         _______ _______ _______ _____ _____    ______ ____
ROOT
ATOM      1  O   UNL     1      50.129   6.867  14.925  0.00  0.00    +0.000 OA
ATOM      2  C   UNL     1      49.144   7.041  15.637  0.00  0.00    +0.000 C 
ATOM      3  N   UNL     1      47.897   7.339  15.140  0.00  0.00    +0.000 N 
ATOM      4  H   UNL     1      47.096   7.314  15.767  0.00  0.00    +0.000 HD
ENDROOT
BRANCH   2   5
ATOM      5  C   UNL     1      49.202   6.888  17.162  0.00  0.00    +0.000 C 
BRANCH   5   6
ATOM      6  N   UNL     1      50.329   6.082  17.582  0.00  0.00    +0.000 N 
ATOM      7  C   UNL     1      50.161   4.827  18.104  0.00  0.00    +0.000 C 
ATOM      8  O   UNL     1      49.045   4.319  18.200  0.00  0.00    +0.000 OA
ATOM      9  H   UNL     1      51.246   6.520  17.585  0.00  0.00    +0.000 HD
BRANCH   7  10
ATOM     10  C   UNL     1      51.376   4.096  18.484  0.00  0.00    +0.000 A 
ATOM     11  C   UNL     1      52.296   4.694  19.334  0.00  0.00    +0.000 A 
ATOM     12  S   UNL     1      53.641   3.709  19.693  0.00  0.00    +0.000 S 
ATOM     13  C   UNL     1      53.067   2.464  18.684  0.00  0.00    +0.000 A 
ATOM     14  N   UNL     1      53.783   1.320  18.513  0.00  0.00    +0.000 NA
ATOM     15  C   UNL     1      53.249   0.475  17.696  0.00  0.00    +0.000 A 
ATOM     16  N   UNL     1      52.060   0.666  17.044  0.00  0.00    +0.000 N 
ATOM     17  C   UNL     1      51.279   1.786  17.222  0.00  0.00    +0.000 A 
ATOM     18  O   UNL     1      50.179   1.889  16.689  0.00  0.00    +0.000 OA
ATOM     19  C   UNL     1      51.850   2.784  18.106  0.00  0.00    +0.000 A 
ATOM     20  H   UNL     1      51.688  -0.046  16.433  0.00  0.00    +0.000 HD
ENDBRANCH   7  10
ENDBRANCH   5   6
ENDBRANCH   2   5
BRANCH   3  21
ATOM     21  C   UNL     1      47.631   7.535  13.727  0.00  0.00    +0.000 C 
BRANCH  21  22
ATOM     22  C   UNL     1      46.738   6.443  13.173  0.00  0.00    +0.000 A 
ATOM     23  C   UNL     1      46.821   5.144  13.670  0.00  0.00    +0.000 A 
ATOM     24  C   UNL     1      46.047   4.142  13.082  0.00  0.00    +0.000 A 
ATOM     25  C   UNL     1      45.222   4.444  11.996  0.00  0.00    +0.000 A 
ATOM     26  C   UNL     1      45.180   5.773  11.588  0.00  0.00    +0.000 A 
ATOM     27  N   UNL     1      45.916   6.767  12.142  0.00  0.00    +0.000 NA
BRANCH  25  28
ATOM     28  C   UNL     1      44.435   3.387  11.278  0.00  0.00    +0.000 C 
BRANCH  28  29
ATOM     29  N   UNL     1      45.172   2.787  10.195  0.00  0.00    +0.000 N 
ATOM     30  C   UNL     1      45.083   3.290   8.915  0.00  0.00    +0.000 C 
ATOM     31  O   UNL     1      44.361   4.240   8.631  0.00  0.00    +0.000 OA
ATOM     32  H   UNL     1      45.853   2.072  10.400  0.00  0.00    +0.000 HD
BRANCH  30  33
ATOM     33  C   UNL     1      45.905   2.619   7.928  0.00  0.00    +0.000 A 
ATOM     34  C   UNL     1      46.400   3.026   6.699  0.00  0.00    +0.000 A 
ATOM     35  C   UNL     1      47.162   1.964   6.151  0.00  0.00    +0.000 A 
ATOM     36  C   UNL     1      47.122   0.928   7.054  0.00  0.00    +0.000 A 
ATOM     37  N   UNL     1      46.367   1.332   8.123  0.00  0.00    +0.000 N 
ATOM     38  H   UNL     1      46.166   0.781   8.950  0.00  0.00    +0.000 HD
ENDBRANCH  30  33
ENDBRANCH  28  29
ENDBRANCH  25  28
ENDBRANCH  21  22
ENDBRANCH   3  21
TORSDOF 8
ENDMDL
MODEL 4
REMARK VINA RESULT:    -7.935      3.247      4.203
REMARK INTER + INTRA:         -12.890
REMARK INTER:                 -11.750
REMARK INTRA:                  -1.140
REMARK UNBOUND:                -1.244
REMARK  Name = 
REMARK  8 active torsions:
REMARK  status: ('A' for Active; 'I' for Inactive)
REMARK    1  A    between atoms: C_2  and  C_3
REMARK    2  A    between atoms: C_3  and  N_4
REMARK    3  A    between atoms: C_5  and  C_7
REMARK    4  A    between atoms: N_17  and  C_18
REMARK    5  A    between atoms: C_18  and  C_19
REMARK    6  A    between atoms: C_22  and  C_23
REMARK    7  A    between atoms: C_23  and  N_24
REMARK    8  A    between atoms: C_25  and  C_27
REMARK                            x       y       z     vdW  Elec       q    Type
REMARK                         _______ _______ _______ _____ _____    ______ ____
ROOT
ATOM      1  O   UNL     1      48.527   9.446  12.815  0.00  0.00    +0.000 OA
ATOM      2  C   UNL     1      47.979   9.143  13.871  0.00  0.00    +0.000 C 
ATOM      3  N   UNL     1      46.678   8.705  13.947  0.00  0.00    +0.000 N 
ATOM      4  H   UNL     1      46.336   8.321  14.825  0.00  0.00    +0.000 HD
ENDROOT
BRANCH   2   5
ATOM      5  C   UNL     1      48.720   9.171  15.213  0.00  0.00    +0.000 C 
BRANCH   5   6
ATOM      6  N   UNL     1      48.400   8.021  16.033  0.00  0.00    +0.000 N 
ATOM      7  C   UNL     1      49.008   6.808  15.838  0.00  0.00    +0.000 C 
ATOM      8  O   UNL     1      49.881   6.661  14.985  0.00  0.00    +0.000 OA
ATOM      9  H   UNL     1      47.625   8.107  16.683  0.00  0.00    +0.000 HD
BRANCH   7  10
ATOM     10  C   UNL     1      48.615   5.716  16.737  0.00  0.00    +0.000 A 
ATOM     11  C   UNL     1      47.844   4.671  16.245  0.00  0.00    +0.000 A 
ATOM     12  S   UNL     1      47.489   3.475  17.407  0.00  0.00    +0.000 S 
ATOM     13  C   UNL     1      48.312   4.334  18.624  0.00  0.00    +0.000 A 
ATOM     14  N   UNL     1      48.360   3.863  19.899  0.00  0.00    +0.000 NA
ATOM     15  C   UNL     1      48.988   4.630  20.727  0.00  0.00    +0.000 A 
ATOM     16  N   UNL     1      49.580   5.820  20.392  0.00  0.00    +0.000 N 
ATOM     17  C   UNL     1      49.598   6.312  19.107  0.00  0.00    +0.000 A 
ATOM     18  O   UNL     1      50.210   7.337  18.823  0.00  0.00    +0.000 OA
ATOM     19  C   UNL     1      48.877   5.503  18.142  0.00  0.00    +0.000 A 
ATOM     20  H   UNL     1      50.074   6.362  21.086  0.00  0.00    +0.000 HD
ENDBRANCH   7  10
ENDBRANCH   5   6
ENDBRANCH   2   5
BRANCH   3  21
ATOM     21  C   UNL     1      45.802   8.613  12.794  0.00  0.00    +0.000 C 
BRANCH  21  22
ATOM     22  C   UNL     1      45.347   7.189  12.553  0.00  0.00    +0.000 A 
ATOM     23  C   UNL     1      46.125   6.117  12.984  0.00  0.00    +0.000 A 
ATOM     24  C   UNL     1      45.724   4.817  12.673  0.00  0.00    +0.000 A 
ATOM     25  C   UNL     1      44.566   4.606  11.920  0.00  0.00    +0.000 A 
ATOM     26  C   UNL     1      43.835   5.733  11.559  0.00  0.00    +0.000 A 
ATOM     27  N   UNL     1      44.199   7.006  11.850  0.00  0.00    +0.000 NA
BRANCH  25  28
ATOM     28  C   UNL     1      44.137   3.233  11.490  0.00  0.00    +0.000 C 
BRANCH  28  29
ATOM     29  N   UNL     1      45.017   2.663  10.500  0.00  0.00    +0.000 N 
ATOM     30  C   UNL     1      44.965   3.077   9.187  0.00  0.00    +0.000 C 
ATOM     31  O   UNL     1      44.163   3.917   8.793  0.00  0.00    +0.000 OA
ATOM     32  H   UNL     1      45.757   2.047  10.797  0.00  0.00    +0.000 HD
BRANCH  30  33
ATOM     33  C   UNL     1      45.929   2.451   8.304  0.00  0.00    +0.000 A 
ATOM     34  C   UNL     1      46.263   1.125   8.083  0.00  0.00    +0.000 A 
ATOM     35  C   UNL     1      47.276   1.078   7.093  0.00  0.00    +0.000 A 
ATOM     36  C   UNL     1      47.543   2.376   6.724  0.00  0.00    +0.000 A 
ATOM     37  N   UNL     1      46.725   3.196   7.455  0.00  0.00    +0.000 N 
ATOM     38  H   UNL     1      46.690   4.207   7.394  0.00  0.00    +0.000 HD
ENDBRANCH  30  33
ENDBRANCH  28  29
ENDBRANCH  25  28
ENDBRANCH  21  22
ENDBRANCH   3  21
TORSDOF 8
ENDMDL
MODEL 5
REMARK VINA RESULT:    -7.731      1.550      2.034
REMARK INTER + INTRA:         -12.591
REMARK INTER:                 -11.747
REMARK INTRA:                  -0.845
REMARK UNBOUND:                -1.244
REMARK  Name = 
REMARK  8 active torsions:
REMARK  status: ('A' for Active; 'I' for Inactive)
REMARK    1  A    between atoms: C_2  and  C_3
REMARK    2  A    between atoms: C_3  and  N_4
REMARK    3  A    between atoms: C_5  and  C_7
REMARK    4  A    between atoms: N_17  and  C_18
REMARK    5  A    between atoms: C_18  and  C_19
REMARK    6  A    between atoms: C_22  and  C_23
REMARK    7  A    between atoms: C_23  and  N_24
REMARK    8  A    between atoms: C_25  and  C_27
REMARK                            x       y       z     vdW  Elec       q    Type
REMARK                         _______ _______ _______ _____ _____    ______ ____
ROOT
ATOM      1  O   UNL     1      46.803   3.297  17.379  0.00  0.00    +0.000 OA
ATOM      2  C   UNL     1      47.657   3.194  16.502  0.00  0.00    +0.000 C 
ATOM      3  N   UNL     1      47.699   4.003  15.392  0.00  0.00    +0.000 N 
ATOM      4  H   UNL     1      48.517   3.972  14.788  0.00  0.00    +0.000 HD
ENDROOT
BRANCH   2   5
ATOM      5  C   UNL     1      48.800   2.176  16.592  0.00  0.00    +0.000 C 
BRANCH   5   6
ATOM      6  N   UNL     1      49.768   2.539  17.607  0.00  0.00    +0.000 N 
ATOM      7  C   UNL     1      50.430   3.738  17.573  0.00  0.00    +0.000 C 
ATOM      8  O   UNL     1      50.197   4.571  16.699  0.00  0.00    +0.000 OA
ATOM      9  H   UNL     1      50.029   1.829  18.284  0.00  0.00    +0.000 HD
BRANCH   7  10
ATOM     10  C   UNL     1      51.379   4.005  18.660  0.00  0.00    +0.000 A 
ATOM     11  C   UNL     1      51.199   5.122  19.466  0.00  0.00    +0.000 A 
ATOM     12  S   UNL     1      52.373   5.279  20.692  0.00  0.00    +0.000 S 
ATOM     13  C   UNL     1      53.194   3.887  20.161  0.00  0.00    +0.000 A 
ATOM     14  N   UNL     1      54.336   3.474  20.776  0.00  0.00    +0.000 NA
ATOM     15  C   UNL     1      54.873   2.424  20.250  0.00  0.00    +0.000 A 
ATOM     16  N   UNL     1      54.367   1.744  19.174  0.00  0.00    +0.000 N 
ATOM     17  C   UNL     1      53.192   2.097  18.550  0.00  0.00    +0.000 A 
ATOM     18  O   UNL     1      52.720   1.419  17.643  0.00  0.00    +0.000 OA
ATOM     19  C   UNL     1      52.563   3.292  19.081  0.00  0.00    +0.000 A 
ATOM     20  H   UNL     1      54.827   0.917  18.825  0.00  0.00    +0.000 HD
ENDBRANCH   7  10
ENDBRANCH   5   6
ENDBRANCH   2   5
BRANCH   3  21
ATOM     21  C   UNL     1      46.705   5.024  15.114  0.00  0.00    +0.000 C 
BRANCH  21  22
ATOM     22  C   UNL     1      46.040   4.800  13.772  0.00  0.00    +0.000 A 
ATOM     23  C   UNL     1      45.511   5.875  13.059  0.00  0.00    +0.000 A 
ATOM     24  C   UNL     1      44.828   5.629  11.867  0.00  0.00    +0.000 A 
ATOM     25  C   UNL     1      44.664   4.317  11.415  0.00  0.00    +0.000 A 
ATOM     26  C   UNL     1      45.253   3.311  12.174  0.00  0.00    +0.000 A 
ATOM     27  N   UNL     1      45.924   3.520  13.333  0.00  0.00    +0.000 NA
BRANCH  25  28
ATOM     28  C   UNL     1      43.868   3.994  10.183  0.00  0.00    +0.000 C 
BRANCH  28  29
ATOM     29  N   UNL     1      44.636   3.271   9.202  0.00  0.00    +0.000 N 
ATOM     30  C   UNL     1      45.558   3.918   8.409  0.00  0.00    +0.000 C 
ATOM     31  O   UNL     1      45.750   5.127   8.476  0.00  0.00    +0.000 OA
ATOM     32  H   UNL     1      44.585   2.264   9.182  0.00  0.00    +0.000 HD
BRANCH  30  33
ATOM     33  C   UNL     1      46.289   3.067   7.490  0.00  0.00    +0.000 A 
ATOM     34  C   UNL     1      46.727   3.264   6.190  0.00  0.00    +0.000 A 
ATOM     35  C   UNL     1      47.407   2.094   5.767  0.00  0.00    +0.000 A 
ATOM     36  C   UNL     1      47.375   1.204   6.815  0.00  0.00    +0.000 A 
ATOM     37  N   UNL     1      46.704   1.800   7.850  0.00  0.00    +0.000 N 
ATOM     38  H   UNL     1      46.529   1.387   8.759  0.00  0.00    +0.000 HD
ENDBRANCH  30  33
ENDBRANCH  28  29
ENDBRANCH  25  28
ENDBRANCH  21  22
ENDBRANCH   3  21
TORSDOF 8
ENDMDL
MODEL 6
REMARK VINA RESULT:    -7.663      3.874      5.311
REMARK INTER + INTRA:         -12.492
REMARK INTER:                 -10.815
REMARK INTRA:                  -1.677
REMARK UNBOUND:                -1.244
REMARK  Name = 
REMARK  8 active torsions:
REMARK  status: ('A' for Active; 'I' for Inactive)
REMARK    1  A    between atoms: C_2  and  C_3
REMARK    2  A    between atoms: C_3  and  N_4
REMARK    3  A    between atoms: C_5  and  C_7
REMARK    4  A    between atoms: N_17  and  C_18
REMARK    5  A    between atoms: C_18  and  C_19
REMARK    6  A    between atoms: C_22  and  C_23
REMARK    7  A    between atoms: C_23  and  N_24
REMARK    8  A    between atoms: C_25  and  C_27
REMARK                            x       y       z     vdW  Elec       q    Type
REMARK                         _______ _______ _______ _____ _____    ______ ____
ROOT
ATOM      1  O   UNL     1      48.418   4.613  17.867  0.00  0.00    +0.000 OA
ATOM      2  C   UNL     1      48.214   5.551  17.101  0.00  0.00    +0.000 C 
ATOM      3  N   UNL     1      47.585   5.411  15.887  0.00  0.00    +0.000 N 
ATOM      4  H   UNL     1      47.307   6.245  15.375  0.00  0.00    +0.000 HD
ENDROOT
BRANCH   2   5
ATOM      5  C   UNL     1      48.600   6.992  17.455  0.00  0.00    +0.000 C 
BRANCH   5   6
ATOM      6  N   UNL     1      49.272   7.658  16.358  0.00  0.00    +0.000 N 
ATOM      7  C   UNL     1      48.819   8.848  15.854  0.00  0.00    +0.000 C 
ATOM      8  O   UNL     1      47.845   9.419  16.341  0.00  0.00    +0.000 OA
ATOM      9  H   UNL     1      50.024   7.158  15.895  0.00  0.00    +0.000 HD
BRANCH   7  10
ATOM     10  C   UNL     1      49.587   9.438  14.750  0.00  0.00    +0.000 A 
ATOM     11  C   UNL     1      49.971  10.770  14.820  0.00  0.00    +0.000 A 
ATOM     12  S   UNL     1      50.870  11.297  13.471  0.00  0.00    +0.000 S 
ATOM     13  C   UNL     1      50.737   9.776  12.720  0.00  0.00    +0.000 A 
ATOM     14  N   UNL     1      51.275   9.557  11.489  0.00  0.00    +0.000 NA
ATOM     15  C   UNL     1      51.071   8.370  11.023  0.00  0.00    +0.000 A 
ATOM     16  N   UNL     1      50.389   7.380  11.680  0.00  0.00    +0.000 N 
ATOM     17  C   UNL     1      49.870   7.541  12.945  0.00  0.00    +0.000 A 
ATOM     18  O   UNL     1      49.339   6.609  13.541  0.00  0.00    +0.000 OA
ATOM     19  C   UNL     1      50.042   8.869  13.502  0.00  0.00    +0.000 A 
ATOM     20  H   UNL     1      50.284   6.466  11.266  0.00  0.00    +0.000 HD
ENDBRANCH   7  10
ENDBRANCH   5   6
ENDBRANCH   2   5
BRANCH   3  21
ATOM     21  C   UNL     1      47.148   4.130  15.362  0.00  0.00    +0.000 C 
BRANCH  21  22
ATOM     22  C   UNL     1      46.476   4.282  14.013  0.00  0.00    +0.000 A 
ATOM     23  C   UNL     1      46.121   5.544  13.540  0.00  0.00    +0.000 A 
ATOM     24  C   UNL     1      45.426   5.647  12.334  0.00  0.00    +0.000 A 
ATOM     25  C   UNL     1      45.077   4.492  11.630  0.00  0.00    +0.000 A 
ATOM     26  C   UNL     1      45.499   3.278  12.162  0.00  0.00    +0.000 A 
ATOM     27  N   UNL     1      46.178   3.148  13.328  0.00  0.00    +0.000 NA
BRANCH  25  28
ATOM     28  C   UNL     1      44.259   4.544  10.372  0.00  0.00    +0.000 C 
BRANCH  28  29
ATOM     29  N   UNL     1      44.840   3.774   9.302  0.00  0.00    +0.000 N 
ATOM     30  C   UNL     1      45.849   4.296   8.522  0.00  0.00    +0.000 C 
ATOM     31  O   UNL     1      46.279   5.434   8.678  0.00  0.00    +0.000 OA
ATOM     32  H   UNL     1      44.590   2.802   9.203  0.00  0.00    +0.000 HD
BRANCH  30  33
ATOM     33  C   UNL     1      46.371   3.403   7.506  0.00  0.00    +0.000 A 
ATOM     34  C   UNL     1      46.689   2.055   7.529  0.00  0.00    +0.000 A 
ATOM     35  C   UNL     1      47.155   1.685   6.242  0.00  0.00    +0.000 A 
ATOM     36  C   UNL     1      47.112   2.812   5.455  0.00  0.00    +0.000 A 
ATOM     37  N   UNL     1      46.635   3.841   6.223  0.00  0.00    +0.000 N 
ATOM     38  H   UNL     1      46.486   4.794   5.911  0.00  0.00    +0.000 HD
ENDBRANCH  30  33
ENDBRANCH  28  29
ENDBRANCH  25  28
ENDBRANCH  21  22
ENDBRANCH   3  21
TORSDOF 8
ENDMDL
MODEL 7
REMARK VINA RESULT:    -7.538      3.730      5.583
REMARK INTER + INTRA:         -12.308
REMARK INTER:                 -11.165
REMARK INTRA:                  -1.143
REMARK UNBOUND:                -1.244
REMARK  Name = 
REMARK  8 active torsions:
REMARK  status: ('A' for Active; 'I' for Inactive)
REMARK    1  A    between atoms: C_2  and  C_3
REMARK    2  A    between atoms: C_3  and  N_4
REMARK    3  A    between atoms: C_5  and  C_7
REMARK    4  A    between atoms: N_17  and  C_18
REMARK    5  A    between atoms: C_18  and  C_19
REMARK    6  A    between atoms: C_22  and  C_23
REMARK    7  A    between atoms: C_23  and  N_24
REMARK    8  A    between atoms: C_25  and  C_27
REMARK                            x       y       z     vdW  Elec       q    Type
REMARK                         _______ _______ _______ _____ _____    ______ ____
ROOT
ATOM      1  O   UNL     1      46.583   3.295  16.975  0.00  0.00    +0.000 OA
ATOM      2  C   UNL     1      47.158   4.361  16.772  0.00  0.00    +0.000 C 
ATOM      3  N   UNL     1      47.156   4.999  15.554  0.00  0.00    +0.000 N 
ATOM      4  H   UNL     1      47.513   5.949  15.492  0.00  0.00    +0.000 HD
ENDROOT
BRANCH   2   5
ATOM      5  C   UNL     1      47.893   5.118  17.885  0.00  0.00    +0.000 C 
BRANCH   5   6
ATOM      6  N   UNL     1      49.192   4.541  18.163  0.00  0.00    +0.000 N 
ATOM      7  C   UNL     1      50.296   4.864  17.420  0.00  0.00    +0.000 C 
ATOM      8  O   UNL     1      50.235   5.689  16.510  0.00  0.00    +0.000 OA
ATOM      9  H   UNL     1      49.239   3.799  18.855  0.00  0.00    +0.000 HD
BRANCH   7  10
ATOM     10  C   UNL     1      51.564   4.228  17.801  0.00  0.00    +0.000 A 
ATOM     11  C   UNL     1      52.605   5.013  18.277  0.00  0.00    +0.000 A 
ATOM     12  S   UNL     1      53.999   4.123  18.693  0.00  0.00    +0.000 S 
ATOM     13  C   UNL     1      53.279   2.661  18.205  0.00  0.00    +0.000 A 
ATOM     14  N   UNL     1      53.967   1.489  18.270  0.00  0.00    +0.000 NA
ATOM     15  C   UNL     1      53.313   0.463  17.837  0.00  0.00    +0.000 A 
ATOM     16  N   UNL     1      52.031   0.502  17.356  0.00  0.00    +0.000 N 
ATOM     17  C   UNL     1      51.281   1.655  17.315  0.00  0.00    +0.000 A 
ATOM     18  O   UNL     1      50.107   1.642  16.958  0.00  0.00    +0.000 OA
ATOM     19  C   UNL     1      51.980   2.845  17.760  0.00  0.00    +0.000 A 
ATOM     20  H   UNL     1      51.570  -0.343  17.051  0.00  0.00    +0.000 HD
ENDBRANCH   7  10
ENDBRANCH   5   6
ENDBRANCH   2   5
BRANCH   3  21
ATOM     21  C   UNL     1      46.525   4.447  14.369  0.00  0.00    +0.000 C 
BRANCH  21  22
ATOM     22  C   UNL     1      46.109   5.536  13.402  0.00  0.00    +0.000 A 
ATOM     23  C   UNL     1      47.039   6.467  12.946  0.00  0.00    +0.000 A 
ATOM     24  C   UNL     1      46.610   7.511  12.123  0.00  0.00    +0.000 A 
ATOM     25  C   UNL     1      45.259   7.622  11.786  0.00  0.00    +0.000 A 
ATOM     26  C   UNL     1      44.408   6.629  12.261  0.00  0.00    +0.000 A 
ATOM     27  N   UNL     1      44.797   5.604  13.058  0.00  0.00    +0.000 NA
BRANCH  25  28
ATOM     28  C   UNL     1      44.734   8.770  10.974  0.00  0.00    +0.000 C 
BRANCH  28  29
ATOM     29  N   UNL     1      43.466   9.254  11.456  0.00  0.00    +0.000 N 
ATOM     30  C   UNL     1      42.645  10.011  10.647  0.00  0.00    +0.000 C 
ATOM     31  O   UNL     1      42.959  10.329   9.505  0.00  0.00    +0.000 OA
ATOM     32  H   UNL     1      43.123   8.934  12.348  0.00  0.00    +0.000 HD
BRANCH  30  33
ATOM     33  C   UNL     1      41.382  10.402  11.241  0.00  0.00    +0.000 A 
ATOM     34  C   UNL     1      41.062  11.335  12.214  0.00  0.00    +0.000 A 
ATOM     35  C   UNL     1      39.658  11.313  12.409  0.00  0.00    +0.000 A 
ATOM     36  C   UNL     1      39.144  10.369  11.553  0.00  0.00    +0.000 A 
ATOM     37  N   UNL     1      40.188   9.828  10.850  0.00  0.00    +0.000 N 
ATOM     38  H   UNL     1      40.116   9.110  10.137  0.00  0.00    +0.000 HD
ENDBRANCH  30  33
ENDBRANCH  28  29
ENDBRANCH  25  28
ENDBRANCH  21  22
ENDBRANCH   3  21
TORSDOF 8
ENDMDL
MODEL 8
REMARK VINA RESULT:    -7.200      4.025     10.381
REMARK INTER + INTRA:         -11.812
REMARK INTER:                 -10.862
REMARK INTRA:                  -0.950
REMARK UNBOUND:                -1.244
REMARK  Name = 
REMARK  8 active torsions:
REMARK  status: ('A' for Active; 'I' for Inactive)
REMARK    1  A    between atoms: C_2  and  C_3
REMARK    2  A    between atoms: C_3  and  N_4
REMARK    3  A    between atoms: C_5  and  C_7
REMARK    4  A    between atoms: N_17  and  C_18
REMARK    5  A    between atoms: C_18  and  C_19
REMARK    6  A    between atoms: C_22  and  C_23
REMARK    7  A    between atoms: C_23  and  N_24
REMARK    8  A    between atoms: C_25  and  C_27
REMARK                            x       y       z     vdW  Elec       q    Type
REMARK                         _______ _______ _______ _____ _____    ______ ____
ROOT
ATOM      1  O   UNL     1      48.875   7.344  17.564  0.00  0.00    +0.000 OA
ATOM      2  C   UNL     1      48.731   6.737  16.505  0.00  0.00    +0.000 C 
ATOM      3  N   UNL     1      48.516   5.382  16.436  0.00  0.00    +0.000 N 
ATOM      4  H   UNL     1      48.248   4.968  15.546  0.00  0.00    +0.000 HD
ENDROOT
BRANCH   2   5
ATOM      5  C   UNL     1      48.723   7.453  15.149  0.00  0.00    +0.000 C 
BRANCH   5   6
ATOM      6  N   UNL     1      47.504   7.198  14.410  0.00  0.00    +0.000 N 
ATOM      7  C   UNL     1      47.490   6.391  13.303  0.00  0.00    +0.000 C 
ATOM      8  O   UNL     1      48.507   5.818  12.917  0.00  0.00    +0.000 OA
ATOM      9  H   UNL     1      46.678   7.729  14.668  0.00  0.00    +0.000 HD
BRANCH   7  10
ATOM     10  C   UNL     1      46.194   6.193  12.641  0.00  0.00    +0.000 A 
ATOM     11  C   UNL     1      45.547   7.280  12.068  0.00  0.00    +0.000 A 
ATOM     12  S   UNL     1      44.066   6.881  11.324  0.00  0.00    +0.000 S 
ATOM     13  C   UNL     1      44.211   5.249  11.783  0.00  0.00    +0.000 A 
ATOM     14  N   UNL     1      43.236   4.350  11.479  0.00  0.00    +0.000 NA
ATOM     15  C   UNL     1      43.458   3.156  11.916  0.00  0.00    +0.000 A 
ATOM     16  N   UNL     1      44.572   2.778  12.620  0.00  0.00    +0.000 N 
ATOM     17  C   UNL     1      45.604   3.640  12.909  0.00  0.00    +0.000 A 
ATOM     18  O   UNL     1      46.626   3.251  13.466  0.00  0.00    +0.000 OA
ATOM     19  C   UNL     1      45.390   5.006  12.468  0.00  0.00    +0.000 A 
ATOM     20  H   UNL     1      44.693   1.820  12.915  0.00  0.00    +0.000 HD
ENDBRANCH   7  10
ENDBRANCH   5   6
ENDBRANCH   2   5
BRANCH   3  21
ATOM     21  C   UNL     1      48.496   4.520  17.603  0.00  0.00    +0.000 C 
BRANCH  21  22
ATOM     22  C   UNL     1      49.754   3.682  17.699  0.00  0.00    +0.000 A 
ATOM     23  C   UNL     1      50.910   4.209  18.271  0.00  0.00    +0.000 A 
ATOM     24  C   UNL     1      52.079   3.445  18.268  0.00  0.00    +0.000 A 
ATOM     25  C   UNL     1      52.083   2.179  17.676  0.00  0.00    +0.000 A 
ATOM     26  C   UNL     1      50.876   1.723  17.157  0.00  0.00    +0.000 A 
ATOM     27  N   UNL     1      49.726   2.440  17.150  0.00  0.00    +0.000 NA
BRANCH  25  28
ATOM     28  C   UNL     1      53.332   1.354  17.574  0.00  0.00    +0.000 C 
BRANCH  28  29
ATOM     29  N   UNL     1      53.185   0.051  18.171  0.00  0.00    +0.000 N 
ATOM     30  C   UNL     1      54.272  -0.782  18.328  0.00  0.00    +0.000 C 
ATOM     31  O   UNL     1      55.397  -0.473  17.949  0.00  0.00    +0.000 OA
ATOM     32  H   UNL     1      52.302  -0.203  18.587  0.00  0.00    +0.000 HD
BRANCH  30  33
ATOM     33  C   UNL     1      53.993  -2.048  18.976  0.00  0.00    +0.000 A 
ATOM     34  C   UNL     1      54.779  -3.163  19.213  0.00  0.00    +0.000 A 
ATOM     35  C   UNL     1      53.997  -4.124  19.902  0.00  0.00    +0.000 A 
ATOM     36  C   UNL     1      52.746  -3.579  20.075  0.00  0.00    +0.000 A 
ATOM     37  N   UNL     1      52.754  -2.327  19.519  0.00  0.00    +0.000 N 
ATOM     38  H   UNL     1      51.973  -1.681  19.501  0.00  0.00    +0.000 HD
ENDBRANCH  30  33
ENDBRANCH  28  29
ENDBRANCH  25  28
ENDBRANCH  21  22
ENDBRANCH   3  21
TORSDOF 8
ENDMDL
MODEL 9
REMARK VINA RESULT:    -6.843      2.307      3.399
REMARK INTER + INTRA:         -11.288
REMARK INTER:                 -10.344
REMARK INTRA:                  -0.944
REMARK UNBOUND:                -1.244
REMARK  Name = 
REMARK  8 active torsions:
REMARK  status: ('A' for Active; 'I' for Inactive)
REMARK    1  A    between atoms: C_2  and  C_3
REMARK    2  A    between atoms: C_3  and  N_4
REMARK    3  A    between atoms: C_5  and  C_7
REMARK    4  A    between atoms: N_17  and  C_18
REMARK    5  A    between atoms: C_18  and  C_19
REMARK    6  A    between atoms: C_22  and  C_23
REMARK    7  A    between atoms: C_23  and  N_24
REMARK    8  A    between atoms: C_25  and  C_27
REMARK                            x       y       z     vdW  Elec       q    Type
REMARK                         _______ _______ _______ _____ _____    ______ ____
ROOT
ATOM      1  O   UNL     1      47.206   8.178  14.068  0.00  0.00    +0.000 OA
ATOM      2  C   UNL     1      48.158   7.403  14.031  0.00  0.00    +0.000 C 
ATOM      3  N   UNL     1      48.048   6.059  14.297  0.00  0.00    +0.000 N 
ATOM      4  H   UNL     1      48.836   5.448  14.095  0.00  0.00    +0.000 HD
ENDROOT
BRANCH   2   5
ATOM      5  C   UNL     1      49.565   7.858  13.626  0.00  0.00    +0.000 C 
BRANCH   5   6
ATOM      6  N   UNL     1      50.593   7.194  14.401  0.00  0.00    +0.000 N 
ATOM      7  C   UNL     1      50.850   7.540  15.701  0.00  0.00    +0.000 C 
ATOM      8  O   UNL     1      50.190   8.405  16.274  0.00  0.00    +0.000 OA
ATOM      9  H   UNL     1      51.198   6.538  13.915  0.00  0.00    +0.000 HD
BRANCH   7  10
ATOM     10  C   UNL     1      51.905   6.790  16.393  0.00  0.00    +0.000 A 
ATOM     11  C   UNL     1      53.197   7.297  16.424  0.00  0.00    +0.000 A 
ATOM     12  S   UNL     1      54.298   6.318  17.281  0.00  0.00    +0.000 S 
ATOM     13  C   UNL     1      53.099   5.154  17.602  0.00  0.00    +0.000 A 
ATOM     14  N   UNL     1      53.397   4.017  18.286  0.00  0.00    +0.000 NA
ATOM     15  C   UNL     1      52.402   3.206  18.430  0.00  0.00    +0.000 A 
ATOM     16  N   UNL     1      51.135   3.435  17.961  0.00  0.00    +0.000 N 
ATOM     17  C   UNL     1      50.777   4.591  17.306  0.00  0.00    +0.000 A 
ATOM     18  O   UNL     1      49.615   4.804  16.973  0.00  0.00    +0.000 OA
ATOM     19  C   UNL     1      51.867   5.523  17.088  0.00  0.00    +0.000 A 
ATOM     20  H   UNL     1      50.397   2.767  18.126  0.00  0.00    +0.000 HD
ENDBRANCH   7  10
ENDBRANCH   5   6
ENDBRANCH   2   5
BRANCH   3  21
ATOM     21  C   UNL     1      46.806   5.430  14.706  0.00  0.00    +0.000 C 
BRANCH  21  22
ATOM     22  C   UNL     1      45.971   5.017  13.511  0.00  0.00    +0.000 A 
ATOM     23  C   UNL     1      46.040   3.716  13.018  0.00  0.00    +0.000 A 
ATOM     24  C   UNL     1      45.325   3.389  11.864  0.00  0.00    +0.000 A 
ATOM     25  C   UNL     1      44.572   4.366  11.209  0.00  0.00    +0.000 A 
ATOM     26  C   UNL     1      44.537   5.629  11.790  0.00  0.00    +0.000 A 
ATOM     27  N   UNL     1      45.217   5.974  12.911  0.00  0.00    +0.000 NA
BRANCH  25  28
ATOM     28  C   UNL     1      43.854   4.085   9.921  0.00  0.00    +0.000 C 
BRANCH  28  29
ATOM     29  N   UNL     1      44.662   3.343   8.987  0.00  0.00    +0.000 N 
ATOM     30  C   UNL     1      45.668   3.960   8.277  0.00  0.00    +0.000 C 
ATOM     31  O   UNL     1      45.906   5.159   8.380  0.00  0.00    +0.000 OA
ATOM     32  H   UNL     1      44.570   2.340   8.945  0.00  0.00    +0.000 HD
BRANCH  30  33
ATOM     33  C   UNL     1      46.430   3.092   7.400  0.00  0.00    +0.000 A 
ATOM     34  C   UNL     1      46.845   1.777   7.528  0.00  0.00    +0.000 A 
ATOM     35  C   UNL     1      47.558   1.418   6.357  0.00  0.00    +0.000 A 
ATOM     36  C   UNL     1      47.565   2.519   5.533  0.00  0.00    +0.000 A 
ATOM     37  N   UNL     1      46.880   3.521   6.167  0.00  0.00    +0.000 N 
ATOM     38  H   UNL     1      46.713   4.451   5.799  0.00  0.00    +0.000 HD
ENDBRANCH  30  33
ENDBRANCH  28  29
ENDBRANCH  25  28
ENDBRANCH  21  22
ENDBRANCH   3  21
TORSDOF 8
ENDMDL
