MODEL 1
REMARK VINA RESULT:    -8.371      0.000      0.000
REMARK INTER + INTRA:         -11.723
REMARK INTER:                 -11.062
REMARK INTRA:                  -0.661
REMARK UNBOUND:                -0.661
REMARK  Name = 
REMARK  6 active torsions:
REMARK  status: ('A' for Active; 'I' for Inactive)
REMARK    1  A    between atoms: C_2  and  C_19
REMARK    2  A    between atoms: N_3  and  C_4
REMARK    3  A    between atoms: C_4  and  C_5
REMARK    4  A    between atoms: C_8  and  C_9
REMARK    5  A    between atoms: C_9  and  O_10
REMARK    6  A    between atoms: C_9  and  C_11
REMARK                            x       y       z     vdW  Elec       q    Type
REMARK                         _______ _______ _______ _____ _____    ______ ____
ROOT
ATOM      1  C   UNL     1      46.750   7.548  13.112  0.00  0.00    +0.000 C 
ENDROOT
BRANCH   1   2
ATOM      2  C   UNL     1      46.233   6.505  12.157  0.00  0.00    +0.000 A 
ATOM      3  C   UNL     1      45.566   5.375  12.642  0.00  0.00    +0.000 A 
ATOM      4  C   UNL     1      45.049   4.421  11.762  0.00  0.00    +0.000 A 
ATOM      5  C   UNL     1      45.197   4.574  10.375  0.00  0.00    +0.000 A 
ATOM      6  C   UNL     1      45.907   5.687   9.895  0.00  0.00    +0.000 A 
ATOM      7  C   UNL     1      46.423   6.639  10.777  0.00  0.00    +0.000 A 
BRANCH   5   8
ATOM      8  C   UNL     1      44.553   3.587   9.424  0.00  0.00    +0.000 C 
BRANCH   8   9
ATOM      9  C   UNL     1      45.536   2.760   8.605  0.00  0.00    +0.000 A 
ATOM     10  N   UNL     1      46.243   3.391   7.631  0.00  0.00    +0.000 NA
ATOM     11  C   UNL     1      47.031   2.586   6.889  0.00  0.00    +0.000 A 
ATOM     12  C   UNL     1      47.110   1.229   7.088  0.00  0.00    +0.000 A 
ATOM     13  N   UNL     1      46.397   0.644   8.064  0.00  0.00    +0.000 NA
ATOM     14  N   UNL     1      45.596   1.426   8.838  0.00  0.00    +0.000 NA
ENDBRANCH   8   9
BRANCH   8  15
ATOM     15  O   UNL     1      43.669   4.348   8.577  0.00  0.00    +0.000 OA
ATOM     16  H   UNL     1      44.235   4.678   7.853  0.00  0.00    +0.000 HD
ENDBRANCH   8  15
ENDBRANCH   5   8
ENDBRANCH   1   2
BRANCH   1  19
ATOM     17  O   UNL     1      49.452   6.949  13.686  0.00  0.00    +0.000 OA
ATOM     18  C   UNL     1      48.594   6.728  14.535  0.00  0.00    +0.000 C 
ATOM     19  N   UNL     1      47.262   6.946  14.314  0.00  0.00    +0.000 N 
ATOM     20  H   UNL     1      46.618   6.918  15.095  0.00  0.00    +0.000 HD
BRANCH  18  21
ATOM     21  C   UNL     1      48.938   6.155  15.846  0.00  0.00    +0.000 A 
ATOM     22  C   UNL     1      49.887   6.780  16.646  0.00  0.00    +0.000 A 
ATOM     23  S   UNL     1      50.173   5.975  18.122  0.00  0.00    +0.000 S 
ATOM     24  C   UNL     1      49.006   4.788  17.766  0.00  0.00    +0.000 A 
ATOM     25  N   UNL     1      48.727   3.795  18.652  0.00  0.00    +0.000 NA
ATOM     26  C   UNL     1      47.794   2.986  18.270  0.00  0.00    +0.000 A 
ATOM     27  N   UNL     1      47.126   3.072  17.077  0.00  0.00    +0.000 N 
ATOM     28  C   UNL     1      47.433   4.008  16.119  0.00  0.00    +0.000 A 
ATOM     29  O   UNL     1      46.913   3.953  15.007  0.00  0.00    +0.000 OA
ATOM     30  C   UNL     1      48.433   4.980  16.521  0.00  0.00    +0.000 A 
ATOM     31  H   UNL     1      46.435   2.385  16.821  0.00  0.00    +0.000 HD
ENDBRANCH  18  21
ENDBRANCH   1  19
TORSDOF 6
ENDMDL
MODEL 2
REMARK VINA RESULT:    -8.161      1.606      2.325
REMARK INTER + INTRA:         -11.446
REMARK INTER:                 -10.796
REMARK INTRA:                  -0.651
REMARK UNBOUND:                -0.661
REMARK  Name = 
REMARK  6 active torsions:
REMARK  status: ('A' for Active; 'I' for Inactive)
REMARK    1  A    between atoms: C_2  and  C_19
REMARK    2  A    between atoms: N_3  and  C_4
REMARK    3  A    between atoms: C_4  and  C_5
REMARK    4  A    between atoms: C_8  and  C_9
REMARK    5  A    between atoms: C_9  and  O_10
REMARK    6  A    between atoms: C_9  and  C_11
REMARK                            x       y       z     vdW  Elec       q    Type
REMARK                         _______ _______ _______ _____ _____    ______ ____
ROOT
ATOM      1  C   UNL     1      47.073   6.674  13.524  0.00  0.00    +0.000 C 
ENDROOT
BRANCH   1   2
ATOM      2  C   UNL     1      46.364   5.872  12.466  0.00  0.00    +0.000 A 
ATOM      3  C   UNL     1      46.237   6.376  11.166  0.00  0.00    +0.000 A 
ATOM      4  C   UNL     1      45.615   5.622  10.168  0.00  0.00    +0.000 A 
ATOM      5  C   UNL     1      45.096   4.350  10.453  0.00  0.00    +0.000 A 
ATOM      6  C   UNL     1      45.185   3.868  11.769  0.00  0.00    +0.000 A 
ATOM      7  C   UNL     1      45.808   4.623  12.765  0.00  0.00    +0.000 A 
BRANCH   5   8
ATOM      8  C   UNL     1      44.508   3.499   9.346  0.00  0.00    +0.000 C 
BRANCH   8   9
ATOM      9  C   UNL     1      45.532   2.711   8.539  0.00  0.00    +0.000 A 
ATOM     10  N   UNL     1      46.239   3.372   7.586  0.00  0.00    +0.000 NA
ATOM     11  C   UNL     1      47.066   2.598   6.853  0.00  0.00    +0.000 A 
ATOM     12  C   UNL     1      47.183   1.243   7.042  0.00  0.00    +0.000 A 
ATOM     13  N   UNL     1      46.469   0.627   7.997  0.00  0.00    +0.000 NA
ATOM     14  N   UNL     1      45.628   1.377   8.762  0.00  0.00    +0.000 NA
ENDBRANCH   8   9
BRANCH   8  15
ATOM     15  O   UNL     1      43.744   4.386   8.505  0.00  0.00    +0.000 OA
ATOM     16  H   UNL     1      43.793   3.994   7.613  0.00  0.00    +0.000 HD
ENDBRANCH   8  15
ENDBRANCH   5   8
ENDBRANCH   1   2
BRANCH   1  19
ATOM     17  O   UNL     1      49.414   6.516  15.101  0.00  0.00    +0.000 OA
ATOM     18  C   UNL     1      48.405   5.917  15.462  0.00  0.00    +0.000 C 
ATOM     19  N   UNL     1      47.251   5.906  14.728  0.00  0.00    +0.000 N 
ATOM     20  H   UNL     1      46.400   5.550  15.147  0.00  0.00    +0.000 HD
BRANCH  18  21
ATOM     21  C   UNL     1      48.386   5.116  16.695  0.00  0.00    +0.000 A 
ATOM     22  C   UNL     1      48.135   3.751  16.628  0.00  0.00    +0.000 A 
ATOM     23  S   UNL     1      48.137   2.981  18.150  0.00  0.00    +0.000 S 
ATOM     24  C   UNL     1      48.517   4.436  18.949  0.00  0.00    +0.000 A 
ATOM     25  N   UNL     1      48.697   4.466  20.296  0.00  0.00    +0.000 NA
ATOM     26  C   UNL     1      49.020   5.626  20.765  0.00  0.00    +0.000 A 
ATOM     27  N   UNL     1      49.165   6.760  20.011  0.00  0.00    +0.000 N 
ATOM     28  C   UNL     1      48.913   6.792  18.661  0.00  0.00    +0.000 A 
ATOM     29  O   UNL     1      48.909   7.861  18.054  0.00  0.00    +0.000 OA
ATOM     30  C   UNL     1      48.605   5.502  18.071  0.00  0.00    +0.000 A 
ATOM     31  H   UNL     1      49.380   7.645  20.443  0.00  0.00    +0.000 HD
ENDBRANCH  18  21
ENDBRANCH   1  19
TORSDOF 6
ENDMDL
MODEL 3
REMARK VINA RESULT:    -7.959      2.271      3.073
REMARK INTER + INTRA:         -11.180
REMARK INTER:                 -10.396
REMARK INTRA:                  -0.783
REMARK UNBOUND:                -0.661
REMARK  Name = 
REMARK  6 active torsions:
REMARK  status: ('A' for Active; 'I' for Inactive)
REMARK    1  A    between atoms: C_2  and  C_19
REMARK    2  A    between atoms: N_3  and  C_4
REMARK    3  A    between atoms: C_4  and  C_5
REMARK    4  A    between atoms: C_8  and  C_9
REMARK    5  A    between atoms: C_9  and  O_10
REMARK    6  A    between atoms: C_9  and  C_11
REMARK                            x       y       z     vdW  Elec       q    Type
REMARK                         _______ _______ _______ _____ _____    ______ ____
ROOT
ATOM      1  C   UNL     1      48.332   6.930  14.038  0.00  0.00    +0.000 C 
ENDROOT
BRANCH   1   2
ATOM      2  C   UNL     1      47.278   6.294  13.172  0.00  0.00    +0.000 A 
ATOM      3  C   UNL     1      46.871   6.914  11.986  0.00  0.00    +0.000 A 
ATOM      4  C   UNL     1      45.922   6.311  11.156  0.00  0.00    +0.000 A 
ATOM      5  C   UNL     1      45.350   5.078  11.504  0.00  0.00    +0.000 A 
ATOM      6  C   UNL     1      45.727   4.482  12.718  0.00  0.00    +0.000 A 
ATOM      7  C   UNL     1      46.677   5.086  13.545  0.00  0.00    +0.000 A 
BRANCH   5   8
ATOM      8  C   UNL     1      44.393   4.385  10.556  0.00  0.00    +0.000 C 
BRANCH   8   9
ATOM      9  C   UNL     1      45.057   3.728   9.352  0.00  0.00    +0.000 A 
ATOM     10  N   UNL     1      45.271   2.387   9.395  0.00  0.00    +0.000 NA
ATOM     11  C   UNL     1      45.938   1.884   8.336  0.00  0.00    +0.000 A 
ATOM     12  C   UNL     1      46.380   2.663   7.294  0.00  0.00    +0.000 A 
ATOM     13  N   UNL     1      46.146   3.984   7.288  0.00  0.00    +0.000 NA
ATOM     14  N   UNL     1      45.469   4.527   8.337  0.00  0.00    +0.000 NA
ENDBRANCH   8   9
BRANCH   8  15
ATOM     15  O   UNL     1      43.426   5.373  10.151  0.00  0.00    +0.000 OA
ATOM     16  H   UNL     1      43.470   6.067  10.837  0.00  0.00    +0.000 HD
ENDBRANCH   8  15
ENDBRANCH   5   8
ENDBRANCH   1   2
BRANCH   1  19
ATOM     17  O   UNL     1      50.392   6.290  15.866  0.00  0.00    +0.000 OA
ATOM     18  C   UNL     1      49.227   6.299  16.252  0.00  0.00    +0.000 C 
ATOM     19  N   UNL     1      48.173   6.551  15.417  0.00  0.00    +0.000 N 
ATOM     20  H   UNL     1      47.256   6.721  15.812  0.00  0.00    +0.000 HD
BRANCH  18  21
ATOM     21  C   UNL     1      48.875   5.981  17.645  0.00  0.00    +0.000 A 
ATOM     22  C   UNL     1      49.108   4.706  18.142  0.00  0.00    +0.000 A 
ATOM     23  S   UNL     1      48.630   4.508  19.768  0.00  0.00    +0.000 S 
ATOM     24  C   UNL     1      48.136   6.134  19.879  0.00  0.00    +0.000 A 
ATOM     25  N   UNL     1      47.647   6.637  21.044  0.00  0.00    +0.000 NA
ATOM     26  C   UNL     1      47.348   7.893  20.998  0.00  0.00    +0.000 A 
ATOM     27  N   UNL     1      47.481   8.687  19.890  0.00  0.00    +0.000 N 
ATOM     28  C   UNL     1      47.892   8.202  18.672  0.00  0.00    +0.000 A 
ATOM     29  O   UNL     1      47.851   8.915  17.672  0.00  0.00    +0.000 OA
ATOM     30  C   UNL     1      48.299   6.809  18.682  0.00  0.00    +0.000 A 
ATOM     31  H   UNL     1      47.192   9.653  19.907  0.00  0.00    +0.000 HD
ENDBRANCH  18  21
ENDBRANCH   1  19
TORSDOF 6
ENDMDL
MODEL 4
REMARK VINA RESULT:    -7.937      1.101      1.663
REMARK INTER + INTRA:         -11.150
REMARK INTER:                 -10.356
REMARK INTRA:                  -0.794
REMARK UNBOUND:                -0.661
REMARK  Name = 
REMARK  6 active torsions:
REMARK  status: ('A' for Active; 'I' for Inactive)
REMARK    1  A    between atoms: C_2  and  C_19
REMARK    2  A    between atoms: N_3  and  C_4
REMARK    3  A    between atoms: C_4  and  C_5
REMARK    4  A    between atoms: C_8  and  C_9
REMARK    5  A    between atoms: C_9  and  O_10
REMARK    6  A    between atoms: C_9  and  C_11
REMARK                            x       y       z     vdW  Elec       q    Type
REMARK                         _______ _______ _______ _____ _____    ______ ____
ROOT
ATOM      1  C   UNL     1      47.523   8.019  13.652  0.00  0.00    +0.000 C 
ENDROOT
BRANCH   1   2
ATOM      2  C   UNL     1      46.654   7.094  12.843  0.00  0.00    +0.000 A 
ATOM      3  C   UNL     1      45.740   7.613  11.920  0.00  0.00    +0.000 A 
ATOM      4  C   UNL     1      44.958   6.760  11.136  0.00  0.00    +0.000 A 
ATOM      5  C   UNL     1      45.065   5.368  11.269  0.00  0.00    +0.000 A 
ATOM      6  C   UNL     1      45.951   4.852  12.230  0.00  0.00    +0.000 A 
ATOM      7  C   UNL     1      46.733   5.706  13.011  0.00  0.00    +0.000 A 
BRANCH   5   8
ATOM      8  C   UNL     1      44.284   4.450  10.352  0.00  0.00    +0.000 C 
BRANCH   8   9
ATOM      9  C   UNL     1      45.105   3.824   9.231  0.00  0.00    +0.000 A 
ATOM     10  N   UNL     1      45.264   2.475   9.233  0.00  0.00    +0.000 NA
ATOM     11  C   UNL     1      46.071   1.996   8.264  0.00  0.00    +0.000 A 
ATOM     12  C   UNL     1      46.697   2.805   7.347  0.00  0.00    +0.000 A 
ATOM     13  N   UNL     1      46.511   4.134   7.377  0.00  0.00    +0.000 NA
ATOM     14  N   UNL     1      45.698   4.654   8.337  0.00  0.00    +0.000 NA
ENDBRANCH   8   9
BRANCH   8  15
ATOM     15  O   UNL     1      43.185   5.224   9.833  0.00  0.00    +0.000 OA
ATOM     16  H   UNL     1      43.588   6.057   9.521  0.00  0.00    +0.000 HD
ENDBRANCH   8  15
ENDBRANCH   5   8
ENDBRANCH   1   2
BRANCH   1  19
ATOM     17  O   UNL     1      50.075   7.074  14.421  0.00  0.00    +0.000 OA
ATOM     18  C   UNL     1      49.151   7.035  15.228  0.00  0.00    +0.000 C 
ATOM     19  N   UNL     1      47.878   7.428  14.915  0.00  0.00    +0.000 N 
ATOM     20  H   UNL     1      47.199   7.544  15.657  0.00  0.00    +0.000 HD
BRANCH  18  21
ATOM     21  C   UNL     1      49.339   6.505  16.588  0.00  0.00    +0.000 A 
ATOM     22  C   UNL     1      50.048   7.244  17.526  0.00  0.00    +0.000 A 
ATOM     23  S   UNL     1      50.181   6.476  19.043  0.00  0.00    +0.000 S 
ATOM     24  C   UNL     1      49.258   5.147  18.514  0.00  0.00    +0.000 A 
ATOM     25  N   UNL     1      48.964   4.121  19.356  0.00  0.00    +0.000 NA
ATOM     26  C   UNL     1      48.224   3.199  18.836  0.00  0.00    +0.000 A 
ATOM     27  N   UNL     1      47.763   3.203  17.546  0.00  0.00    +0.000 N 
ATOM     28  C   UNL     1      48.102   4.177  16.638  0.00  0.00    +0.000 A 
ATOM     29  O   UNL     1      47.791   4.061  15.455  0.00  0.00    +0.000 OA
ATOM     30  C   UNL     1      48.884   5.270  17.187  0.00  0.00    +0.000 A 
ATOM     31  H   UNL     1      47.220   2.433  17.187  0.00  0.00    +0.000 HD
ENDBRANCH  18  21
ENDBRANCH   1  19
TORSDOF 6
ENDMDL
MODEL 5
REMARK VINA RESULT:    -7.807      2.365      4.332
REMARK INTER + INTRA:         -10.978
REMARK INTER:                  -9.962
REMARK INTRA:                  -1.016
REMARK UNBOUND:                -0.661
REMARK  Name = 
REMARK  6 active torsions:
REMARK  status: ('A' for Active; 'I' for Inactive)
REMARK    1  A    between atoms: C_2  and  C_19
REMARK    2  A    between atoms: N_3  and  C_4
REMARK    3  A    between atoms: C_4  and  C_5
REMARK    4  A    between atoms: C_8  and  C_9
REMARK    5  A    between atoms: C_9  and  O_10
REMARK    6  A    between atoms: C_9  and  C_11
REMARK                            x       y       z     vdW  Elec       q    Type
REMARK                         _______ _______ _______ _____ _____    ______ ____
ROOT
ATOM      1  C   UNL     1      46.840   4.959  14.426  0.00  0.00    +0.000 C 
ENDROOT
BRANCH   1   2
ATOM      2  C   UNL     1      46.157   4.591  13.136  0.00  0.00    +0.000 A 
ATOM      3  C   UNL     1      45.943   5.560  12.150  0.00  0.00    +0.000 A 
ATOM      4  C   UNL     1      45.345   5.219  10.934  0.00  0.00    +0.000 A 
ATOM      5  C   UNL     1      44.939   3.900  10.683  0.00  0.00    +0.000 A 
ATOM      6  C   UNL     1      45.114   2.940  11.693  0.00  0.00    +0.000 A 
ATOM      7  C   UNL     1      45.713   3.283  12.908  0.00  0.00    +0.000 A 
BRANCH   5   8
ATOM      8  C   UNL     1      44.379   3.517   9.329  0.00  0.00    +0.000 C 
BRANCH   8   9
ATOM      9  C   UNL     1      45.416   3.007   8.335  0.00  0.00    +0.000 A 
ATOM     10  N   UNL     1      45.834   1.720   8.454  0.00  0.00    +0.000 NA
ATOM     11  C   UNL     1      46.812   1.358   7.598  0.00  0.00    +0.000 A 
ATOM     12  C   UNL     1      47.358   2.223   6.681  0.00  0.00    +0.000 A 
ATOM     13  N   UNL     1      46.915   3.487   6.593  0.00  0.00    +0.000 NA
ATOM     14  N   UNL     1      45.923   3.886   7.436  0.00  0.00    +0.000 NA
ENDBRANCH   8   9
BRANCH   8  15
ATOM     15  O   UNL     1      43.691   4.679   8.824  0.00  0.00    +0.000 OA
ATOM     16  H   UNL     1      44.016   5.421   9.368  0.00  0.00    +0.000 HD
ENDBRANCH   8  15
ENDBRANCH   5   8
ENDBRANCH   1   2
BRANCH   1  19
ATOM     17  O   UNL     1      49.212   5.971  15.585  0.00  0.00    +0.000 OA
ATOM     18  C   UNL     1      48.483   6.727  14.950  0.00  0.00    +0.000 C 
ATOM     19  N   UNL     1      47.296   6.324  14.402  0.00  0.00    +0.000 N 
ATOM     20  H   UNL     1      46.822   6.930  13.745  0.00  0.00    +0.000 HD
BRANCH  18  21
ATOM     21  C   UNL     1      48.813   8.151  14.780  0.00  0.00    +0.000 A 
ATOM     22  C   UNL     1      48.944   8.968  15.896  0.00  0.00    +0.000 A 
ATOM     23  S   UNL     1      49.315  10.588  15.516  0.00  0.00    +0.000 S 
ATOM     24  C   UNL     1      49.359  10.247  13.849  0.00  0.00    +0.000 A 
ATOM     25  N   UNL     1      49.661  11.218  12.946  0.00  0.00    +0.000 NA
ATOM     26  C   UNL     1      49.698  10.811  11.720  0.00  0.00    +0.000 A 
ATOM     27  N   UNL     1      49.445   9.527  11.315  0.00  0.00    +0.000 N 
ATOM     28  C   UNL     1      49.057   8.536  12.183  0.00  0.00    +0.000 A 
ATOM     29  O   UNL     1      48.695   7.442  11.757  0.00  0.00    +0.000 OA
ATOM     30  C   UNL     1      49.058   8.923  13.582  0.00  0.00    +0.000 A 
ATOM     31  H   UNL     1      49.451   9.282  10.337  0.00  0.00    +0.000 HD
ENDBRANCH  18  21
ENDBRANCH   1  19
TORSDOF 6
ENDMDL
MODEL 6
REMARK VINA RESULT:    -7.432      4.131      8.817
REMARK INTER + INTRA:         -10.482
REMARK INTER:                 -10.014
REMARK INTRA:                  -0.468
REMARK UNBOUND:                -0.661
REMARK  Name = 
REMARK  6 active torsions:
REMARK  status: ('A' for Active; 'I' for Inactive)
REMARK    1  A    between atoms: C_2  and  C_19
REMARK    2  A    between atoms: N_3  and  C_4
REMARK    3  A    between atoms: C_4  and  C_5
REMARK    4  A    between atoms: C_8  and  C_9
REMARK    5  A    between atoms: C_9  and  O_10
REMARK    6  A    between atoms: C_9  and  C_11
REMARK                            x       y       z     vdW  Elec       q    Type
REMARK                         _______ _______ _______ _____ _____    ______ ____
ROOT
ATOM      1  C   UNL     1      47.146   3.328  16.858  0.00  0.00    +0.000 C 
ENDROOT
BRANCH   1   2
ATOM      2  C   UNL     1      48.618   3.324  17.171  0.00  0.00    +0.000 A 
ATOM      3  C   UNL     1      49.236   4.475  17.672  0.00  0.00    +0.000 A 
ATOM      4  C   UNL     1      50.593   4.468  18.003  0.00  0.00    +0.000 A 
ATOM      5  C   UNL     1      51.365   3.309  17.828  0.00  0.00    +0.000 A 
ATOM      6  C   UNL     1      50.752   2.170  17.282  0.00  0.00    +0.000 A 
ATOM      7  C   UNL     1      49.394   2.179  16.953  0.00  0.00    +0.000 A 
BRANCH   5   8
ATOM      8  C   UNL     1      52.812   3.280  18.277  0.00  0.00    +0.000 C 
BRANCH   8   9
ATOM      9  C   UNL     1      53.539   1.972  17.989  0.00  0.00    +0.000 A 
ATOM     10  N   UNL     1      54.469   1.963  16.999  0.00  0.00    +0.000 NA
ATOM     11  C   UNL     1      55.012   0.756  16.740  0.00  0.00    +0.000 A 
ATOM     12  C   UNL     1      54.650  -0.385  17.414  0.00  0.00    +0.000 A 
ATOM     13  N   UNL     1      53.729  -0.334  18.388  0.00  0.00    +0.000 NA
ATOM     14  N   UNL     1      53.163   0.869  18.683  0.00  0.00    +0.000 NA
ENDBRANCH   8   9
BRANCH   8  15
ATOM     15  O   UNL     1      52.813   3.586  19.685  0.00  0.00    +0.000 OA
ATOM     16  H   UNL     1      53.427   4.340  19.779  0.00  0.00    +0.000 HD
ENDBRANCH   8  15
ENDBRANCH   5   8
ENDBRANCH   1   2
BRANCH   1  19
ATOM     17  O   UNL     1      47.276   3.047  14.047  0.00  0.00    +0.000 OA
ATOM     18  C   UNL     1      46.872   4.101  14.528  0.00  0.00    +0.000 C 
ATOM     19  N   UNL     1      46.826   4.331  15.876  0.00  0.00    +0.000 N 
ATOM     20  H   UNL     1      46.324   5.138  16.225  0.00  0.00    +0.000 HD
BRANCH  18  21
ATOM     21  C   UNL     1      46.455   5.225  13.675  0.00  0.00    +0.000 A 
ATOM     22  C   UNL     1      47.324   6.287  13.457  0.00  0.00    +0.000 A 
ATOM     23  S   UNL     1      46.675   7.506  12.456  0.00  0.00    +0.000 S 
ATOM     24  C   UNL     1      45.226   6.639  12.241  0.00  0.00    +0.000 A 
ATOM     25  N   UNL     1      44.234   7.122  11.448  0.00  0.00    +0.000 NA
ATOM     26  C   UNL     1      43.208   6.344  11.343  0.00  0.00    +0.000 A 
ATOM     27  N   UNL     1      43.079   5.133  11.971  0.00  0.00    +0.000 N 
ATOM     28  C   UNL     1      44.020   4.645  12.845  0.00  0.00    +0.000 A 
ATOM     29  O   UNL     1      43.795   3.629  13.499  0.00  0.00    +0.000 OA
ATOM     30  C   UNL     1      45.222   5.452  12.953  0.00  0.00    +0.000 A 
ATOM     31  H   UNL     1      42.235   4.590  11.880  0.00  0.00    +0.000 HD
ENDBRANCH  18  21
ENDBRANCH   1  19
TORSDOF 6
ENDMDL
MODEL 7
REMARK VINA RESULT:    -7.361      2.772      3.981
REMARK INTER + INTRA:         -10.389
REMARK INTER:                  -9.466
REMARK INTRA:                  -0.923
REMARK UNBOUND:                -0.661
REMARK  Name = 
REMARK  6 active torsions:
REMARK  status: ('A' for Active; 'I' for Inactive)
REMARK    1  A    between atoms: C_2  and  C_19
REMARK    2  A    between atoms: N_3  and  C_4
REMARK    3  A    between atoms: C_4  and  C_5
REMARK    4  A    between atoms: C_8  and  C_9
REMARK    5  A    between atoms: C_9  and  O_10
REMARK    6  A    between atoms: C_9  and  C_11
REMARK                            x       y       z     vdW  Elec       q    Type
REMARK                         _______ _______ _______ _____ _____    ______ ____
ROOT
ATOM      1  C   UNL     1      46.727   5.685  13.984  0.00  0.00    +0.000 C 
ENDROOT
BRANCH   1   2
ATOM      2  C   UNL     1      46.104   5.084  12.753  0.00  0.00    +0.000 A 
ATOM      3  C   UNL     1      45.964   5.849  11.589  0.00  0.00    +0.000 A 
ATOM      4  C   UNL     1      45.423   5.288  10.429  0.00  0.00    +0.000 A 
ATOM      5  C   UNL     1      45.000   3.950  10.413  0.00  0.00    +0.000 A 
ATOM      6  C   UNL     1      45.101   3.200  11.596  0.00  0.00    +0.000 A 
ATOM      7  C   UNL     1      45.642   3.762  12.754  0.00  0.00    +0.000 A 
BRANCH   5   8
ATOM      8  C   UNL     1      44.503   3.322   9.127  0.00  0.00    +0.000 C 
BRANCH   8   9
ATOM      9  C   UNL     1      45.590   2.678   8.275  0.00  0.00    +0.000 A 
ATOM     10  N   UNL     1      45.832   1.352   8.444  0.00  0.00    +0.000 NA
ATOM     11  C   UNL     1      46.862   0.865   7.722  0.00  0.00    +0.000 A 
ATOM     12  C   UNL     1      47.620   1.645   6.883  0.00  0.00    +0.000 A 
ATOM     13  N   UNL     1      47.346   2.951   6.741  0.00  0.00    +0.000 NA
ATOM     14  N   UNL     1      46.309   3.478   7.449  0.00  0.00    +0.000 NA
ENDBRANCH   8   9
BRANCH   8  15
ATOM     15  O   UNL     1      43.809   4.357   8.404  0.00  0.00    +0.000 OA
ATOM     16  H   UNL     1      43.667   5.069   9.056  0.00  0.00    +0.000 HD
ENDBRANCH   8  15
ENDBRANCH   5   8
ENDBRANCH   1   2
BRANCH   1  19
ATOM     17  O   UNL     1      47.079   8.490  13.969  0.00  0.00    +0.000 OA
ATOM     18  C   UNL     1      48.036   7.763  13.722  0.00  0.00    +0.000 C 
ATOM     19  N   UNL     1      47.933   6.400  13.662  0.00  0.00    +0.000 N 
ATOM     20  H   UNL     1      48.776   5.839  13.630  0.00  0.00    +0.000 HD
BRANCH  18  21
ATOM     21  C   UNL     1      49.364   8.317  13.414  0.00  0.00    +0.000 A 
ATOM     22  C   UNL     1      49.517   9.193  12.347  0.00  0.00    +0.000 A 
ATOM     23  S   UNL     1      51.121   9.727  12.126  0.00  0.00    +0.000 S 
ATOM     24  C   UNL     1      51.662   8.841  13.475  0.00  0.00    +0.000 A 
ATOM     25  N   UNL     1      52.964   8.888  13.865  0.00  0.00    +0.000 NA
ATOM     26  C   UNL     1      53.228   8.200  14.926  0.00  0.00    +0.000 A 
ATOM     27  N   UNL     1      52.311   7.458  15.624  0.00  0.00    +0.000 N 
ATOM     28  C   UNL     1      51.006   7.317  15.219  0.00  0.00    +0.000 A 
ATOM     29  O   UNL     1      50.260   6.524  15.788  0.00  0.00    +0.000 OA
ATOM     30  C   UNL     1      50.640   8.118  14.065  0.00  0.00    +0.000 A 
ATOM     31  H   UNL     1      52.588   6.911  16.423  0.00  0.00    +0.000 HD
ENDBRANCH  18  21
ENDBRANCH   1  19
TORSDOF 6
ENDMDL
MODEL 8
REMARK VINA RESULT:    -7.167      2.643      3.936
REMARK INTER + INTRA:         -10.132
REMARK INTER:                  -9.385
REMARK INTRA:                  -0.747
REMARK UNBOUND:                -0.661
REMARK  Name = 
REMARK  6 active torsions:
REMARK  status: ('A' for Active; 'I' for Inactive)
REMARK    1  A    between atoms: C_2  and  C_19
REMARK    2  A    between atoms: N_3  and  C_4
REMARK    3  A    between atoms: C_4  and  C_5
REMARK    4  A    between atoms: C_8  and  C_9
REMARK    5  A    between atoms: C_9  and  O_10
REMARK    6  A    between atoms: C_9  and  C_11
REMARK                            x       y       z     vdW  Elec       q    Type
REMARK                         _______ _______ _______ _____ _____    ______ ____
ROOT
ATOM      1  C   UNL     1      47.649   4.009  15.671  0.00  0.00    +0.000 C 
ENDROOT
BRANCH   1   2
ATOM      2  C   UNL     1      46.937   4.376  14.397  0.00  0.00    +0.000 A 
ATOM      3  C   UNL     1      46.364   3.381  13.597  0.00  0.00    +0.000 A 
ATOM      4  C   UNL     1      45.667   3.717  12.433  0.00  0.00    +0.000 A 
ATOM      5  C   UNL     1      45.539   5.057  12.038  0.00  0.00    +0.000 A 
ATOM      6  C   UNL     1      46.155   6.048  12.819  0.00  0.00    +0.000 A 
ATOM      7  C   UNL     1      46.850   5.711  13.983  0.00  0.00    +0.000 A 
BRANCH   5   8
ATOM      8  C   UNL     1      44.703   5.420  10.829  0.00  0.00    +0.000 C 
BRANCH   8   9
ATOM      9  C   UNL     1      45.065   4.664   9.556  0.00  0.00    +0.000 A 
ATOM     10  N   UNL     1      44.483   3.454   9.346  0.00  0.00    +0.000 NA
ATOM     11  C   UNL     1      44.911   2.801   8.246  0.00  0.00    +0.000 A 
ATOM     12  C   UNL     1      45.870   3.309   7.403  0.00  0.00    +0.000 A 
ATOM     13  N   UNL     1      46.419   4.510   7.645  0.00  0.00    +0.000 NA
ATOM     14  N   UNL     1      46.007   5.202   8.742  0.00  0.00    +0.000 NA
ENDBRANCH   8   9
BRANCH   8  15
ATOM     15  O   UNL     1      44.832   6.844  10.651  0.00  0.00    +0.000 OA
ATOM     16  H   UNL     1      44.017   7.222  11.033  0.00  0.00    +0.000 HD
ENDBRANCH   8  15
ENDBRANCH   5   8
ENDBRANCH   1   2
BRANCH   1  19
ATOM     17  O   UNL     1      49.801   5.566  16.639  0.00  0.00    +0.000 OA
ATOM     18  C   UNL     1      48.661   5.814  17.019  0.00  0.00    +0.000 C 
ATOM     19  N   UNL     1      47.576   5.075  16.634  0.00  0.00    +0.000 N 
ATOM     20  H   UNL     1      46.645   5.423  16.830  0.00  0.00    +0.000 HD
BRANCH  18  21
ATOM     21  C   UNL     1      48.388   6.902  17.971  0.00  0.00    +0.000 A 
ATOM     22  C   UNL     1      48.287   6.624  19.328  0.00  0.00    +0.000 A 
ATOM     23  S   UNL     1      47.955   7.997  20.284  0.00  0.00    +0.000 S 
ATOM     24  C   UNL     1      47.977   9.020  18.923  0.00  0.00    +0.000 A 
ATOM     25  N   UNL     1      47.790  10.360  19.054  0.00  0.00    +0.000 NA
ATOM     26  C   UNL     1      47.871  11.021  17.946  0.00  0.00    +0.000 A 
ATOM     27  N   UNL     1      48.108  10.460  16.719  0.00  0.00    +0.000 N 
ATOM     28  C   UNL     1      48.222   9.104  16.530  0.00  0.00    +0.000 A 
ATOM     29  O   UNL     1      48.283   8.637  15.395  0.00  0.00    +0.000 OA
ATOM     30  C   UNL     1      48.198   8.319  17.750  0.00  0.00    +0.000 A 
ATOM     31  H   UNL     1      48.121  11.026  15.885  0.00  0.00    +0.000 HD
ENDBRANCH  18  21
ENDBRANCH   1  19
TORSDOF 6
ENDMDL
MODEL 9
REMARK VINA RESULT:    -7.108      3.971      8.856
REMARK INTER + INTRA:         -10.054
REMARK INTER:                  -9.246
REMARK INTRA:                  -0.809
REMARK UNBOUND:                -0.661
REMARK  Name = 
REMARK  6 active torsions:
REMARK  status: ('A' for Active; 'I' for Inactive)
REMARK    1  A    between atoms: C_2  and  C_19
REMARK    2  A    between atoms: N_3  and  C_4
REMARK    3  A    between atoms: C_4  and  C_5
REMARK    4  A    between atoms: C_8  and  C_9
REMARK    5  A    between atoms: C_9  and  O_10
REMARK    6  A    between atoms: C_9  and  C_11
REMARK                            x       y       z     vdW  Elec       q    Type
REMARK                         _______ _______ _______ _____ _____    ______ ____
ROOT
ATOM      1  C   UNL     1      47.145   3.366  16.837  0.00  0.00    +0.000 C 
ENDROOT
BRANCH   1   2
ATOM      2  C   UNL     1      48.587   3.498  17.250  0.00  0.00    +0.000 A 
ATOM      3  C   UNL     1      49.032   4.658  17.894  0.00  0.00    +0.000 A 
ATOM      4  C   UNL     1      50.359   4.773  18.316  0.00  0.00    +0.000 A 
ATOM      5  C   UNL     1      51.273   3.732  18.093  0.00  0.00    +0.000 A 
ATOM      6  C   UNL     1      50.832   2.588  17.406  0.00  0.00    +0.000 A 
ATOM      7  C   UNL     1      49.505   2.475  16.986  0.00  0.00    +0.000 A 
BRANCH   5   8
ATOM      8  C   UNL     1      52.684   3.823  18.636  0.00  0.00    +0.000 C 
BRANCH   8   9
ATOM      9  C   UNL     1      53.732   4.242  17.613  0.00  0.00    +0.000 A 
ATOM     10  N   UNL     1      54.758   3.387  17.363  0.00  0.00    +0.000 NA
ATOM     11  C   UNL     1      55.694   3.854  16.512  0.00  0.00    +0.000 A 
ATOM     12  C   UNL     1      55.629   5.104  15.945  0.00  0.00    +0.000 A 
ATOM     13  N   UNL     1      54.597   5.918  16.215  0.00  0.00    +0.000 NA
ATOM     14  N   UNL     1      53.628   5.478  17.064  0.00  0.00    +0.000 NA
ENDBRANCH   8   9
BRANCH   8  15
ATOM     15  O   UNL     1      52.989   2.536  19.208  0.00  0.00    +0.000 OA
ATOM     16  H   UNL     1      52.917   2.665  20.173  0.00  0.00    +0.000 HD
ENDBRANCH   8  15
ENDBRANCH   5   8
ENDBRANCH   1   2
BRANCH   1  19
ATOM     17  O   UNL     1      47.143   2.980  14.036  0.00  0.00    +0.000 OA
ATOM     18  C   UNL     1      46.780   4.059  14.494  0.00  0.00    +0.000 C 
ATOM     19  N   UNL     1      46.801   4.338  15.834  0.00  0.00    +0.000 N 
ATOM     20  H   UNL     1      46.331   5.168  16.174  0.00  0.00    +0.000 HD
BRANCH  18  21
ATOM     21  C   UNL     1      46.347   5.160  13.619  0.00  0.00    +0.000 A 
ATOM     22  C   UNL     1      47.232   6.185  13.308  0.00  0.00    +0.000 A 
ATOM     23  S   UNL     1      46.561   7.382  12.295  0.00  0.00    +0.000 S 
ATOM     24  C   UNL     1      45.079   6.550  12.199  0.00  0.00    +0.000 A 
ATOM     25  N   UNL     1      44.056   7.032  11.443  0.00  0.00    +0.000 NA
ATOM     26  C   UNL     1      43.005   6.281  11.429  0.00  0.00    +0.000 A 
ATOM     27  N   UNL     1      42.878   5.101  12.113  0.00  0.00    +0.000 N 
ATOM     28  C   UNL     1      43.854   4.620  12.953  0.00  0.00    +0.000 A 
ATOM     29  O   UNL     1      43.637   3.640  13.661  0.00  0.00    +0.000 OA
ATOM     30  C   UNL     1      45.082   5.394  12.959  0.00  0.00    +0.000 A 
ATOM     31  H   UNL     1      42.015   4.580  12.093  0.00  0.00    +0.000 HD
ENDBRANCH  18  21
ENDBRANCH   1  19
TORSDOF 6
ENDMDL
