MODEL 1
REMARK VINA RESULT:    -7.870      0.000      0.000
REMARK INTER + INTRA:         -10.491
REMARK INTER:                  -9.940
REMARK INTRA:                  -0.550
REMARK UNBOUND:                -0.550
REMARK  Name = 
REMARK  5 active torsions:
REMARK  status: ('A' for Active; 'I' for Inactive)
REMARK    1  A    between atoms: C_2  and  C_4
REMARK    2  A    between atoms: N_8  and  CA_9
REMARK    3  A    between atoms: CA_9  and  C_10
REMARK    4  A    between atoms: CA_9  and  C_12
REMARK    5  A    between atoms: C_10  and  O_11
REMARK                            x       y       z     vdW  Elec       q    Type
REMARK                         _______ _______ _______ _____ _____    ______ ____
ROOT
ATOM      1  C   UNL     1      46.358   2.731   7.603  0.00  0.00    +0.000 A 
ATOM      2  C   UNL     1      45.733   1.786   8.406  0.00  0.00    +0.000 A 
ATOM      3  C   UNL     1      44.993   2.217   9.510  0.00  0.00    +0.000 A 
ATOM      4  C   UNL     1      44.851   3.582   9.774  0.00  0.00    +0.000 A 
ATOM      5  N   UNL     1      44.206   3.962  10.958  0.00  0.00    +0.000 N 
ATOM      6  N   UNL     1      45.455   4.505   8.999  0.00  0.00    +0.000 NA
ATOM      7  C   UNL     1      46.205   4.065   7.948  0.00  0.00    +0.000 A 
ATOM      8  H   UNL     1      43.476   3.302  11.208  0.00  0.00    +0.000 HD
ENDROOT
BRANCH   1  10
ATOM      9  N   UNL     1      47.116   3.173   5.332  0.00  0.00    +0.000 N 
ATOM     10  C   UNL     1      47.203   2.376   6.443  0.00  0.00    +0.000 C 
ATOM     11  O   UNL     1      47.974   1.426   6.478  0.00  0.00    +0.000 OA
ATOM     12  H   UNL     1      47.766   2.972   4.581  0.00  0.00    +0.000 HD
ATOM     13  H   UNL     1      46.689   4.088   5.346  0.00  0.00    +0.000 HD
ENDBRANCH   1  10
BRANCH   5  14
ATOM     14  CA  UNL     1      43.678   5.338  11.013  0.00  0.00    +0.000 C 
BRANCH  14  15
ATOM     15  C   UNL     1      44.719   6.250  11.664  0.00  0.00    +0.000 A 
ATOM     16  C   UNL     1      44.723   7.612  11.379  0.00  0.00    +0.000 A 
ATOM     17  C   UNL     1      45.649   8.417  12.032  0.00  0.00    +0.000 A 
ATOM     18 CL   UNL     1      45.657  10.115  11.745  0.00  0.00    +0.000 Cl
ATOM     19  C   UNL     1      46.559   7.872  12.923  0.00  0.00    +0.000 A 
ATOM     20  C   UNL     1      46.513   6.505  13.123  0.00  0.00    +0.000 A 
ATOM     21  N   UNL     1      45.624   5.694  12.518  0.00  0.00    +0.000 NA
ENDBRANCH  14  15
BRANCH  14  22
ATOM     22  C   UNL     1      42.365   5.389  11.847  0.00  0.00    +0.000 C 
BRANCH  22  23
ATOM     23  O   UNL     1      42.587   5.441  13.260  0.00  0.00    +0.000 OA
ATOM     24  H   UNL     1      41.737   5.245  13.693  0.00  0.00    +0.000 HD
ENDBRANCH  22  23
ENDBRANCH  14  22
ENDBRANCH   5  14
TORSDOF 5
ENDMDL
MODEL 2
REMARK VINA RESULT:    -7.768      1.305      1.553
REMARK INTER + INTRA:         -10.362
REMARK INTER:                  -9.807
REMARK INTRA:                  -0.555
REMARK UNBOUND:                -0.550
REMARK  Name = 
REMARK  5 active torsions:
REMARK  status: ('A' for Active; 'I' for Inactive)
REMARK    1  A    between atoms: C_2  and  C_4
REMARK    2  A    between atoms: N_8  and  CA_9
REMARK    3  A    between atoms: CA_9  and  C_10
REMARK    4  A    between atoms: CA_9  and  C_12
REMARK    5  A    between atoms: C_10  and  O_11
REMARK                            x       y       z     vdW  Elec       q    Type
REMARK                         _______ _______ _______ _____ _____    ______ ____
ROOT
ATOM      1  C   UNL     1      46.453   2.708   7.466  0.00  0.00    +0.000 A 
ATOM      2  C   UNL     1      45.909   1.784   8.349  0.00  0.00    +0.000 A 
ATOM      3  C   UNL     1      45.194   2.247   9.457  0.00  0.00    +0.000 A 
ATOM      4  C   UNL     1      44.994   3.616   9.646  0.00  0.00    +0.000 A 
ATOM      5  N   UNL     1      44.379   4.036  10.832  0.00  0.00    +0.000 N 
ATOM      6  N   UNL     1      45.520   4.518   8.793  0.00  0.00    +0.000 NA
ATOM      7  C   UNL     1      46.248   4.052   7.738  0.00  0.00    +0.000 A 
ATOM      8  H   UNL     1      43.694   3.359  11.152  0.00  0.00    +0.000 HD
ENDROOT
BRANCH   1  10
ATOM      9  N   UNL     1      47.226   3.148   5.200  0.00  0.00    +0.000 N 
ATOM     10  C   UNL     1      47.268   2.324   6.293  0.00  0.00    +0.000 C 
ATOM     11  O   UNL     1      47.977   1.327   6.304  0.00  0.00    +0.000 OA
ATOM     12  H   UNL     1      47.859   2.921   4.440  0.00  0.00    +0.000 HD
ATOM     13  H   UNL     1      46.859   4.087   5.235  0.00  0.00    +0.000 HD
ENDBRANCH   1  10
BRANCH   5  14
ATOM     14  CA  UNL     1      43.785   5.386  10.830  0.00  0.00    +0.000 C 
BRANCH  14  15
ATOM     15  C   UNL     1      44.734   6.353  11.540  0.00  0.00    +0.000 A 
ATOM     16  C   UNL     1      45.839   5.861  12.228  0.00  0.00    +0.000 A 
ATOM     17  C   UNL     1      46.707   6.774  12.815  0.00  0.00    +0.000 A 
ATOM     18 CL   UNL     1      48.114   6.210  13.634  0.00  0.00    +0.000 Cl
ATOM     19  C   UNL     1      46.464   8.136  12.736  0.00  0.00    +0.000 A 
ATOM     20  C   UNL     1      45.325   8.541  12.066  0.00  0.00    +0.000 A 
ATOM     21  N   UNL     1      44.465   7.688  11.476  0.00  0.00    +0.000 NA
ENDBRANCH  14  15
BRANCH  14  22
ATOM     22  C   UNL     1      42.415   5.384  11.568  0.00  0.00    +0.000 C 
BRANCH  22  23
ATOM     23  O   UNL     1      42.516   5.694  12.961  0.00  0.00    +0.000 OA
ATOM     24  H   UNL     1      41.675   5.430  13.376  0.00  0.00    +0.000 HD
ENDBRANCH  22  23
ENDBRANCH  14  22
ENDBRANCH   5  14
TORSDOF 5
ENDMDL
MODEL 3
REMARK VINA RESULT:    -7.303      1.724      2.162
REMARK INTER + INTRA:          -9.775
REMARK INTER:                 -10.468
REMARK INTRA:                   0.693
REMARK UNBOUND:                -0.550
REMARK  Name = 
REMARK  5 active torsions:
REMARK  status: ('A' for Active; 'I' for Inactive)
REMARK    1  A    between atoms: C_2  and  C_4
REMARK    2  A    between atoms: N_8  and  CA_9
REMARK    3  A    between atoms: CA_9  and  C_10
REMARK    4  A    between atoms: CA_9  and  C_12
REMARK    5  A    between atoms: C_10  and  O_11
REMARK                            x       y       z     vdW  Elec       q    Type
REMARK                         _______ _______ _______ _____ _____    ______ ____
ROOT
ATOM      1  C   UNL     1      46.461   2.346   7.616  0.00  0.00    +0.000 A 
ATOM      2  C   UNL     1      46.218   3.674   7.287  0.00  0.00    +0.000 A 
ATOM      3  C   UNL     1      45.376   4.432   8.107  0.00  0.00    +0.000 A 
ATOM      4  C   UNL     1      44.825   3.871   9.261  0.00  0.00    +0.000 A 
ATOM      5  N   UNL     1      43.893   4.628   9.983  0.00  0.00    +0.000 N 
ATOM      6  N   UNL     1      45.056   2.583   9.586  0.00  0.00    +0.000 NA
ATOM      7  C   UNL     1      45.848   1.847   8.755  0.00  0.00    +0.000 A 
ATOM      8  H   UNL     1      44.105   5.619   9.933  0.00  0.00    +0.000 HD
ENDROOT
BRANCH   1  10
ATOM      9  N   UNL     1      48.335   2.010   6.100  0.00  0.00    +0.000 N 
ATOM     10  C   UNL     1      47.294   1.447   6.789  0.00  0.00    +0.000 C 
ATOM     11  O   UNL     1      47.085   0.242   6.742  0.00  0.00    +0.000 OA
ATOM     12  H   UNL     1      48.951   1.369   5.611  0.00  0.00    +0.000 HD
ATOM     13  H   UNL     1      48.688   2.934   6.298  0.00  0.00    +0.000 HD
ENDBRANCH   1  10
BRANCH   5  14
ATOM     14  CA  UNL     1      43.662   4.235  11.385  0.00  0.00    +0.000 C 
BRANCH  14  15
ATOM     15  C   UNL     1      44.892   4.601  12.218  0.00  0.00    +0.000 A 
ATOM     16  C   UNL     1      45.288   5.931  12.322  0.00  0.00    +0.000 A 
ATOM     17  C   UNL     1      46.378   6.230  13.132  0.00  0.00    +0.000 A 
ATOM     18 CL   UNL     1      46.872   7.869  13.328  0.00  0.00    +0.000 Cl
ATOM     19  C   UNL     1      47.065   5.227  13.796  0.00  0.00    +0.000 A 
ATOM     20  C   UNL     1      46.630   3.929  13.610  0.00  0.00    +0.000 A 
ATOM     21  N   UNL     1      45.573   3.599  12.843  0.00  0.00    +0.000 NA
ENDBRANCH  14  15
BRANCH  14  22
ATOM     22  C   UNL     1      43.413   2.703  11.493  0.00  0.00    +0.000 C 
BRANCH  22  23
ATOM     23  O   UNL     1      43.332   2.230  12.841  0.00  0.00    +0.000 OA
ATOM     24  H   UNL     1      42.479   2.534  13.202  0.00  0.00    +0.000 HD
ENDBRANCH  22  23
ENDBRANCH  14  22
ENDBRANCH   5  14
TORSDOF 5
ENDMDL
MODEL 4
REMARK VINA RESULT:    -6.552      3.280      6.788
REMARK INTER + INTRA:          -8.827
REMARK INTER:                  -8.371
REMARK INTRA:                  -0.456
REMARK UNBOUND:                -0.550
REMARK  Name = 
REMARK  5 active torsions:
REMARK  status: ('A' for Active; 'I' for Inactive)
REMARK    1  A    between atoms: C_2  and  C_4
REMARK    2  A    between atoms: N_8  and  CA_9
REMARK    3  A    between atoms: CA_9  and  C_10
REMARK    4  A    between atoms: CA_9  and  C_12
REMARK    5  A    between atoms: C_10  and  O_11
REMARK                            x       y       z     vdW  Elec       q    Type
REMARK                         _______ _______ _______ _____ _____    ______ ____
ROOT
ATOM      1  C   UNL     1      47.092   7.940  13.317  0.00  0.00    +0.000 A 
ATOM      2  C   UNL     1      46.025   8.558  12.678  0.00  0.00    +0.000 A 
ATOM      3  C   UNL     1      45.260   7.821  11.769  0.00  0.00    +0.000 A 
ATOM      4  C   UNL     1      45.542   6.473  11.541  0.00  0.00    +0.000 A 
ATOM      5  N   UNL     1      44.830   5.810  10.534  0.00  0.00    +0.000 N 
ATOM      6  N   UNL     1      46.577   5.867  12.158  0.00  0.00    +0.000 NA
ATOM      7  C   UNL     1      47.337   6.610  13.012  0.00  0.00    +0.000 A 
ATOM      8  H   UNL     1      43.883   6.167  10.457  0.00  0.00    +0.000 HD
ENDROOT
BRANCH   1  10
ATOM      9  N   UNL     1      47.438   9.137  15.408  0.00  0.00    +0.000 N 
ATOM     10  C   UNL     1      47.991   8.644  14.256  0.00  0.00    +0.000 C 
ATOM     11  O   UNL     1      49.189   8.759  14.033  0.00  0.00    +0.000 OA
ATOM     12  H   UNL     1      48.082   9.535  16.083  0.00  0.00    +0.000 HD
ATOM     13  H   UNL     1      46.528   8.856  15.743  0.00  0.00    +0.000 HD
ENDBRANCH   1  10
BRANCH   5  14
ATOM     14  CA  UNL     1      44.807   4.337  10.596  0.00  0.00    +0.000 C 
BRANCH  14  15
ATOM     15  C   UNL     1      45.463   3.770   9.336  0.00  0.00    +0.000 A 
ATOM     16  C   UNL     1      45.677   2.400   9.222  0.00  0.00    +0.000 A 
ATOM     17  C   UNL     1      46.226   1.917   8.039  0.00  0.00    +0.000 A 
ATOM     18 CL   UNL     1      46.462   0.223   7.837  0.00  0.00    +0.000 Cl
ATOM     19  C   UNL     1      46.572   2.781   7.013  0.00  0.00    +0.000 A 
ATOM     20  C   UNL     1      46.362   4.131   7.221  0.00  0.00    +0.000 A 
ATOM     21  N   UNL     1      45.823   4.637   8.347  0.00  0.00    +0.000 NA
ENDBRANCH  14  15
BRANCH  14  22
ATOM     22  C   UNL     1      43.344   3.814  10.686  0.00  0.00    +0.000 C 
BRANCH  22  23
ATOM     23  O   UNL     1      42.627   4.313  11.818  0.00  0.00    +0.000 OA
ATOM     24  H   UNL     1      43.108   4.024  12.615  0.00  0.00    +0.000 HD
ENDBRANCH  22  23
ENDBRANCH  14  22
ENDBRANCH   5  14
TORSDOF 5
ENDMDL
MODEL 5
REMARK VINA RESULT:    -6.511      3.444      6.218
REMARK INTER + INTRA:          -8.774
REMARK INTER:                  -9.259
REMARK INTRA:                   0.484
REMARK UNBOUND:                -0.550
REMARK  Name = 
REMARK  5 active torsions:
REMARK  status: ('A' for Active; 'I' for Inactive)
REMARK    1  A    between atoms: C_2  and  C_4
REMARK    2  A    between atoms: N_8  and  CA_9
REMARK    3  A    between atoms: CA_9  and  C_10
REMARK    4  A    between atoms: CA_9  and  C_12
REMARK    5  A    between atoms: C_10  and  O_11
REMARK                            x       y       z     vdW  Elec       q    Type
REMARK                         _______ _______ _______ _____ _____    ______ ____
ROOT
ATOM      1  C   UNL     1      47.172   5.473  13.690  0.00  0.00    +0.000 A 
ATOM      2  C   UNL     1      47.207   4.111  13.961  0.00  0.00    +0.000 A 
ATOM      3  C   UNL     1      46.298   3.268  13.317  0.00  0.00    +0.000 A 
ATOM      4  C   UNL     1      45.397   3.785  12.382  0.00  0.00    +0.000 A 
ATOM      5  N   UNL     1      44.426   2.925  11.855  0.00  0.00    +0.000 N 
ATOM      6  N   UNL     1      45.357   5.106  12.115  0.00  0.00    +0.000 NA
ATOM      7  C   UNL     1      46.225   5.920  12.781  0.00  0.00    +0.000 A 
ATOM      8  H   UNL     1      44.780   1.977  11.772  0.00  0.00    +0.000 HD
ENDROOT
BRANCH   1  10
ATOM      9  N   UNL     1      48.234   6.326  15.707  0.00  0.00    +0.000 N 
ATOM     10  C   UNL     1      48.055   6.454  14.355  0.00  0.00    +0.000 C 
ATOM     11  O   UNL     1      48.631   7.331  13.724  0.00  0.00    +0.000 OA
ATOM     12  H   UNL     1      48.913   6.948  16.133  0.00  0.00    +0.000 HD
ATOM     13  H   UNL     1      47.984   5.491  16.216  0.00  0.00    +0.000 HD
ENDBRANCH   1  10
BRANCH   5  14
ATOM     14  CA  UNL     1      43.793   3.336  10.588  0.00  0.00    +0.000 C 
BRANCH  14  15
ATOM     15  C   UNL     1      44.809   3.206   9.453  0.00  0.00    +0.000 A 
ATOM     16  C   UNL     1      45.324   1.955   9.123  0.00  0.00    +0.000 A 
ATOM     17  C   UNL     1      46.204   1.869   8.050  0.00  0.00    +0.000 A 
ATOM     18 CL   UNL     1      46.826   0.334   7.578  0.00  0.00    +0.000 Cl
ATOM     19  C   UNL     1      46.575   3.002   7.345  0.00  0.00    +0.000 A 
ATOM     20  C   UNL     1      46.048   4.210   7.759  0.00  0.00    +0.000 A 
ATOM     21  N   UNL     1      45.185   4.334   8.786  0.00  0.00    +0.000 NA
ENDBRANCH  14  15
BRANCH  14  22
ATOM     22  C   UNL     1      43.309   4.813  10.670  0.00  0.00    +0.000 C 
BRANCH  22  23
ATOM     23  O   UNL     1      42.280   5.025  11.641  0.00  0.00    +0.000 OA
ATOM     24  H   UNL     1      42.189   5.988  11.759  0.00  0.00    +0.000 HD
ENDBRANCH  22  23
ENDBRANCH  14  22
ENDBRANCH   5  14
TORSDOF 5
ENDMDL
MODEL 6
REMARK VINA RESULT:    -6.082      3.330      6.212
REMARK INTER + INTRA:          -8.232
REMARK INTER:                  -7.846
REMARK INTRA:                  -0.386
REMARK UNBOUND:                -0.550
REMARK  Name = 
REMARK  5 active torsions:
REMARK  status: ('A' for Active; 'I' for Inactive)
REMARK    1  A    between atoms: C_2  and  C_4
REMARK    2  A    between atoms: N_8  and  CA_9
REMARK    3  A    between atoms: CA_9  and  C_10
REMARK    4  A    between atoms: CA_9  and  C_12
REMARK    5  A    between atoms: C_10  and  O_11
REMARK                            x       y       z     vdW  Elec       q    Type
REMARK                         _______ _______ _______ _____ _____    ______ ____
ROOT
ATOM      1  C   UNL     1      48.160   8.261  12.650  0.00  0.00    +0.000 A 
ATOM      2  C   UNL     1      47.145   9.093  12.194  0.00  0.00    +0.000 A 
ATOM      3  C   UNL     1      45.955   8.522  11.735  0.00  0.00    +0.000 A 
ATOM      4  C   UNL     1      45.776   7.137  11.776  0.00  0.00    +0.000 A 
ATOM      5  N   UNL     1      44.620   6.603  11.193  0.00  0.00    +0.000 N 
ATOM      6  N   UNL     1      46.757   6.324  12.217  0.00  0.00    +0.000 NA
ATOM      7  C   UNL     1      47.926   6.895  12.624  0.00  0.00    +0.000 A 
ATOM      8  H   UNL     1      43.832   7.236  11.291  0.00  0.00    +0.000 HD
ENDROOT
BRANCH   1  10
ATOM      9  N   UNL     1      50.513   7.872  13.134  0.00  0.00    +0.000 N 
ATOM     10  C   UNL     1      49.473   8.762  13.108  0.00  0.00    +0.000 C 
ATOM     11  O   UNL     1      49.638   9.933  13.425  0.00  0.00    +0.000 OA
ATOM     12  H   UNL     1      51.426   8.251  13.362  0.00  0.00    +0.000 HD
ATOM     13  H   UNL     1      50.485   6.982  12.659  0.00  0.00    +0.000 HD
ENDBRANCH   1  10
BRANCH   5  14
ATOM     14  CA  UNL     1      44.229   5.246  11.617  0.00  0.00    +0.000 C 
BRANCH  14  15
ATOM     15  C   UNL     1      44.487   4.267  10.470  0.00  0.00    +0.000 A 
ATOM     16  C   UNL     1      45.287   4.651   9.398  0.00  0.00    +0.000 A 
ATOM     17  C   UNL     1      45.543   3.716   8.402  0.00  0.00    +0.000 A 
ATOM     18 CL   UNL     1      46.567   4.133   7.082  0.00  0.00    +0.000 Cl
ATOM     19  C   UNL     1      44.995   2.444   8.465  0.00  0.00    +0.000 A 
ATOM     20  C   UNL     1      44.182   2.155   9.544  0.00  0.00    +0.000 A 
ATOM     21  N   UNL     1      43.919   3.030  10.534  0.00  0.00    +0.000 NA
ENDBRANCH  14  15
BRANCH  14  22
ATOM     22  C   UNL     1      42.719   5.202  11.993  0.00  0.00    +0.000 C 
BRANCH  22  23
ATOM     23  O   UNL     1      42.472   5.388  13.389  0.00  0.00    +0.000 OA
ATOM     24  H   UNL     1      42.684   4.547  13.834  0.00  0.00    +0.000 HD
ENDBRANCH  22  23
ENDBRANCH  14  22
ENDBRANCH   5  14
TORSDOF 5
ENDMDL
MODEL 7
REMARK VINA RESULT:    -5.924      5.364      7.040
REMARK INTER + INTRA:          -8.033
REMARK INTER:                  -7.436
REMARK INTRA:                  -0.596
REMARK UNBOUND:                -0.550
REMARK  Name = 
REMARK  5 active torsions:
REMARK  status: ('A' for Active; 'I' for Inactive)
REMARK    1  A    between atoms: C_2  and  C_4
REMARK    2  A    between atoms: N_8  and  CA_9
REMARK    3  A    between atoms: CA_9  and  C_10
REMARK    4  A    between atoms: CA_9  and  C_12
REMARK    5  A    between atoms: C_10  and  O_11
REMARK                            x       y       z     vdW  Elec       q    Type
REMARK                         _______ _______ _______ _____ _____    ______ ____
ROOT
ATOM      1  C   UNL     1      45.661   5.301  12.041  0.00  0.00    +0.000 A 
ATOM      2  C   UNL     1      45.465   3.933  12.182  0.00  0.00    +0.000 A 
ATOM      3  C   UNL     1      46.085   3.265  13.242  0.00  0.00    +0.000 A 
ATOM      4  C   UNL     1      46.855   3.974  14.167  0.00  0.00    +0.000 A 
ATOM      5  N   UNL     1      47.555   3.247  15.138  0.00  0.00    +0.000 N 
ATOM      6  N   UNL     1      47.050   5.301  14.035  0.00  0.00    +0.000 NA
ATOM      7  C   UNL     1      46.470   5.931  12.974  0.00  0.00    +0.000 A 
ATOM      8  H   UNL     1      47.047   2.412  15.411  0.00  0.00    +0.000 HD
ENDROOT
BRANCH   1  10
ATOM      9  N   UNL     1      44.767   5.416   9.780  0.00  0.00    +0.000 N 
ATOM     10  C   UNL     1      45.091   6.089  10.927  0.00  0.00    +0.000 C 
ATOM     11  O   UNL     1      44.888   7.292  11.031  0.00  0.00    +0.000 OA
ATOM     12  H   UNL     1      44.293   5.952   9.061  0.00  0.00    +0.000 HD
ATOM     13  H   UNL     1      44.688   4.411   9.738  0.00  0.00    +0.000 HD
ENDBRANCH   1  10
BRANCH   5  14
ATOM     14  CA  UNL     1      47.985   3.986  16.339  0.00  0.00    +0.000 C 
BRANCH  14  15
ATOM     15  C   UNL     1      49.322   3.422  16.825  0.00  0.00    +0.000 A 
ATOM     16  C   UNL     1      50.199   4.234  17.537  0.00  0.00    +0.000 A 
ATOM     17  C   UNL     1      51.379   3.671  18.008  0.00  0.00    +0.000 A 
ATOM     18 CL   UNL     1      52.471   4.627  18.937  0.00  0.00    +0.000 Cl
ATOM     19  C   UNL     1      51.683   2.343  17.754  0.00  0.00    +0.000 A 
ATOM     20  C   UNL     1      50.776   1.616  17.007  0.00  0.00    +0.000 A 
ATOM     21  N   UNL     1      49.618   2.122  16.542  0.00  0.00    +0.000 NA
ENDBRANCH  14  15
BRANCH  14  22
ATOM     22  C   UNL     1      46.932   3.847  17.476  0.00  0.00    +0.000 C 
BRANCH  22  23
ATOM     23  O   UNL     1      46.611   2.490  17.795  0.00  0.00    +0.000 OA
ATOM     24  H   UNL     1      45.833   2.245  17.262  0.00  0.00    +0.000 HD
ENDBRANCH  22  23
ENDBRANCH  14  22
ENDBRANCH   5  14
TORSDOF 5
ENDMDL
MODEL 8
REMARK VINA RESULT:    -5.898      4.221      6.221
REMARK INTER + INTRA:          -8.000
REMARK INTER:                  -7.389
REMARK INTRA:                  -0.611
REMARK UNBOUND:                -0.550
REMARK  Name = 
REMARK  5 active torsions:
REMARK  status: ('A' for Active; 'I' for Inactive)
REMARK    1  A    between atoms: C_2  and  C_4
REMARK    2  A    between atoms: N_8  and  CA_9
REMARK    3  A    between atoms: CA_9  and  C_10
REMARK    4  A    between atoms: CA_9  and  C_12
REMARK    5  A    between atoms: C_10  and  O_11
REMARK                            x       y       z     vdW  Elec       q    Type
REMARK                         _______ _______ _______ _____ _____    ______ ____
ROOT
ATOM      1  C   UNL     1      44.726   5.145  11.366  0.00  0.00    +0.000 A 
ATOM      2  C   UNL     1      44.693   6.532  11.431  0.00  0.00    +0.000 A 
ATOM      3  C   UNL     1      45.570   7.192  12.296  0.00  0.00    +0.000 A 
ATOM      4  C   UNL     1      46.495   6.466  13.050  0.00  0.00    +0.000 A 
ATOM      5  N   UNL     1      47.267   7.157  13.992  0.00  0.00    +0.000 N 
ATOM      6  N   UNL     1      46.533   5.119  12.993  0.00  0.00    +0.000 NA
ATOM      7  C   UNL     1      45.643   4.489  12.172  0.00  0.00    +0.000 A 
ATOM      8  H   UNL     1      47.474   8.100  13.679  0.00  0.00    +0.000 HD
ENDROOT
BRANCH   1  10
ATOM      9  N   UNL     1      43.903   4.512   9.165  0.00  0.00    +0.000 N 
ATOM     10  C   UNL     1      43.808   4.352  10.521  0.00  0.00    +0.000 C 
ATOM     11  O   UNL     1      43.012   3.559  11.008  0.00  0.00    +0.000 OA
ATOM     12  H   UNL     1      43.332   3.896   8.597  0.00  0.00    +0.000 HD
ATOM     13  H   UNL     1      44.691   4.957   8.719  0.00  0.00    +0.000 HD
ENDBRANCH   1  10
BRANCH   5  14
ATOM     14  CA  UNL     1      48.506   6.498  14.447  0.00  0.00    +0.000 C 
BRANCH  14  15
ATOM     15  C   UNL     1      48.317   6.013  15.886  0.00  0.00    +0.000 A 
ATOM     16  C   UNL     1      47.826   4.734  16.127  0.00  0.00    +0.000 A 
ATOM     17  C   UNL     1      47.721   4.309  17.447  0.00  0.00    +0.000 A 
ATOM     18 CL   UNL     1      47.165   2.715  17.789  0.00  0.00    +0.000 Cl
ATOM     19  C   UNL     1      48.072   5.148  18.492  0.00  0.00    +0.000 A 
ATOM     20  C   UNL     1      48.516   6.416  18.168  0.00  0.00    +0.000 A 
ATOM     21  N   UNL     1      48.642   6.860  16.903  0.00  0.00    +0.000 NA
ENDBRANCH  14  15
BRANCH  14  22
ATOM     22  C   UNL     1      49.705   7.489  14.398  0.00  0.00    +0.000 C 
BRANCH  22  23
ATOM     23  O   UNL     1      50.902   6.967  14.981  0.00  0.00    +0.000 OA
ATOM     24  H   UNL     1      51.023   7.411  15.839  0.00  0.00    +0.000 HD
ENDBRANCH  22  23
ENDBRANCH  14  22
ENDBRANCH   5  14
TORSDOF 5
ENDMDL
MODEL 9
REMARK VINA RESULT:    -5.766      3.567      5.125
REMARK INTER + INTRA:          -7.833
REMARK INTER:                  -7.148
REMARK INTRA:                  -0.685
REMARK UNBOUND:                -0.550
REMARK  Name = 
REMARK  5 active torsions:
REMARK  status: ('A' for Active; 'I' for Inactive)
REMARK    1  A    between atoms: C_2  and  C_4
REMARK    2  A    between atoms: N_8  and  CA_9
REMARK    3  A    between atoms: CA_9  and  C_10
REMARK    4  A    between atoms: CA_9  and  C_12
REMARK    5  A    between atoms: C_10  and  O_11
REMARK                            x       y       z     vdW  Elec       q    Type
REMARK                         _______ _______ _______ _____ _____    ______ ____
ROOT
ATOM      1  C   UNL     1      44.870   3.705  11.460  0.00  0.00    +0.000 A 
ATOM      2  C   UNL     1      45.456   3.596  12.714  0.00  0.00    +0.000 A 
ATOM      3  C   UNL     1      46.295   4.621  13.162  0.00  0.00    +0.000 A 
ATOM      4  C   UNL     1      46.503   5.755  12.375  0.00  0.00    +0.000 A 
ATOM      5  N   UNL     1      47.446   6.696  12.808  0.00  0.00    +0.000 N 
ATOM      6  N   UNL     1      45.938   5.867  11.155  0.00  0.00    +0.000 NA
ATOM      7  C   UNL     1      45.154   4.841  10.718  0.00  0.00    +0.000 A 
ATOM      8  H   UNL     1      47.472   6.751  13.822  0.00  0.00    +0.000 HD
ENDROOT
BRANCH   1  10
ATOM      9  N   UNL     1      44.433   2.067   9.713  0.00  0.00    +0.000 N 
ATOM     10  C   UNL     1      44.008   2.656  10.875  0.00  0.00    +0.000 C 
ATOM     11  O   UNL     1      42.970   2.301  11.418  0.00  0.00    +0.000 OA
ATOM     12  H   UNL     1      43.880   1.288   9.374  0.00  0.00    +0.000 HD
ATOM     13  H   UNL     1      45.378   2.150   9.370  0.00  0.00    +0.000 HD
ENDBRANCH   1  10
BRANCH   5  14
ATOM     14  CA  UNL     1      47.343   8.051  12.237  0.00  0.00    +0.000 C 
BRANCH  14  15
ATOM     15  C   UNL     1      48.748   8.586  11.954  0.00  0.00    +0.000 A 
ATOM     16  C   UNL     1      49.719   7.738  11.428  0.00  0.00    +0.000 A 
ATOM     17  C   UNL     1      50.968   8.274  11.134  0.00  0.00    +0.000 A 
ATOM     18 CL   UNL     1      52.183   7.273  10.436  0.00  0.00    +0.000 Cl
ATOM     19  C   UNL     1      51.243   9.609  11.381  0.00  0.00    +0.000 A 
ATOM     20  C   UNL     1      50.236  10.373  11.939  0.00  0.00    +0.000 A 
ATOM     21  N   UNL     1      49.011   9.895  12.228  0.00  0.00    +0.000 NA
ENDBRANCH  14  15
BRANCH  14  22
ATOM     22  C   UNL     1      46.624   9.012  13.228  0.00  0.00    +0.000 C 
BRANCH  22  23
ATOM     23  O   UNL     1      47.124   8.933  14.565  0.00  0.00    +0.000 OA
ATOM     24  H   UNL     1      46.353   8.884  15.159  0.00  0.00    +0.000 HD
ENDBRANCH  22  23
ENDBRANCH  14  22
ENDBRANCH   5  14
TORSDOF 5
ENDMDL
