MODEL 1
REMARK VINA RESULT:    -8.310      0.000      0.000
REMARK INTER + INTRA:         -11.575
REMARK INTER:                 -10.981
REMARK INTRA:                  -0.593
REMARK UNBOUND:                -0.593
REMARK  Name = 
REMARK  6 active torsions:
REMARK  status: ('A' for Active; 'I' for Inactive)
REMARK    1  A    between atoms: N_1  and  C_2
REMARK    2  A    between atoms: C_2  and  C_3
REMARK    3  A    between atoms: C_3  and  C_4
REMARK    4  A    between atoms: C_7  and  C_8
REMARK    5  A    between atoms: C_8  and  N_9
REMARK    6  A    between atoms: C_15  and  C_16
REMARK                            x       y       z     vdW  Elec       q    Type
REMARK                         _______ _______ _______ _____ _____    ______ ____
ROOT
ATOM      1  N   UNL     1      43.839   5.735  11.535  0.00  0.00    +0.000 N 
ATOM      2  C   UNL     1      43.682   7.016  11.049  0.00  0.00    +0.000 A 
ATOM      3  C   UNL     1      44.815   7.727  11.372  0.00  0.00    +0.000 A 
ATOM      4  C   UNL     1      45.617   6.907  12.209  0.00  0.00    +0.000 A 
ATOM      5  C   UNL     1      46.866   7.079  12.821  0.00  0.00    +0.000 A 
ATOM      6  N   UNL     1      47.353   6.149  13.670  0.00  0.00    +0.000 NA
ATOM      7  C   UNL     1      46.599   5.037  13.916  0.00  0.00    +0.000 A 
ATOM      8  C   UNL     1      45.387   4.739  13.299  0.00  0.00    +0.000 A 
ATOM      9  C   UNL     1      44.919   5.709  12.404  0.00  0.00    +0.000 A 
ENDROOT
BRANCH   7  10
ATOM     10  C   UNL     1      47.162   4.105  14.951  0.00  0.00    +0.000 C 
ATOM     11  N   UNL     1      47.138   4.590  16.235  0.00  0.00    +0.000 N 
ATOM     12  O   UNL     1      47.599   2.991  14.693  0.00  0.00    +0.000 OA
ATOM     13  H   UNL     1      46.711   5.494  16.409  0.00  0.00    +0.000 HD
ATOM     14  H   UNL     1      47.439   4.003  16.998  0.00  0.00    +0.000 HD
ENDBRANCH   7  10
BRANCH   1  15
ATOM     15  C   UNL     1      43.263   4.569  10.860  0.00  0.00    +0.000 C 
BRANCH  15  19
ATOM     16  C   UNL     1      45.923   2.470   8.270  0.00  0.00    +0.000 A 
ATOM     17  C   UNL     1      45.983   3.864   8.315  0.00  0.00    +0.000 A 
ATOM     18  C   UNL     1      45.100   4.570   9.133  0.00  0.00    +0.000 A 
ATOM     19  C   UNL     1      44.184   3.862   9.907  0.00  0.00    +0.000 A 
ATOM     20  N   UNL     1      44.147   2.507   9.914  0.00  0.00    +0.000 NA
ATOM     21  C   UNL     1      45.002   1.847   9.101  0.00  0.00    +0.000 A 
BRANCH  16  22
ATOM     22  C   UNL     1      46.788   1.670   7.336  0.00  0.00    +0.000 C 
BRANCH  22  23
ATOM     23  C   UNL     1      47.990   2.450   6.805  0.00  0.00    +0.000 C 
BRANCH  23  24
ATOM     24  N   UNL     1      48.472   1.848   5.557  0.00  0.00    +0.000 NA
ATOM     25  H   UNL     1      47.752   1.229   5.174  0.00  0.00    +0.000 HD
ATOM     26  H   UNL     1      49.280   1.257   5.747  0.00  0.00    +0.000 HD
ENDBRANCH  23  24
ENDBRANCH  22  23
ENDBRANCH  16  22
ENDBRANCH  15  19
ENDBRANCH   1  15
TORSDOF 6
ENDMDL
MODEL 2
REMARK VINA RESULT:    -6.975      1.563      2.007
REMARK INTER + INTRA:          -9.810
REMARK INTER:                  -9.516
REMARK INTRA:                  -0.294
REMARK UNBOUND:                -0.593
REMARK  Name = 
REMARK  6 active torsions:
REMARK  status: ('A' for Active; 'I' for Inactive)
REMARK    1  A    between atoms: N_1  and  C_2
REMARK    2  A    between atoms: C_2  and  C_3
REMARK    3  A    between atoms: C_3  and  C_4
REMARK    4  A    between atoms: C_7  and  C_8
REMARK    5  A    between atoms: C_8  and  N_9
REMARK    6  A    between atoms: C_15  and  C_16
REMARK                            x       y       z     vdW  Elec       q    Type
REMARK                         _______ _______ _______ _____ _____    ______ ____
ROOT
ATOM      1  N   UNL     1      43.978   4.476  11.764  0.00  0.00    +0.000 N 
ATOM      2  C   UNL     1      42.844   5.151  11.363  0.00  0.00    +0.000 A 
ATOM      3  C   UNL     1      43.135   6.496  11.371  0.00  0.00    +0.000 A 
ATOM      4  C   UNL     1      44.427   6.656  11.938  0.00  0.00    +0.000 A 
ATOM      5  C   UNL     1      45.244   7.768  12.181  0.00  0.00    +0.000 A 
ATOM      6  N   UNL     1      46.413   7.634  12.844  0.00  0.00    +0.000 NA
ATOM      7  C   UNL     1      46.778   6.389  13.271  0.00  0.00    +0.000 A 
ATOM      8  C   UNL     1      46.075   5.215  13.010  0.00  0.00    +0.000 A 
ATOM      9  C   UNL     1      44.880   5.382  12.297  0.00  0.00    +0.000 A 
ENDROOT
BRANCH   7  10
ATOM     10  C   UNL     1      48.034   6.343  14.092  0.00  0.00    +0.000 C 
ATOM     11  N   UNL     1      48.914   7.369  13.855  0.00  0.00    +0.000 N 
ATOM     12  O   UNL     1      48.269   5.476  14.924  0.00  0.00    +0.000 OA
ATOM     13  H   UNL     1      48.651   8.099  13.199  0.00  0.00    +0.000 HD
ATOM     14  H   UNL     1      49.753   7.449  14.408  0.00  0.00    +0.000 HD
ENDBRANCH   7  10
BRANCH   1  15
ATOM     15  C   UNL     1      44.312   3.143  11.255  0.00  0.00    +0.000 C 
BRANCH  15  19
ATOM     16  C   UNL     1      45.963   3.177   7.324  0.00  0.00    +0.000 A 
ATOM     17  C   UNL     1      45.575   1.959   7.883  0.00  0.00    +0.000 A 
ATOM     18  C   UNL     1      45.061   1.923   9.180  0.00  0.00    +0.000 A 
ATOM     19  C   UNL     1      44.928   3.116   9.886  0.00  0.00    +0.000 A 
ATOM     20  N   UNL     1      45.252   4.313   9.339  0.00  0.00    +0.000 NA
ATOM     21  C   UNL     1      45.762   4.319   8.087  0.00  0.00    +0.000 A 
BRANCH  16  22
ATOM     22  C   UNL     1      46.607   3.257   5.967  0.00  0.00    +0.000 C 
BRANCH  22  23
ATOM     23  C   UNL     1      47.691   2.202   5.748  0.00  0.00    +0.000 C 
BRANCH  23  24
ATOM     24  N   UNL     1      48.919   2.584   6.453  0.00  0.00    +0.000 NA
ATOM     25  H   UNL     1      49.165   3.550   6.214  0.00  0.00    +0.000 HD
ATOM     26  H   UNL     1      49.696   2.007   6.133  0.00  0.00    +0.000 HD
ENDBRANCH  23  24
ENDBRANCH  22  23
ENDBRANCH  16  22
ENDBRANCH  15  19
ENDBRANCH   1  15
TORSDOF 6
ENDMDL
MODEL 3
REMARK VINA RESULT:    -6.955      2.463      6.898
REMARK INTER + INTRA:          -9.785
REMARK INTER:                  -9.896
REMARK INTRA:                   0.111
REMARK UNBOUND:                -0.593
REMARK  Name = 
REMARK  6 active torsions:
REMARK  status: ('A' for Active; 'I' for Inactive)
REMARK    1  A    between atoms: N_1  and  C_2
REMARK    2  A    between atoms: C_2  and  C_3
REMARK    3  A    between atoms: C_3  and  C_4
REMARK    4  A    between atoms: C_7  and  C_8
REMARK    5  A    between atoms: C_8  and  N_9
REMARK    6  A    between atoms: C_15  and  C_16
REMARK                            x       y       z     vdW  Elec       q    Type
REMARK                         _______ _______ _______ _____ _____    ______ ____
ROOT
ATOM      1  N   UNL     1      44.829   4.856  10.130  0.00  0.00    +0.000 N 
ATOM      2  C   UNL     1      43.794   4.305  10.856  0.00  0.00    +0.000 A 
ATOM      3  C   UNL     1      43.775   2.954  10.595  0.00  0.00    +0.000 A 
ATOM      4  C   UNL     1      44.721   2.697   9.568  0.00  0.00    +0.000 A 
ATOM      5  C   UNL     1      45.148   1.532   8.917  0.00  0.00    +0.000 A 
ATOM      6  N   UNL     1      46.009   1.598   7.879  0.00  0.00    +0.000 NA
ATOM      7  C   UNL     1      46.453   2.827   7.480  0.00  0.00    +0.000 A 
ATOM      8  C   UNL     1      46.149   4.031   8.111  0.00  0.00    +0.000 A 
ATOM      9  C   UNL     1      45.275   3.928   9.201  0.00  0.00    +0.000 A 
ENDROOT
BRANCH   7  10
ATOM     10  C   UNL     1      47.321   2.821   6.255  0.00  0.00    +0.000 C 
ATOM     11  N   UNL     1      48.644   2.542   6.488  0.00  0.00    +0.000 N 
ATOM     12  O   UNL     1      46.898   3.030   5.125  0.00  0.00    +0.000 OA
ATOM     13  H   UNL     1      48.938   2.315   7.434  0.00  0.00    +0.000 HD
ATOM     14  H   UNL     1      49.283   2.456   5.713  0.00  0.00    +0.000 HD
ENDBRANCH   7  10
BRANCH   1  15
ATOM     15  C   UNL     1      45.592   6.010  10.612  0.00  0.00    +0.000 C 
BRANCH  15  19
ATOM     16  C   UNL     1      47.392   5.467  14.439  0.00  0.00    +0.000 A 
ATOM     17  C   UNL     1      47.856   6.493  13.614  0.00  0.00    +0.000 A 
ATOM     18  C   UNL     1      47.300   6.667  12.345  0.00  0.00    +0.000 A 
ATOM     19  C   UNL     1      46.275   5.818  11.935  0.00  0.00    +0.000 A 
ATOM     20  N   UNL     1      45.778   4.851  12.744  0.00  0.00    +0.000 NA
ATOM     21  C   UNL     1      46.344   4.692  13.961  0.00  0.00    +0.000 A 
BRANCH  16  22
ATOM     22  C   UNL     1      48.021   5.180  15.775  0.00  0.00    +0.000 C 
BRANCH  22  23
ATOM     23  C   UNL     1      47.283   4.107  16.574  0.00  0.00    +0.000 C 
BRANCH  23  24
ATOM     24  N   UNL     1      46.777   4.670  17.831  0.00  0.00    +0.000 NA
ATOM     25  H   UNL     1      46.504   3.910  18.462  0.00  0.00    +0.000 HD
ATOM     26  H   UNL     1      45.930   5.208  17.653  0.00  0.00    +0.000 HD
ENDBRANCH  23  24
ENDBRANCH  22  23
ENDBRANCH  16  22
ENDBRANCH  15  19
ENDBRANCH   1  15
TORSDOF 6
ENDMDL
MODEL 4
REMARK VINA RESULT:    -6.511      3.240      7.260
REMARK INTER + INTRA:          -9.197
REMARK INTER:                  -8.801
REMARK INTRA:                  -0.396
REMARK UNBOUND:                -0.593
REMARK  Name = 
REMARK  6 active torsions:
REMARK  status: ('A' for Active; 'I' for Inactive)
REMARK    1  A    between atoms: N_1  and  C_2
REMARK    2  A    between atoms: C_2  and  C_3
REMARK    3  A    between atoms: C_3  and  C_4
REMARK    4  A    between atoms: C_7  and  C_8
REMARK    5  A    between atoms: C_8  and  N_9
REMARK    6  A    between atoms: C_15  and  C_16
REMARK                            x       y       z     vdW  Elec       q    Type
REMARK                         _______ _______ _______ _____ _____    ______ ____
ROOT
ATOM      1  N   UNL     1      47.122   5.087  14.082  0.00  0.00    +0.000 N 
ATOM      2  C   UNL     1      47.856   6.228  13.833  0.00  0.00    +0.000 A 
ATOM      3  C   UNL     1      47.312   6.840  12.728  0.00  0.00    +0.000 A 
ATOM      4  C   UNL     1      46.320   5.975  12.196  0.00  0.00    +0.000 A 
ATOM      5  C   UNL     1      45.437   6.067  11.112  0.00  0.00    +0.000 A 
ATOM      6  N   UNL     1      44.655   5.021  10.768  0.00  0.00    +0.000 NA
ATOM      7  C   UNL     1      44.745   3.873  11.503  0.00  0.00    +0.000 A 
ATOM      8  C   UNL     1      45.532   3.712  12.641  0.00  0.00    +0.000 A 
ATOM      9  C   UNL     1      46.312   4.821  12.989  0.00  0.00    +0.000 A 
ENDROOT
BRANCH   7  10
ATOM     10  C   UNL     1      43.923   2.726  10.991  0.00  0.00    +0.000 C 
ATOM     11  N   UNL     1      44.418   2.122   9.862  0.00  0.00    +0.000 N 
ATOM     12  O   UNL     1      42.897   2.333  11.531  0.00  0.00    +0.000 OA
ATOM     13  H   UNL     1      45.304   2.443   9.483  0.00  0.00    +0.000 HD
ATOM     14  H   UNL     1      43.962   1.304   9.489  0.00  0.00    +0.000 HD
ENDBRANCH   7  10
BRANCH   1  15
ATOM     15  C   UNL     1      46.912   4.576  15.439  0.00  0.00    +0.000 C 
BRANCH  15  19
ATOM     16  C   UNL     1      50.327   2.996  17.446  0.00  0.00    +0.000 A 
ATOM     17  C   UNL     1      49.990   4.337  17.639  0.00  0.00    +0.000 A 
ATOM     18  C   UNL     1      48.895   4.880  16.966  0.00  0.00    +0.000 A 
ATOM     19  C   UNL     1      48.144   4.061  16.126  0.00  0.00    +0.000 A 
ATOM     20  N   UNL     1      48.427   2.745  15.969  0.00  0.00    +0.000 NA
ATOM     21  C   UNL     1      49.503   2.247  16.618  0.00  0.00    +0.000 A 
BRANCH  16  22
ATOM     22  C   UNL     1      51.552   2.389  18.073  0.00  0.00    +0.000 C 
BRANCH  22  23
ATOM     23  C   UNL     1      52.011   1.103  17.387  0.00  0.00    +0.000 C 
BRANCH  23  24
ATOM     24  N   UNL     1      52.131   0.021  18.370  0.00  0.00    +0.000 NA
ATOM     25  H   UNL     1      52.945   0.190  18.969  0.00  0.00    +0.000 HD
ATOM     26  H   UNL     1      52.310  -0.862  17.893  0.00  0.00    +0.000 HD
ENDBRANCH  23  24
ENDBRANCH  22  23
ENDBRANCH  16  22
ENDBRANCH  15  19
ENDBRANCH   1  15
TORSDOF 6
ENDMDL
MODEL 5
REMARK VINA RESULT:    -6.366      2.552      3.575
REMARK INTER + INTRA:          -9.006
REMARK INTER:                  -8.470
REMARK INTRA:                  -0.537
REMARK UNBOUND:                -0.593
REMARK  Name = 
REMARK  6 active torsions:
REMARK  status: ('A' for Active; 'I' for Inactive)
REMARK    1  A    between atoms: N_1  and  C_2
REMARK    2  A    between atoms: C_2  and  C_3
REMARK    3  A    between atoms: C_3  and  C_4
REMARK    4  A    between atoms: C_7  and  C_8
REMARK    5  A    between atoms: C_8  and  N_9
REMARK    6  A    between atoms: C_15  and  C_16
REMARK                            x       y       z     vdW  Elec       q    Type
REMARK                         _______ _______ _______ _____ _____    ______ ____
ROOT
ATOM      1  N   UNL     1      45.984   5.256  12.017  0.00  0.00    +0.000 N 
ATOM      2  C   UNL     1      45.802   4.411  13.091  0.00  0.00    +0.000 A 
ATOM      3  C   UNL     1      46.394   4.996  14.187  0.00  0.00    +0.000 A 
ATOM      4  C   UNL     1      47.088   6.151  13.740  0.00  0.00    +0.000 A 
ATOM      5  C   UNL     1      47.842   7.138  14.389  0.00  0.00    +0.000 A 
ATOM      6  N   UNL     1      48.490   8.089  13.681  0.00  0.00    +0.000 NA
ATOM      7  C   UNL     1      48.391   8.065  12.319  0.00  0.00    +0.000 A 
ATOM      8  C   UNL     1      47.605   7.177  11.589  0.00  0.00    +0.000 A 
ATOM      9  C   UNL     1      46.924   6.219  12.351  0.00  0.00    +0.000 A 
ENDROOT
BRANCH   7  10
ATOM     10  C   UNL     1      49.225   9.089  11.605  0.00  0.00    +0.000 C 
ATOM     11  N   UNL     1      50.535   8.728  11.410  0.00  0.00    +0.000 N 
ATOM     12  O   UNL     1      48.788  10.160  11.205  0.00  0.00    +0.000 OA
ATOM     13  H   UNL     1      50.839   7.805  11.705  0.00  0.00    +0.000 HD
ATOM     14  H   UNL     1      51.148   9.331  10.883  0.00  0.00    +0.000 HD
ENDBRANCH   7  10
BRANCH   1  15
ATOM     15  C   UNL     1      45.000   5.368  10.938  0.00  0.00    +0.000 C 
BRANCH  15  19
ATOM     16  C   UNL     1      45.877   3.275   7.327  0.00  0.00    +0.000 A 
ATOM     17  C   UNL     1      44.978   2.711   8.234  0.00  0.00    +0.000 A 
ATOM     18  C   UNL     1      44.702   3.366   9.435  0.00  0.00    +0.000 A 
ATOM     19  C   UNL     1      45.320   4.586   9.696  0.00  0.00    +0.000 A 
ATOM     20  N   UNL     1      46.155   5.172   8.803  0.00  0.00    +0.000 NA
ATOM     21  C   UNL     1      46.419   4.510   7.655  0.00  0.00    +0.000 A 
BRANCH  16  22
ATOM     22  C   UNL     1      46.278   2.564   6.064  0.00  0.00    +0.000 C 
BRANCH  22  23
ATOM     23  C   UNL     1      47.321   1.470   6.289  0.00  0.00    +0.000 C 
BRANCH  23  24
ATOM     24  N   UNL     1      48.618   1.889   5.748  0.00  0.00    +0.000 NA
ATOM     25  H   UNL     1      49.369   1.557   6.361  0.00  0.00    +0.000 HD
ATOM     26  H   UNL     1      48.682   2.906   5.748  0.00  0.00    +0.000 HD
ENDBRANCH  23  24
ENDBRANCH  22  23
ENDBRANCH  16  22
ENDBRANCH  15  19
ENDBRANCH   1  15
TORSDOF 6
ENDMDL
MODEL 6
REMARK VINA RESULT:    -6.196      2.387      6.589
REMARK INTER + INTRA:          -8.782
REMARK INTER:                  -8.339
REMARK INTRA:                  -0.443
REMARK UNBOUND:                -0.593
REMARK  Name = 
REMARK  6 active torsions:
REMARK  status: ('A' for Active; 'I' for Inactive)
REMARK    1  A    between atoms: N_1  and  C_2
REMARK    2  A    between atoms: C_2  and  C_3
REMARK    3  A    between atoms: C_3  and  C_4
REMARK    4  A    between atoms: C_7  and  C_8
REMARK    5  A    between atoms: C_8  and  N_9
REMARK    6  A    between atoms: C_15  and  C_16
REMARK                            x       y       z     vdW  Elec       q    Type
REMARK                         _______ _______ _______ _____ _____    ______ ____
ROOT
ATOM      1  N   UNL     1      44.025   5.976  11.111  0.00  0.00    +0.000 N 
ATOM      2  C   UNL     1      43.054   5.565  12.000  0.00  0.00    +0.000 A 
ATOM      3  C   UNL     1      43.039   4.189  11.996  0.00  0.00    +0.000 A 
ATOM      4  C   UNL     1      43.914   3.750  10.967  0.00  0.00    +0.000 A 
ATOM      5  C   UNL     1      44.313   2.486  10.513  0.00  0.00    +0.000 A 
ATOM      6  N   UNL     1      45.097   2.361   9.420  0.00  0.00    +0.000 NA
ATOM      7  C   UNL     1      45.491   3.496   8.770  0.00  0.00    +0.000 A 
ATOM      8  C   UNL     1      45.213   4.795   9.189  0.00  0.00    +0.000 A 
ATOM      9  C   UNL     1      44.420   4.893  10.340  0.00  0.00    +0.000 A 
ENDROOT
BRANCH   7  10
ATOM     10  C   UNL     1      46.269   3.266   7.507  0.00  0.00    +0.000 C 
ATOM     11  N   UNL     1      46.782   2.000   7.370  0.00  0.00    +0.000 N 
ATOM     12  O   UNL     1      46.432   4.122   6.647  0.00  0.00    +0.000 OA
ATOM     13  H   UNL     1      46.570   1.306   8.080  0.00  0.00    +0.000 HD
ATOM     14  H   UNL     1      47.264   1.743   6.522  0.00  0.00    +0.000 HD
ENDBRANCH   7  10
BRANCH   1  15
ATOM     15  C   UNL     1      44.801   7.202  11.315  0.00  0.00    +0.000 C 
BRANCH  15  19
ATOM     16  C   UNL     1      48.111   6.991  13.995  0.00  0.00    +0.000 A 
ATOM     17  C   UNL     1      47.792   5.870  13.226  0.00  0.00    +0.000 A 
ATOM     18  C   UNL     1      46.693   5.910  12.366  0.00  0.00    +0.000 A 
ATOM     19  C   UNL     1      45.945   7.082  12.280  0.00  0.00    +0.000 A 
ATOM     20  N   UNL     1      46.274   8.195  12.980  0.00  0.00    +0.000 NA
ATOM     21  C   UNL     1      47.332   8.126  13.818  0.00  0.00    +0.000 A 
BRANCH  16  22
ATOM     22  C   UNL     1      49.227   6.967  15.003  0.00  0.00    +0.000 C 
BRANCH  22  23
ATOM     23  C   UNL     1      48.738   6.853  16.446  0.00  0.00    +0.000 C 
BRANCH  23  24
ATOM     24  N   UNL     1      47.923   5.645  16.610  0.00  0.00    +0.000 NA
ATOM     25  H   UNL     1      48.066   5.259  17.548  0.00  0.00    +0.000 HD
ATOM     26  H   UNL     1      48.234   4.926  15.959  0.00  0.00    +0.000 HD
ENDBRANCH  23  24
ENDBRANCH  22  23
ENDBRANCH  16  22
ENDBRANCH  15  19
ENDBRANCH   1  15
TORSDOF 6
ENDMDL
MODEL 7
REMARK VINA RESULT:    -5.950      2.606      6.929
REMARK INTER + INTRA:          -8.456
REMARK INTER:                  -7.933
REMARK INTRA:                  -0.523
REMARK UNBOUND:                -0.593
REMARK  Name = 
REMARK  6 active torsions:
REMARK  status: ('A' for Active; 'I' for Inactive)
REMARK    1  A    between atoms: N_1  and  C_2
REMARK    2  A    between atoms: C_2  and  C_3
REMARK    3  A    between atoms: C_3  and  C_4
REMARK    4  A    between atoms: C_7  and  C_8
REMARK    5  A    between atoms: C_8  and  N_9
REMARK    6  A    between atoms: C_15  and  C_16
REMARK                            x       y       z     vdW  Elec       q    Type
REMARK                         _______ _______ _______ _____ _____    ______ ____
ROOT
ATOM      1  N   UNL     1      47.083   7.303  12.223  0.00  0.00    +0.000 N 
ATOM      2  C   UNL     1      46.672   8.544  12.662  0.00  0.00    +0.000 A 
ATOM      3  C   UNL     1      45.297   8.568  12.618  0.00  0.00    +0.000 A 
ATOM      4  C   UNL     1      44.863   7.370  11.992  0.00  0.00    +0.000 A 
ATOM      5  C   UNL     1      43.601   6.838  11.694  0.00  0.00    +0.000 A 
ATOM      6  N   UNL     1      43.484   5.697  10.981  0.00  0.00    +0.000 NA
ATOM      7  C   UNL     1      44.625   5.075  10.559  0.00  0.00    +0.000 A 
ATOM      8  C   UNL     1      45.920   5.481  10.872  0.00  0.00    +0.000 A 
ATOM      9  C   UNL     1      46.010   6.653  11.634  0.00  0.00    +0.000 A 
ENDROOT
BRANCH   7  10
ATOM     10  C   UNL     1      44.407   3.874   9.685  0.00  0.00    +0.000 C 
ATOM     11  N   UNL     1      44.155   4.161   8.366  0.00  0.00    +0.000 N 
ATOM     12  O   UNL     1      44.460   2.721  10.091  0.00  0.00    +0.000 OA
ATOM     13  H   UNL     1      44.180   5.130   8.062  0.00  0.00    +0.000 HD
ATOM     14  H   UNL     1      44.060   3.411   7.699  0.00  0.00    +0.000 HD
ENDBRANCH   7  10
BRANCH   1  15
ATOM     15  C   UNL     1      48.291   6.654  12.738  0.00  0.00    +0.000 C 
BRANCH  15  19
ATOM     16  C   UNL     1      47.702   4.746  16.506  0.00  0.00    +0.000 A 
ATOM     17  C   UNL     1      48.433   5.934  16.457  0.00  0.00    +0.000 A 
ATOM     18  C   UNL     1      48.663   6.557  15.230  0.00  0.00    +0.000 A 
ATOM     19  C   UNL     1      48.138   5.985  14.073  0.00  0.00    +0.000 A 
ATOM     20  N   UNL     1      47.382   4.860  14.110  0.00  0.00    +0.000 NA
ATOM     21  C   UNL     1      47.188   4.267  15.309  0.00  0.00    +0.000 A 
BRANCH  16  22
ATOM     22  C   UNL     1      47.507   3.989  17.790  0.00  0.00    +0.000 C 
BRANCH  22  23
ATOM     23  C   UNL     1      48.779   3.883  18.631  0.00  0.00    +0.000 C 
BRANCH  23  24
ATOM     24  N   UNL     1      48.446   3.482  20.003  0.00  0.00    +0.000 NA
ATOM     25  H   UNL     1      47.832   4.185  20.426  0.00  0.00    +0.000 HD
ATOM     26  H   UNL     1      49.290   3.465  20.573  0.00  0.00    +0.000 HD
ENDBRANCH  23  24
ENDBRANCH  22  23
ENDBRANCH  16  22
ENDBRANCH  15  19
ENDBRANCH   1  15
TORSDOF 6
ENDMDL
MODEL 8
REMARK VINA RESULT:    -5.658      3.065      5.485
REMARK INTER + INTRA:          -8.070
REMARK INTER:                  -7.493
REMARK INTRA:                  -0.577
REMARK UNBOUND:                -0.593
REMARK  Name = 
REMARK  6 active torsions:
REMARK  status: ('A' for Active; 'I' for Inactive)
REMARK    1  A    between atoms: N_1  and  C_2
REMARK    2  A    between atoms: C_2  and  C_3
REMARK    3  A    between atoms: C_3  and  C_4
REMARK    4  A    between atoms: C_7  and  C_8
REMARK    5  A    between atoms: C_8  and  N_9
REMARK    6  A    between atoms: C_15  and  C_16
REMARK                            x       y       z     vdW  Elec       q    Type
REMARK                         _______ _______ _______ _____ _____    ______ ____
ROOT
ATOM      1  N   UNL     1      48.887   7.260  14.851  0.00  0.00    +0.000 N 
ATOM      2  C   UNL     1      49.486   8.463  15.160  0.00  0.00    +0.000 A 
ATOM      3  C   UNL     1      50.050   8.340  16.409  0.00  0.00    +0.000 A 
ATOM      4  C   UNL     1      49.654   7.085  16.941  0.00  0.00    +0.000 A 
ATOM      5  C   UNL     1      49.929   6.413  18.140  0.00  0.00    +0.000 A 
ATOM      6  N   UNL     1      49.317   5.245  18.433  0.00  0.00    +0.000 NA
ATOM      7  C   UNL     1      48.426   4.735  17.532  0.00  0.00    +0.000 A 
ATOM      8  C   UNL     1      48.147   5.286  16.283  0.00  0.00    +0.000 A 
ATOM      9  C   UNL     1      48.816   6.483  15.997  0.00  0.00    +0.000 A 
ENDROOT
BRANCH   7  10
ATOM     10  C   UNL     1      47.712   3.493  17.980  0.00  0.00    +0.000 C 
ATOM     11  N   UNL     1      48.211   2.924  19.125  0.00  0.00    +0.000 N 
ATOM     12  O   UNL     1      46.748   3.017  17.394  0.00  0.00    +0.000 OA
ATOM     13  H   UNL     1      48.973   3.388  19.611  0.00  0.00    +0.000 HD
ATOM     14  H   UNL     1      47.750   2.124  19.530  0.00  0.00    +0.000 HD
ENDBRANCH   7  10
BRANCH   1  15
ATOM     15  C   UNL     1      48.807   6.759  13.477  0.00  0.00    +0.000 C 
BRANCH  15  19
ATOM     16  C   UNL     1      44.908   6.151  11.863  0.00  0.00    +0.000 A 
ATOM     17  C   UNL     1      45.473   7.425  11.800  0.00  0.00    +0.000 A 
ATOM     18  C   UNL     1      46.736   7.651  12.351  0.00  0.00    +0.000 A 
ATOM     19  C   UNL     1      47.416   6.587  12.938  0.00  0.00    +0.000 A 
ATOM     20  N   UNL     1      46.903   5.333  12.961  0.00  0.00    +0.000 NA
ATOM     21  C   UNL     1      45.672   5.143  12.436  0.00  0.00    +0.000 A 
BRANCH  16  22
ATOM     22  C   UNL     1      43.514   5.878  11.368  0.00  0.00    +0.000 C 
BRANCH  22  23
ATOM     23  C   UNL     1      43.372   4.529  10.665  0.00  0.00    +0.000 C 
BRANCH  23  24
ATOM     24  N   UNL     1      43.757   4.651   9.255  0.00  0.00    +0.000 NA
ATOM     25  H   UNL     1      44.773   4.555   9.167  0.00  0.00    +0.000 HD
ATOM     26  H   UNL     1      43.531   5.583   8.913  0.00  0.00    +0.000 HD
ENDBRANCH  23  24
ENDBRANCH  22  23
ENDBRANCH  16  22
ENDBRANCH  15  19
ENDBRANCH   1  15
TORSDOF 6
ENDMDL
MODEL 9
REMARK VINA RESULT:    -5.350      3.216      5.732
REMARK INTER + INTRA:          -7.663
REMARK INTER:                  -7.106
REMARK INTRA:                  -0.557
REMARK UNBOUND:                -0.593
REMARK  Name = 
REMARK  6 active torsions:
REMARK  status: ('A' for Active; 'I' for Inactive)
REMARK    1  A    between atoms: N_1  and  C_2
REMARK    2  A    between atoms: C_2  and  C_3
REMARK    3  A    between atoms: C_3  and  C_4
REMARK    4  A    between atoms: C_7  and  C_8
REMARK    5  A    between atoms: C_8  and  N_9
REMARK    6  A    between atoms: C_15  and  C_16
REMARK                            x       y       z     vdW  Elec       q    Type
REMARK                         _______ _______ _______ _____ _____    ______ ____
ROOT
ATOM      1  N   UNL     1      48.563   7.822  15.257  0.00  0.00    +0.000 N 
ATOM      2  C   UNL     1      48.921   8.925  16.002  0.00  0.00    +0.000 A 
ATOM      3  C   UNL     1      49.504   8.473  17.163  0.00  0.00    +0.000 A 
ATOM      4  C   UNL     1      49.359   7.061  17.200  0.00  0.00    +0.000 A 
ATOM      5  C   UNL     1      49.763   6.071  18.105  0.00  0.00    +0.000 A 
ATOM      6  N   UNL     1      49.389   4.785  17.934  0.00  0.00    +0.000 NA
ATOM      7  C   UNL     1      48.608   4.473  16.858  0.00  0.00    +0.000 A 
ATOM      8  C   UNL     1      48.223   5.369  15.863  0.00  0.00    +0.000 A 
ATOM      9  C   UNL     1      48.648   6.690  16.053  0.00  0.00    +0.000 A 
ENDROOT
BRANCH   7  10
ATOM     10  C   UNL     1      48.149   3.045  16.800  0.00  0.00    +0.000 C 
ATOM     11  N   UNL     1      47.074   2.754  17.602  0.00  0.00    +0.000 N 
ATOM     12  O   UNL     1      48.667   2.195  16.087  0.00  0.00    +0.000 OA
ATOM     13  H   UNL     1      46.639   3.504  18.129  0.00  0.00    +0.000 HD
ATOM     14  H   UNL     1      46.663   1.834  17.575  0.00  0.00    +0.000 HD
ENDBRANCH   7  10
BRANCH   1  15
ATOM     15  C   UNL     1      48.575   7.833  13.792  0.00  0.00    +0.000 C 
BRANCH  15  19
ATOM     16  C   UNL     1      44.901   6.530  12.064  0.00  0.00    +0.000 A 
ATOM     17  C   UNL     1      45.992   5.659  12.067  0.00  0.00    +0.000 A 
ATOM     18  C   UNL     1      47.212   6.079  12.600  0.00  0.00    +0.000 A 
ATOM     19  C   UNL     1      47.309   7.360  13.138  0.00  0.00    +0.000 A 
ATOM     20  N   UNL     1      46.244   8.198  13.190  0.00  0.00    +0.000 NA
ATOM     21  C   UNL     1      45.079   7.774  12.652  0.00  0.00    +0.000 A 
BRANCH  16  22
ATOM     22  C   UNL     1      43.594   6.159  11.418  0.00  0.00    +0.000 C 
BRANCH  22  23
ATOM     23  C   UNL     1      43.640   4.821  10.680  0.00  0.00    +0.000 C 
BRANCH  23  24
ATOM     24  N   UNL     1      42.828   3.825  11.386  0.00  0.00    +0.000 NA
ATOM     25  H   UNL     1      43.277   2.907  11.321  0.00  0.00    +0.000 HD
ATOM     26  H   UNL     1      41.922   3.730  10.930  0.00  0.00    +0.000 HD
ENDBRANCH  23  24
ENDBRANCH  22  23
ENDBRANCH  16  22
ENDBRANCH  15  19
ENDBRANCH   1  15
TORSDOF 6
ENDMDL
