MODEL 1
REMARK VINA RESULT:    -9.187      0.000      0.000
REMARK INTER + INTRA:         -12.155
REMARK INTER:                 -12.141
REMARK INTRA:                  -0.014
REMARK UNBOUND:                -0.014
REMARK  Name = 
REMARK  6 active torsions:
REMARK  status: ('A' for Active; 'I' for Inactive)
REMARK    1  A    between atoms: N_1  and  C_2
REMARK    2  A    between atoms: C_5  and  C_6
REMARK    3  A    between atoms: C_6  and  C_7
REMARK    4  A    between atoms: C_10  and  C_11
REMARK    5  A    between atoms: C_11  and  N_12
REMARK    6  A    between atoms: C_13  and  C_15
REMARK                            x       y       z     vdW  Elec       q    Type
REMARK                         _______ _______ _______ _____ _____    ______ ____
ROOT
ATOM      1  C   UNL     1      44.957   4.067  10.380  0.00  0.00    +0.000 A 
ATOM      2  C   UNL     1      45.258   3.805  11.714  0.00  0.00    +0.000 A 
ATOM      3  C   UNL     1      45.787   4.826  12.506  0.00  0.00    +0.000 A 
ATOM      4  C   UNL     1      46.021   6.084  11.952  0.00  0.00    +0.000 A 
ATOM      5  C   UNL     1      45.691   6.256  10.613  0.00  0.00    +0.000 A 
ATOM      6  N   UNL     1      45.167   5.285   9.823  0.00  0.00    +0.000 NA
ENDROOT
BRANCH   1   7
ATOM      7  C   UNL     1      44.338   2.993   9.511  0.00  0.00    +0.000 C 
BRANCH   7  11
ATOM      8  C   UNL     1      47.710   2.181   6.776  0.00  0.00    +0.000 C 
ATOM      9  C   UNL     1      46.827   3.409   6.537  0.00  0.00    +0.000 C 
ATOM     10  C   UNL     1      46.058   3.792   7.801  0.00  0.00    +0.000 C 
ATOM     11  C   UNL     1      45.183   2.622   8.277  0.00  0.00    +0.000 C 
ATOM     12  C   UNL     1      46.083   1.406   8.568  0.00  0.00    +0.000 C 
ATOM     13  C   UNL     1      46.897   1.005   7.333  0.00  0.00    +0.000 C 
BRANCH   8  14
ATOM     14  N   UNL     1      48.372   1.786   5.533  0.00  0.00    +0.000 NA
ATOM     15  H   UNL     1      49.363   2.025   5.585  0.00  0.00    +0.000 HD
ATOM     16  H   UNL     1      48.000   2.335   4.758  0.00  0.00    +0.000 HD
ENDBRANCH   8  14
ENDBRANCH   7  11
ENDBRANCH   1   7
BRANCH   4  17
ATOM     17  C   UNL     1      46.562   7.213  12.780  0.00  0.00    +0.000 C 
BRANCH  17  18
ATOM     18  N   UNL     1      46.974   6.765  14.088  0.00  0.00    +0.000 N 
ATOM     19  C   UNL     1      48.303   6.604  14.393  0.00  0.00    +0.000 C 
ATOM     20  O   UNL     1      49.187   6.858  13.579  0.00  0.00    +0.000 OA
ATOM     21  H   UNL     1      46.270   6.335  14.682  0.00  0.00    +0.000 HD
BRANCH  19  22
ATOM     22  C   UNL     1      48.625   6.171  15.761  0.00  0.00    +0.000 A 
ATOM     23  C   UNL     1      49.423   6.975  16.563  0.00  0.00    +0.000 A 
ATOM     24  S   UNL     1      49.660   6.360  18.134  0.00  0.00    +0.000 S 
ATOM     25  C   UNL     1      48.748   4.968  17.786  0.00  0.00    +0.000 A 
ATOM     26  N   UNL     1      48.575   3.992  18.718  0.00  0.00    +0.000 NA
ATOM     27  C   UNL     1      47.886   2.980  18.311  0.00  0.00    +0.000 A 
ATOM     28  N   UNL     1      47.348   2.857  17.057  0.00  0.00    +0.000 N 
ATOM     29  C   UNL     1      47.473   3.829  16.091  0.00  0.00    +0.000 A 
ATOM     30  O   UNL     1      46.946   3.707  14.991  0.00  0.00    +0.000 OA
ATOM     31  C   UNL     1      48.250   4.984  16.494  0.00  0.00    +0.000 A 
ATOM     32  H   UNL     1      46.809   2.041  16.804  0.00  0.00    +0.000 HD
ENDBRANCH  19  22
ENDBRANCH  17  18
ENDBRANCH   4  17
TORSDOF 6
ENDMDL
MODEL 2
REMARK VINA RESULT:    -8.982      1.482      2.076
REMARK INTER + INTRA:         -11.883
REMARK INTER:                 -11.606
REMARK INTRA:                  -0.278
REMARK UNBOUND:                -0.014
REMARK  Name = 
REMARK  6 active torsions:
REMARK  status: ('A' for Active; 'I' for Inactive)
REMARK    1  A    between atoms: N_1  and  C_2
REMARK    2  A    between atoms: C_5  and  C_6
REMARK    3  A    between atoms: C_6  and  C_7
REMARK    4  A    between atoms: C_10  and  C_11
REMARK    5  A    between atoms: C_11  and  N_12
REMARK    6  A    between atoms: C_13  and  C_15
REMARK                            x       y       z     vdW  Elec       q    Type
REMARK                         _______ _______ _______ _____ _____    ______ ____
ROOT
ATOM      1  C   UNL     1      44.863   3.855  10.252  0.00  0.00    +0.000 A 
ATOM      2  C   UNL     1      45.101   3.323  11.517  0.00  0.00    +0.000 A 
ATOM      3  C   UNL     1      45.657   4.139  12.504  0.00  0.00    +0.000 A 
ATOM      4  C   UNL     1      45.982   5.462  12.211  0.00  0.00    +0.000 A 
ATOM      5  C   UNL     1      45.709   5.909  10.923  0.00  0.00    +0.000 A 
ATOM      6  N   UNL     1      45.160   5.142   9.947  0.00  0.00    +0.000 NA
ENDROOT
BRANCH   1   7
ATOM      7  C   UNL     1      44.215   3.008   9.176  0.00  0.00    +0.000 C 
BRANCH   7  11
ATOM      8  C   UNL     1      47.818   2.175   6.761  0.00  0.00    +0.000 C 
ATOM      9  C   UNL     1      46.946   3.386   6.418  0.00  0.00    +0.000 C 
ATOM     10  C   UNL     1      46.068   3.789   7.601  0.00  0.00    +0.000 C 
ATOM     11  C   UNL     1      45.168   2.619   8.029  0.00  0.00    +0.000 C 
ATOM     12  C   UNL     1      46.052   1.422   8.425  0.00  0.00    +0.000 C 
ATOM     13  C   UNL     1      46.973   1.002   7.275  0.00  0.00    +0.000 C 
BRANCH   8  14
ATOM     14  N   UNL     1      48.589   1.759   5.590  0.00  0.00    +0.000 NA
ATOM     15  H   UNL     1      49.143   2.546   5.251  0.00  0.00    +0.000 HD
ATOM     16  H   UNL     1      47.953   1.525   4.827  0.00  0.00    +0.000 HD
ENDBRANCH   8  14
ENDBRANCH   7  11
ENDBRANCH   1   7
BRANCH   4  17
ATOM     17  C   UNL     1      46.554   6.376  13.255  0.00  0.00    +0.000 C 
BRANCH  17  18
ATOM     18  N   UNL     1      46.771   5.687  14.504  0.00  0.00    +0.000 N 
ATOM     19  C   UNL     1      48.004   5.690  15.108  0.00  0.00    +0.000 C 
ATOM     20  O   UNL     1      48.957   6.297  14.625  0.00  0.00    +0.000 OA
ATOM     21  H   UNL     1      46.077   5.002  14.791  0.00  0.00    +0.000 HD
BRANCH  19  22
ATOM     22  C   UNL     1      48.118   4.985  16.393  0.00  0.00    +0.000 A 
ATOM     23  C   UNL     1      47.943   3.608  16.436  0.00  0.00    +0.000 A 
ATOM     24  S   UNL     1      48.159   2.936  17.987  0.00  0.00    +0.000 S 
ATOM     25  C   UNL     1      48.442   4.467  18.671  0.00  0.00    +0.000 A 
ATOM     26  N   UNL     1      48.676   4.606  20.004  0.00  0.00    +0.000 NA
ATOM     27  C   UNL     1      48.847   5.825  20.392  0.00  0.00    +0.000 A 
ATOM     28  N   UNL     1      48.812   6.918  19.567  0.00  0.00    +0.000 N 
ATOM     29  C   UNL     1      48.606   6.824  18.210  0.00  0.00    +0.000 A 
ATOM     30  O   UNL     1      48.619   7.817  17.492  0.00  0.00    +0.000 OA
ATOM     31  C   UNL     1      48.396   5.475  17.723  0.00  0.00    +0.000 A 
ATOM     32  H   UNL     1      48.963   7.846  19.934  0.00  0.00    +0.000 HD
ENDBRANCH  19  22
ENDBRANCH  17  18
ENDBRANCH   4  17
TORSDOF 6
ENDMDL
MODEL 3
REMARK VINA RESULT:    -8.354      3.782      4.658
REMARK INTER + INTRA:         -11.053
REMARK INTER:                 -10.081
REMARK INTRA:                  -0.972
REMARK UNBOUND:                -0.014
REMARK  Name = 
REMARK  6 active torsions:
REMARK  status: ('A' for Active; 'I' for Inactive)
REMARK    1  A    between atoms: N_1  and  C_2
REMARK    2  A    between atoms: C_5  and  C_6
REMARK    3  A    between atoms: C_6  and  C_7
REMARK    4  A    between atoms: C_10  and  C_11
REMARK    5  A    between atoms: C_11  and  N_12
REMARK    6  A    between atoms: C_13  and  C_15
REMARK                            x       y       z     vdW  Elec       q    Type
REMARK                         _______ _______ _______ _____ _____    ______ ____
ROOT
ATOM      1  C   UNL     1      44.521   4.154  10.609  0.00  0.00    +0.000 A 
ATOM      2  C   UNL     1      43.477   5.073  10.534  0.00  0.00    +0.000 A 
ATOM      3  C   UNL     1      43.573   6.271  11.243  0.00  0.00    +0.000 A 
ATOM      4  C   UNL     1      44.697   6.527  12.027  0.00  0.00    +0.000 A 
ATOM      5  C   UNL     1      45.690   5.555  12.043  0.00  0.00    +0.000 A 
ATOM      6  N   UNL     1      45.628   4.386  11.356  0.00  0.00    +0.000 NA
ENDROOT
BRANCH   1   7
ATOM      7  C   UNL     1      44.467   2.868   9.812  0.00  0.00    +0.000 C 
BRANCH   7  11
ATOM      8  C   UNL     1      47.102   1.983   6.379  0.00  0.00    +0.000 C 
ATOM      9  C   UNL     1      47.022   0.990   7.542  0.00  0.00    +0.000 C 
ATOM     10  C   UNL     1      45.753   1.202   8.365  0.00  0.00    +0.000 C 
ATOM     11  C   UNL     1      45.699   2.635   8.916  0.00  0.00    +0.000 C 
ATOM     12  C   UNL     1      45.724   3.629   7.740  0.00  0.00    +0.000 C 
ATOM     13  C   UNL     1      46.968   3.432   6.867  0.00  0.00    +0.000 C 
BRANCH   8  14
ATOM     14  N   UNL     1      48.362   1.814   5.655  0.00  0.00    +0.000 NA
ATOM     15  H   UNL     1      48.798   0.935   5.934  0.00  0.00    +0.000 HD
ATOM     16  H   UNL     1      49.017   2.545   5.935  0.00  0.00    +0.000 HD
ENDBRANCH   8  14
ENDBRANCH   7  11
ENDBRANCH   1   7
BRANCH   4  17
ATOM     17  C   UNL     1      44.846   7.817  12.780  0.00  0.00    +0.000 C 
BRANCH  17  18
ATOM     18  N   UNL     1      46.216   8.269  12.795  0.00  0.00    +0.000 N 
ATOM     19  C   UNL     1      46.555   9.511  12.319  0.00  0.00    +0.000 C 
ATOM     20  O   UNL     1      45.708  10.291  11.890  0.00  0.00    +0.000 OA
ATOM     21  H   UNL     1      46.942   7.569  12.924  0.00  0.00    +0.000 HD
BRANCH  19  22
ATOM     22  C   UNL     1      47.972   9.893  12.404  0.00  0.00    +0.000 A 
ATOM     23  C   UNL     1      48.313  11.162  12.852  0.00  0.00    +0.000 A 
ATOM     24  S   UNL     1      49.994  11.431  12.942  0.00  0.00    +0.000 S 
ATOM     25  C   UNL     1      50.330   9.879  12.333  0.00  0.00    +0.000 A 
ATOM     26  N   UNL     1      51.611   9.468  12.134  0.00  0.00    +0.000 NA
ATOM     27  C   UNL     1      51.720   8.279  11.642  0.00  0.00    +0.000 A 
ATOM     28  N   UNL     1      50.664   7.462  11.336  0.00  0.00    +0.000 N 
ATOM     29  C   UNL     1      49.353   7.825  11.546  0.00  0.00    +0.000 A 
ATOM     30  O   UNL     1      48.431   7.056  11.299  0.00  0.00    +0.000 OA
ATOM     31  C   UNL     1      49.175   9.157  12.086  0.00  0.00    +0.000 A 
ATOM     32  H   UNL     1      50.818   6.538  10.961  0.00  0.00    +0.000 HD
ENDBRANCH  19  22
ENDBRANCH  17  18
ENDBRANCH   4  17
TORSDOF 6
ENDMDL
MODEL 4
REMARK VINA RESULT:    -7.615      3.044      8.955
REMARK INTER + INTRA:         -10.077
REMARK INTER:                  -9.040
REMARK INTRA:                  -1.037
REMARK UNBOUND:                -0.014
REMARK  Name = 
REMARK  6 active torsions:
REMARK  status: ('A' for Active; 'I' for Inactive)
REMARK    1  A    between atoms: N_1  and  C_2
REMARK    2  A    between atoms: C_5  and  C_6
REMARK    3  A    between atoms: C_6  and  C_7
REMARK    4  A    between atoms: C_10  and  C_11
REMARK    5  A    between atoms: C_11  and  N_12
REMARK    6  A    between atoms: C_13  and  C_15
REMARK                            x       y       z     vdW  Elec       q    Type
REMARK                         _______ _______ _______ _____ _____    ______ ____
ROOT
ATOM      1  C   UNL     1      49.468   7.957  15.672  0.00  0.00    +0.000 A 
ATOM      2  C   UNL     1      48.447   8.869  15.417  0.00  0.00    +0.000 A 
ATOM      3  C   UNL     1      47.819   8.857  14.170  0.00  0.00    +0.000 A 
ATOM      4  C   UNL     1      48.228   7.949  13.195  0.00  0.00    +0.000 A 
ATOM      5  C   UNL     1      49.253   7.075  13.536  0.00  0.00    +0.000 A 
ATOM      6  N   UNL     1      49.875   7.058  14.742  0.00  0.00    +0.000 NA
ENDROOT
BRANCH   1   7
ATOM      7  C   UNL     1      50.134   7.915  17.031  0.00  0.00    +0.000 C 
BRANCH   7  11
ATOM      8  C   UNL     1      48.753   5.163  20.198  0.00  0.00    +0.000 C 
ATOM      9  C   UNL     1      50.254   5.319  19.940  0.00  0.00    +0.000 C 
ATOM     10  C   UNL     1      50.555   6.616  19.190  0.00  0.00    +0.000 C 
ATOM     11  C   UNL     1      49.802   6.653  17.850  0.00  0.00    +0.000 C 
ATOM     12  C   UNL     1      48.289   6.549  18.120  0.00  0.00    +0.000 C 
ATOM     13  C   UNL     1      47.945   5.276  18.899  0.00  0.00    +0.000 C 
BRANCH   8  14
ATOM     14  N   UNL     1      48.483   3.878  20.844  0.00  0.00    +0.000 NA
ATOM     15  H   UNL     1      47.527   3.871  21.200  0.00  0.00    +0.000 HD
ATOM     16  H   UNL     1      49.080   3.777  21.666  0.00  0.00    +0.000 HD
ENDBRANCH   8  14
ENDBRANCH   7  11
ENDBRANCH   1   7
BRANCH   4  17
ATOM     17  C   UNL     1      47.556   7.888  11.854  0.00  0.00    +0.000 C 
BRANCH  17  18
ATOM     18  N   UNL     1      46.895   6.622  11.647  0.00  0.00    +0.000 N 
ATOM     19  C   UNL     1      45.540   6.496  11.826  0.00  0.00    +0.000 C 
ATOM     20  O   UNL     1      44.839   7.454  12.143  0.00  0.00    +0.000 OA
ATOM     21  H   UNL     1      47.475   5.788  11.615  0.00  0.00    +0.000 HD
BRANCH  19  22
ATOM     22  C   UNL     1      44.954   5.174  11.562  0.00  0.00    +0.000 A 
ATOM     23  C   UNL     1      44.263   4.518  12.573  0.00  0.00    +0.000 A 
ATOM     24  S   UNL     1      43.601   3.022  12.093  0.00  0.00    +0.000 S 
ATOM     25  C   UNL     1      44.258   3.169  10.532  0.00  0.00    +0.000 A 
ATOM     26  N   UNL     1      44.082   2.191   9.603  0.00  0.00    +0.000 NA
ATOM     27  C   UNL     1      44.657   2.420   8.471  0.00  0.00    +0.000 A 
ATOM     28  N   UNL     1      45.389   3.541   8.180  0.00  0.00    +0.000 N 
ATOM     29  C   UNL     1      45.571   4.568   9.078  0.00  0.00    +0.000 A 
ATOM     30  O   UNL     1      46.198   5.577   8.775  0.00  0.00    +0.000 OA
ATOM     31  C   UNL     1      44.954   4.355  10.372  0.00  0.00    +0.000 A 
ATOM     32  H   UNL     1      45.807   3.664   7.269  0.00  0.00    +0.000 HD
ENDBRANCH  19  22
ENDBRANCH  17  18
ENDBRANCH   4  17
TORSDOF 6
ENDMDL
MODEL 5
REMARK VINA RESULT:    -7.583      4.086      6.204
REMARK INTER + INTRA:         -10.035
REMARK INTER:                  -8.923
REMARK INTRA:                  -1.112
REMARK UNBOUND:                -0.014
REMARK  Name = 
REMARK  6 active torsions:
REMARK  status: ('A' for Active; 'I' for Inactive)
REMARK    1  A    between atoms: N_1  and  C_2
REMARK    2  A    between atoms: C_5  and  C_6
REMARK    3  A    between atoms: C_6  and  C_7
REMARK    4  A    between atoms: C_10  and  C_11
REMARK    5  A    between atoms: C_11  and  N_12
REMARK    6  A    between atoms: C_13  and  C_15
REMARK                            x       y       z     vdW  Elec       q    Type
REMARK                         _______ _______ _______ _____ _____    ______ ____
ROOT
ATOM      1  C   UNL     1      47.224   4.377  15.047  0.00  0.00    +0.000 A 
ATOM      2  C   UNL     1      47.968   5.542  15.216  0.00  0.00    +0.000 A 
ATOM      3  C   UNL     1      48.573   5.791  16.449  0.00  0.00    +0.000 A 
ATOM      4  C   UNL     1      48.413   4.884  17.497  0.00  0.00    +0.000 A 
ATOM      5  C   UNL     1      47.655   3.748  17.239  0.00  0.00    +0.000 A 
ATOM      6  N   UNL     1      47.064   3.477  16.047  0.00  0.00    +0.000 NA
ENDROOT
BRANCH   1   7
ATOM      7  C   UNL     1      46.598   4.058  13.705  0.00  0.00    +0.000 C 
BRANCH   7  11
ATOM      8  C   UNL     1      43.485   6.202  11.421  0.00  0.00    +0.000 C 
ATOM      9  C   UNL     1      44.832   6.883  11.677  0.00  0.00    +0.000 C 
ATOM     10  C   UNL     1      45.910   5.860  12.031  0.00  0.00    +0.000 C 
ATOM     11  C   UNL     1      45.504   5.053  13.274  0.00  0.00    +0.000 C 
ATOM     12  C   UNL     1      44.175   4.327  12.991  0.00  0.00    +0.000 C 
ATOM     13  C   UNL     1      43.070   5.315  12.602  0.00  0.00    +0.000 C 
BRANCH   8  14
ATOM     14  N   UNL     1      42.452   7.206  11.164  0.00  0.00    +0.000 NA
ATOM     15  H   UNL     1      42.359   7.814  11.978  0.00  0.00    +0.000 HD
ATOM     16  H   UNL     1      41.547   6.747  11.061  0.00  0.00    +0.000 HD
ENDBRANCH   8  14
ENDBRANCH   7  11
ENDBRANCH   1   7
BRANCH   4  17
ATOM     17  C   UNL     1      49.072   5.104  18.827  0.00  0.00    +0.000 C 
BRANCH  17  18
ATOM     18  N   UNL     1      50.214   4.241  19.005  0.00  0.00    +0.000 N 
ATOM     19  C   UNL     1      51.473   4.650  18.640  0.00  0.00    +0.000 C 
ATOM     20  O   UNL     1      51.678   5.769  18.176  0.00  0.00    +0.000 OA
ATOM     21  H   UNL     1      50.037   3.253  19.164  0.00  0.00    +0.000 HD
BRANCH  19  22
ATOM     22  C   UNL     1      52.576   3.711  18.888  0.00  0.00    +0.000 A 
ATOM     23  C   UNL     1      53.657   4.114  19.660  0.00  0.00    +0.000 A 
ATOM     24  S   UNL     1      54.825   2.895  19.897  0.00  0.00    +0.000 S 
ATOM     25  C   UNL     1      53.957   1.799  18.931  0.00  0.00    +0.000 A 
ATOM     26  N   UNL     1      54.430   0.545  18.696  0.00  0.00    +0.000 NA
ATOM     27  C   UNL     1      53.685  -0.172  17.924  0.00  0.00    +0.000 A 
ATOM     28  N   UNL     1      52.505   0.249  17.370  0.00  0.00    +0.000 N 
ATOM     29  C   UNL     1      51.973   1.497  17.601  0.00  0.00    +0.000 A 
ATOM     30  O   UNL     1      50.895   1.831  17.122  0.00  0.00    +0.000 OA
ATOM     31  C   UNL     1      52.779   2.348  18.453  0.00  0.00    +0.000 A 
ATOM     32  H   UNL     1      51.963  -0.366  16.781  0.00  0.00    +0.000 HD
ENDBRANCH  19  22
ENDBRANCH  17  18
ENDBRANCH   4  17
TORSDOF 6
ENDMDL
MODEL 6
REMARK VINA RESULT:    -7.534      3.239      4.712
REMARK INTER + INTRA:          -9.970
REMARK INTER:                  -9.024
REMARK INTRA:                  -0.946
REMARK UNBOUND:                -0.014
REMARK  Name = 
REMARK  6 active torsions:
REMARK  status: ('A' for Active; 'I' for Inactive)
REMARK    1  A    between atoms: N_1  and  C_2
REMARK    2  A    between atoms: C_5  and  C_6
REMARK    3  A    between atoms: C_6  and  C_7
REMARK    4  A    between atoms: C_10  and  C_11
REMARK    5  A    between atoms: C_11  and  N_12
REMARK    6  A    between atoms: C_13  and  C_15
REMARK                            x       y       z     vdW  Elec       q    Type
REMARK                         _______ _______ _______ _____ _____    ______ ____
ROOT
ATOM      1  C   UNL     1      47.072   7.109  12.973  0.00  0.00    +0.000 A 
ATOM      2  C   UNL     1      47.824   6.105  13.577  0.00  0.00    +0.000 A 
ATOM      3  C   UNL     1      48.598   6.414  14.696  0.00  0.00    +0.000 A 
ATOM      4  C   UNL     1      48.623   7.720  15.185  0.00  0.00    +0.000 A 
ATOM      5  C   UNL     1      47.841   8.658  14.521  0.00  0.00    +0.000 A 
ATOM      6  N   UNL     1      47.072   8.383  13.436  0.00  0.00    +0.000 NA
ENDROOT
BRANCH   1   7
ATOM      7  C   UNL     1      46.185   6.792  11.787  0.00  0.00    +0.000 C 
BRANCH   7  11
ATOM      8  C   UNL     1      43.389   3.384  11.505  0.00  0.00    +0.000 C 
ATOM      9  C   UNL     1      43.847   3.868  12.883  0.00  0.00    +0.000 C 
ATOM     10  C   UNL     1      44.389   5.296  12.816  0.00  0.00    +0.000 C 
ATOM     11  C   UNL     1      45.564   5.382  11.831  0.00  0.00    +0.000 C 
ATOM     12  C   UNL     1      45.084   4.945  10.434  0.00  0.00    +0.000 C 
ATOM     13  C   UNL     1      44.504   3.527  10.460  0.00  0.00    +0.000 C 
BRANCH   8  14
ATOM     14  N   UNL     1      42.951   1.990  11.580  0.00  0.00    +0.000 NA
ATOM     15  H   UNL     1      41.965   1.929  11.324  0.00  0.00    +0.000 HD
ATOM     16  H   UNL     1      43.002   1.667  12.546  0.00  0.00    +0.000 HD
ENDBRANCH   8  14
ENDBRANCH   7  11
ENDBRANCH   1   7
BRANCH   4  17
ATOM     17  C   UNL     1      49.421   8.083  16.403  0.00  0.00    +0.000 C 
BRANCH  17  18
ATOM     18  N   UNL     1      50.399   7.070  16.720  0.00  0.00    +0.000 N 
ATOM     19  C   UNL     1      50.191   6.186  17.749  0.00  0.00    +0.000 C 
ATOM     20  O   UNL     1      49.161   6.206  18.419  0.00  0.00    +0.000 OA
ATOM     21  H   UNL     1      51.335   7.184  16.341  0.00  0.00    +0.000 HD
BRANCH  19  22
ATOM     22  C   UNL     1      51.231   5.172  17.977  0.00  0.00    +0.000 A 
ATOM     23  C   UNL     1      52.453   5.553  18.515  0.00  0.00    +0.000 A 
ATOM     24  S   UNL     1      53.529   4.255  18.765  0.00  0.00    +0.000 S 
ATOM     25  C   UNL     1      52.422   3.141  18.113  0.00  0.00    +0.000 A 
ATOM     26  N   UNL     1      52.738   1.822  18.008  0.00  0.00    +0.000 NA
ATOM     27  C   UNL     1      51.818   1.094  17.470  0.00  0.00    +0.000 A 
ATOM     28  N   UNL     1      50.607   1.564  17.033  0.00  0.00    +0.000 N 
ATOM     29  C   UNL     1      50.234   2.884  17.144  0.00  0.00    +0.000 A 
ATOM     30  O   UNL     1      49.128   3.267  16.780  0.00  0.00    +0.000 OA
ATOM     31  C   UNL     1      51.238   3.748  17.731  0.00  0.00    +0.000 A 
ATOM     32  H   UNL     1      49.926   0.938  16.630  0.00  0.00    +0.000 HD
ENDBRANCH  19  22
ENDBRANCH  17  18
ENDBRANCH   4  17
TORSDOF 6
ENDMDL
MODEL 7
REMARK VINA RESULT:    -7.411      3.516      8.348
REMARK INTER + INTRA:          -9.808
REMARK INTER:                  -8.968
REMARK INTRA:                  -0.840
REMARK UNBOUND:                -0.014
REMARK  Name = 
REMARK  6 active torsions:
REMARK  status: ('A' for Active; 'I' for Inactive)
REMARK    1  A    between atoms: N_1  and  C_2
REMARK    2  A    between atoms: C_5  and  C_6
REMARK    3  A    between atoms: C_6  and  C_7
REMARK    4  A    between atoms: C_10  and  C_11
REMARK    5  A    between atoms: C_11  and  N_12
REMARK    6  A    between atoms: C_13  and  C_15
REMARK                            x       y       z     vdW  Elec       q    Type
REMARK                         _______ _______ _______ _____ _____    ______ ____
ROOT
ATOM      1  C   UNL     1      50.145   5.850  16.650  0.00  0.00    +0.000 A 
ATOM      2  C   UNL     1      50.647   6.947  15.954  0.00  0.00    +0.000 A 
ATOM      3  C   UNL     1      49.889   7.504  14.922  0.00  0.00    +0.000 A 
ATOM      4  C   UNL     1      48.653   6.950  14.591  0.00  0.00    +0.000 A 
ATOM      5  C   UNL     1      48.230   5.857  15.338  0.00  0.00    +0.000 A 
ATOM      6  N   UNL     1      48.941   5.302  16.352  0.00  0.00    +0.000 NA
ENDROOT
BRANCH   1   7
ATOM      7  C   UNL     1      50.923   5.256  17.805  0.00  0.00    +0.000 C 
BRANCH   7  11
ATOM      8  C   UNL     1      52.763   1.248  18.051  0.00  0.00    +0.000 C 
ATOM      9  C   UNL     1      53.656   2.474  17.842  0.00  0.00    +0.000 C 
ATOM     10  C   UNL     1      52.941   3.758  18.260  0.00  0.00    +0.000 C 
ATOM     11  C   UNL     1      51.639   3.935  17.462  0.00  0.00    +0.000 C 
ATOM     12  C   UNL     1      50.722   2.725  17.719  0.00  0.00    +0.000 C 
ATOM     13  C   UNL     1      51.412   1.410  17.342  0.00  0.00    +0.000 C 
BRANCH   8  14
ATOM     14  N   UNL     1      53.438   0.043  17.570  0.00  0.00    +0.000 NA
ATOM     15  H   UNL     1      54.152  -0.238  18.242  0.00  0.00    +0.000 HD
ATOM     16  H   UNL     1      53.942   0.255  16.709  0.00  0.00    +0.000 HD
ENDBRANCH   8  14
ENDBRANCH   7  11
ENDBRANCH   1   7
BRANCH   4  17
ATOM     17  C   UNL     1      47.799   7.540  13.507  0.00  0.00    +0.000 C 
BRANCH  17  18
ATOM     18  N   UNL     1      47.134   6.517  12.737  0.00  0.00    +0.000 N 
ATOM     19  C   UNL     1      46.197   6.843  11.788  0.00  0.00    +0.000 C 
ATOM     20  O   UNL     1      45.909   8.012  11.541  0.00  0.00    +0.000 OA
ATOM     21  H   UNL     1      47.184   5.562  13.081  0.00  0.00    +0.000 HD
BRANCH  19  22
ATOM     22  C   UNL     1      45.596   5.733  11.035  0.00  0.00    +0.000 A 
ATOM     23  C   UNL     1      45.713   5.702   9.652  0.00  0.00    +0.000 A 
ATOM     24  S   UNL     1      45.010   4.326   8.933  0.00  0.00    +0.000 S 
ATOM     25  C   UNL     1      44.475   3.745  10.439  0.00  0.00    +0.000 A 
ATOM     26  N   UNL     1      43.764   2.590  10.531  0.00  0.00    +0.000 NA
ATOM     27  C   UNL     1      43.398   2.281  11.730  0.00  0.00    +0.000 A 
ATOM     28  N   UNL     1      43.684   3.021  12.847  0.00  0.00    +0.000 N 
ATOM     29  C   UNL     1      44.423   4.181  12.806  0.00  0.00    +0.000 A 
ATOM     30  O   UNL     1      44.696   4.801  13.828  0.00  0.00    +0.000 OA
ATOM     31  C   UNL     1      44.848   4.579  11.479  0.00  0.00    +0.000 A 
ATOM     32  H   UNL     1      43.375   2.719  13.759  0.00  0.00    +0.000 HD
ENDBRANCH  19  22
ENDBRANCH  17  18
ENDBRANCH   4  17
TORSDOF 6
ENDMDL
MODEL 8
REMARK VINA RESULT:    -7.337      3.164      4.237
REMARK INTER + INTRA:          -9.710
REMARK INTER:                 -10.202
REMARK INTRA:                   0.492
REMARK UNBOUND:                -0.014
REMARK  Name = 
REMARK  6 active torsions:
REMARK  status: ('A' for Active; 'I' for Inactive)
REMARK    1  A    between atoms: N_1  and  C_2
REMARK    2  A    between atoms: C_5  and  C_6
REMARK    3  A    between atoms: C_6  and  C_7
REMARK    4  A    between atoms: C_10  and  C_11
REMARK    5  A    between atoms: C_11  and  N_12
REMARK    6  A    between atoms: C_13  and  C_15
REMARK                            x       y       z     vdW  Elec       q    Type
REMARK                         _______ _______ _______ _____ _____    ______ ____
ROOT
ATOM      1  C   UNL     1      44.875   3.787  10.378  0.00  0.00    +0.000 A 
ATOM      2  C   UNL     1      45.189   3.358  11.666  0.00  0.00    +0.000 A 
ATOM      3  C   UNL     1      45.697   4.279  12.584  0.00  0.00    +0.000 A 
ATOM      4  C   UNL     1      45.898   5.604  12.202  0.00  0.00    +0.000 A 
ATOM      5  C   UNL     1      45.556   5.944  10.898  0.00  0.00    +0.000 A 
ATOM      6  N   UNL     1      45.051   5.073   9.987  0.00  0.00    +0.000 NA
ENDROOT
BRANCH   1   7
ATOM      7  C   UNL     1      44.277   2.822   9.376  0.00  0.00    +0.000 C 
BRANCH   7  11
ATOM      8  C   UNL     1      47.789   2.262   6.757  0.00  0.00    +0.000 C 
ATOM      9  C   UNL     1      46.859   3.456   6.522  0.00  0.00    +0.000 C 
ATOM     10  C   UNL     1      46.024   3.759   7.765  0.00  0.00    +0.000 C 
ATOM     11  C   UNL     1      45.187   2.533   8.167  0.00  0.00    +0.000 C 
ATOM     12  C   UNL     1      46.132   1.351   8.454  0.00  0.00    +0.000 C 
ATOM     13  C   UNL     1      47.012   1.031   7.241  0.00  0.00    +0.000 C 
BRANCH   8  14
ATOM     14  N   UNL     1      48.518   1.941   5.529  0.00  0.00    +0.000 NA
ATOM     15  H   UNL     1      48.863   2.802   5.104  0.00  0.00    +0.000 HD
ATOM     16  H   UNL     1      47.877   1.538   4.846  0.00  0.00    +0.000 HD
ENDBRANCH   8  14
ENDBRANCH   7  11
ENDBRANCH   1   7
BRANCH   4  17
ATOM     17  C   UNL     1      46.415   6.627  13.170  0.00  0.00    +0.000 C 
BRANCH  17  18
ATOM     18  N   UNL     1      47.621   7.255  12.689  0.00  0.00    +0.000 N 
ATOM     19  C   UNL     1      48.686   7.474  13.527  0.00  0.00    +0.000 C 
ATOM     20  O   UNL     1      48.664   7.123  14.704  0.00  0.00    +0.000 OA
ATOM     21  H   UNL     1      47.573   7.751  11.804  0.00  0.00    +0.000 HD
BRANCH  19  22
ATOM     22  C   UNL     1      49.882   8.093  12.937  0.00  0.00    +0.000 A 
ATOM     23  C   UNL     1      49.829   8.582  11.639  0.00  0.00    +0.000 A 
ATOM     24  S   UNL     1      51.278   9.315  11.121  0.00  0.00    +0.000 S 
ATOM     25  C   UNL     1      52.049   8.957  12.593  0.00  0.00    +0.000 A 
ATOM     26  N   UNL     1      53.350   9.298  12.803  0.00  0.00    +0.000 NA
ATOM     27  C   UNL     1      53.816   8.942  13.952  0.00  0.00    +0.000 A 
ATOM     28  N   UNL     1      53.099   8.281  14.914  0.00  0.00    +0.000 N 
ATOM     29  C   UNL     1      51.775   7.941  14.758  0.00  0.00    +0.000 A 
ATOM     30  O   UNL     1      51.148   7.385  15.653  0.00  0.00    +0.000 OA
ATOM     31  C   UNL     1      51.205   8.308  13.477  0.00  0.00    +0.000 A 
ATOM     32  H   UNL     1      53.522   8.039  15.798  0.00  0.00    +0.000 HD
ENDBRANCH  19  22
ENDBRANCH  17  18
ENDBRANCH   4  17
TORSDOF 6
ENDMDL
MODEL 9
REMARK VINA RESULT:    -7.225      3.005      3.954
REMARK INTER + INTRA:          -9.562
REMARK INTER:                  -8.580
REMARK INTRA:                  -0.982
REMARK UNBOUND:                -0.014
REMARK  Name = 
REMARK  6 active torsions:
REMARK  status: ('A' for Active; 'I' for Inactive)
REMARK    1  A    between atoms: N_1  and  C_2
REMARK    2  A    between atoms: C_5  and  C_6
REMARK    3  A    between atoms: C_6  and  C_7
REMARK    4  A    between atoms: C_10  and  C_11
REMARK    5  A    between atoms: C_11  and  N_12
REMARK    6  A    between atoms: C_13  and  C_15
REMARK                            x       y       z     vdW  Elec       q    Type
REMARK                         _______ _______ _______ _____ _____    ______ ____
ROOT
ATOM      1  C   UNL     1      45.850   7.756  11.981  0.00  0.00    +0.000 A 
ATOM      2  C   UNL     1      46.898   6.955  11.534  0.00  0.00    +0.000 A 
ATOM      3  C   UNL     1      48.131   7.022  12.185  0.00  0.00    +0.000 A 
ATOM      4  C   UNL     1      48.304   7.894  13.258  0.00  0.00    +0.000 A 
ATOM      5  C   UNL     1      47.204   8.655  13.637  0.00  0.00    +0.000 A 
ATOM      6  N   UNL     1      45.991   8.604  13.029  0.00  0.00    +0.000 NA
ENDROOT
BRANCH   1   7
ATOM      7  C   UNL     1      44.487   7.669  11.325  0.00  0.00    +0.000 C 
BRANCH   7  11
ATOM      8  C   UNL     1      43.828   3.334  11.854  0.00  0.00    +0.000 C 
ATOM      9  C   UNL     1      43.746   3.941  10.451  0.00  0.00    +0.000 C 
ATOM     10  C   UNL     1      44.456   5.292  10.390  0.00  0.00    +0.000 C 
ATOM     11  C   UNL     1      43.844   6.271  11.405  0.00  0.00    +0.000 C 
ATOM     12  C   UNL     1      43.978   5.679  12.820  0.00  0.00    +0.000 C 
ATOM     13  C   UNL     1      43.305   4.307  12.919  0.00  0.00    +0.000 C 
BRANCH   8  14
ATOM     14  N   UNL     1      43.073   2.082  11.908  0.00  0.00    +0.000 NA
ATOM     15  H   UNL     1      43.202   1.569  11.035  0.00  0.00    +0.000 HD
ATOM     16  H   UNL     1      42.075   2.286  11.960  0.00  0.00    +0.000 HD
ENDBRANCH   8  14
ENDBRANCH   7  11
ENDBRANCH   1   7
BRANCH   4  17
ATOM     17  C   UNL     1      49.606   7.971  14.000  0.00  0.00    +0.000 C 
BRANCH  17  18
ATOM     18  N   UNL     1      49.663   7.013  15.077  0.00  0.00    +0.000 N 
ATOM     19  C   UNL     1      49.343   7.376  16.362  0.00  0.00    +0.000 C 
ATOM     20  O   UNL     1      48.973   8.515  16.638  0.00  0.00    +0.000 OA
ATOM     21  H   UNL     1      50.178   6.152  14.915  0.00  0.00    +0.000 HD
BRANCH  19  22
ATOM     22  C   UNL     1      49.402   6.323  17.386  0.00  0.00    +0.000 A 
ATOM     23  C   UNL     1      50.176   6.516  18.523  0.00  0.00    +0.000 A 
ATOM     24  S   UNL     1      50.098   5.227  19.635  0.00  0.00    +0.000 S 
ATOM     25  C   UNL     1      49.070   4.337  18.615  0.00  0.00    +0.000 A 
ATOM     26  N   UNL     1      48.636   3.097  18.968  0.00  0.00    +0.000 NA
ATOM     27  C   UNL     1      47.885   2.523  18.089  0.00  0.00    +0.000 A 
ATOM     28  N   UNL     1      47.523   3.080  16.890  0.00  0.00    +0.000 N 
ATOM     29  C   UNL     1      47.914   4.341  16.503  0.00  0.00    +0.000 A 
ATOM     30  O   UNL     1      47.542   4.828  15.441  0.00  0.00    +0.000 OA
ATOM     31  C   UNL     1      48.771   5.024  17.451  0.00  0.00    +0.000 A 
ATOM     32  H   UNL     1      46.923   2.581  16.249  0.00  0.00    +0.000 HD
ENDBRANCH  19  22
ENDBRANCH  17  18
ENDBRANCH   4  17
TORSDOF 6
ENDMDL
