MODEL 1
REMARK VINA RESULT:    -8.719      0.000      0.000
REMARK INTER + INTRA:         -11.874
REMARK INTER:                 -11.268
REMARK INTRA:                  -0.606
REMARK UNBOUND:                -0.606
REMARK  Name = 
REMARK  5 active torsions:
REMARK  status: ('A' for Active; 'I' for Inactive)
REMARK    1  A    between atoms: C_2  and  C_4
REMARK    2  A    between atoms: C_7  and  N_8
REMARK    3  A    between atoms: N_8  and  C_9
REMARK    4  A    between atoms: C_9  and  C_10
REMARK    5  A    between atoms: C_14  and  C_15
REMARK                            x       y       z     vdW  Elec       q    Type
REMARK                         _______ _______ _______ _____ _____    ______ ____
ROOT
ATOM      1  C   UNL     1      43.509   4.612  11.049  0.00  0.00    +0.000 C 
ENDROOT
BRANCH   1   2
ATOM      2  C   UNL     1      44.749   4.917  11.851  0.00  0.00    +0.000 A 
ATOM      3  C   UNL     1      45.145   4.079  12.885  0.00  0.00    +0.000 A 
ATOM      4  N   UNL     1      46.238   4.290  13.648  0.00  0.00    +0.000 NA
ATOM      5  C   UNL     1      46.965   5.402  13.378  0.00  0.00    +0.000 A 
ATOM      6  C   UNL     1      46.680   6.333  12.374  0.00  0.00    +0.000 A 
ATOM      7  C   UNL     1      45.534   6.055  11.607  0.00  0.00    +0.000 A 
BRANCH   6   8
ATOM      8  C   UNL     1      47.523   7.530  12.145  0.00  0.00    +0.000 A 
ATOM      9  C   UNL     1      46.996   8.837  12.236  0.00  0.00    +0.000 A 
ATOM     10  C   UNL     1      47.789   9.965  12.005  0.00  0.00    +0.000 A 
ATOM     11  C   UNL     1      49.131   9.806  11.692  0.00  0.00    +0.000 A 
ATOM     12  F   UNL     1      49.893  10.885  11.476  0.00  0.00    +0.000 F 
ATOM     13  C   UNL     1      49.689   8.541  11.599  0.00  0.00    +0.000 A 
ATOM     14  C   UNL     1      48.890   7.414  11.818  0.00  0.00    +0.000 A 
ENDBRANCH   6   8
ENDBRANCH   1   2
BRANCH   1  15
ATOM     15  N   UNL     1      43.767   4.887   9.641  0.00  0.00    +0.000 N 
ATOM     16  H   UNL     1      44.120   5.828   9.493  0.00  0.00    +0.000 HD
BRANCH  15  20
ATOM     17  C   UNL     1      46.210   2.054   7.924  0.00  0.00    +0.000 A 
ATOM     18  C   UNL     1      46.320   3.389   7.572  0.00  0.00    +0.000 A 
ATOM     19  N   UNL     1      45.521   4.356   8.102  0.00  0.00    +0.000 NA
ATOM     20  C   UNL     1      44.597   3.953   9.002  0.00  0.00    +0.000 A 
ATOM     21  C   UNL     1      44.507   2.595   9.346  0.00  0.00    +0.000 A 
ATOM     22  N   UNL     1      45.288   1.613   8.821  0.00  0.00    +0.000 NA
BRANCH  17  24
ATOM     23  N   UNL     1      46.884  -0.257   7.652  0.00  0.00    +0.000 N 
ATOM     24  C   UNL     1      47.129   1.048   7.323  0.00  0.00    +0.000 C 
ATOM     25  O   UNL     1      48.049   1.365   6.578  0.00  0.00    +0.000 OA
ATOM     26  H   UNL     1      47.481  -0.987   7.286  0.00  0.00    +0.000 HD
ATOM     27  H   UNL     1      46.118  -0.490   8.275  0.00  0.00    +0.000 HD
ENDBRANCH  17  24
ENDBRANCH  15  20
ENDBRANCH   1  15
TORSDOF 5
ENDMDL
MODEL 2
REMARK VINA RESULT:    -8.712      3.730      6.813
REMARK INTER + INTRA:         -11.864
REMARK INTER:                 -11.110
REMARK INTRA:                  -0.755
REMARK UNBOUND:                -0.606
REMARK  Name = 
REMARK  5 active torsions:
REMARK  status: ('A' for Active; 'I' for Inactive)
REMARK    1  A    between atoms: C_2  and  C_4
REMARK    2  A    between atoms: C_7  and  N_8
REMARK    3  A    between atoms: N_8  and  C_9
REMARK    4  A    between atoms: C_9  and  C_10
REMARK    5  A    between atoms: C_14  and  C_15
REMARK                            x       y       z     vdW  Elec       q    Type
REMARK                         _______ _______ _______ _____ _____    ______ ____
ROOT
ATOM      1  C   UNL     1      43.272   6.084  11.406  0.00  0.00    +0.000 C 
ENDROOT
BRANCH   1   2
ATOM      2  C   UNL     1      43.576   4.679  10.952  0.00  0.00    +0.000 A 
ATOM      3  C   UNL     1      43.026   3.589  11.613  0.00  0.00    +0.000 A 
ATOM      4  N   UNL     1      43.257   2.304  11.268  0.00  0.00    +0.000 NA
ATOM      5  C   UNL     1      44.091   2.095  10.219  0.00  0.00    +0.000 A 
ATOM      6  C   UNL     1      44.718   3.095   9.469  0.00  0.00    +0.000 A 
ATOM      7  C   UNL     1      44.432   4.413   9.871  0.00  0.00    +0.000 A 
BRANCH   6   8
ATOM      8  C   UNL     1      45.623   2.784   8.338  0.00  0.00    +0.000 A 
ATOM      9  C   UNL     1      46.253   1.527   8.218  0.00  0.00    +0.000 A 
ATOM     10  C   UNL     1      47.119   1.239   7.157  0.00  0.00    +0.000 A 
ATOM     11  C   UNL     1      47.358   2.202   6.189  0.00  0.00    +0.000 A 
ATOM     12  F   UNL     1      48.182   1.926   5.170  0.00  0.00    +0.000 F 
ATOM     13  C   UNL     1      46.754   3.447   6.266  0.00  0.00    +0.000 A 
ATOM     14  C   UNL     1      45.898   3.736   7.335  0.00  0.00    +0.000 A 
ENDBRANCH   6   8
ENDBRANCH   1   2
BRANCH   1  15
ATOM     15  N   UNL     1      43.762   6.267  12.767  0.00  0.00    +0.000 N 
ATOM     16  H   UNL     1      43.475   5.510  13.382  0.00  0.00    +0.000 HD
BRANCH  15  20
ATOM     17  C   UNL     1      47.820   6.784  13.229  0.00  0.00    +0.000 A 
ATOM     18  C   UNL     1      47.037   7.787  12.681  0.00  0.00    +0.000 A 
ATOM     19  N   UNL     1      45.695   7.652  12.495  0.00  0.00    +0.000 NA
ATOM     20  C   UNL     1      45.146   6.476  12.871  0.00  0.00    +0.000 A 
ATOM     21  C   UNL     1      45.958   5.475  13.428  0.00  0.00    +0.000 A 
ATOM     22  N   UNL     1      47.302   5.587  13.613  0.00  0.00    +0.000 NA
BRANCH  17  24
ATOM     23  N   UNL     1      50.002   7.260  12.292  0.00  0.00    +0.000 N 
ATOM     24  C   UNL     1      49.279   7.004  13.425  0.00  0.00    +0.000 C 
ATOM     25  O   UNL     1      49.805   6.959  14.530  0.00  0.00    +0.000 OA
ATOM     26  H   UNL     1      51.001   7.406  12.357  0.00  0.00    +0.000 HD
ATOM     27  H   UNL     1      49.541   7.287  11.389  0.00  0.00    +0.000 HD
ENDBRANCH  17  24
ENDBRANCH  15  20
ENDBRANCH   1  15
TORSDOF 5
ENDMDL
MODEL 3
REMARK VINA RESULT:    -8.433      2.859      3.960
REMARK INTER + INTRA:         -11.504
REMARK INTER:                 -10.926
REMARK INTRA:                  -0.578
REMARK UNBOUND:                -0.606
REMARK  Name = 
REMARK  5 active torsions:
REMARK  status: ('A' for Active; 'I' for Inactive)
REMARK    1  A    between atoms: C_2  and  C_4
REMARK    2  A    between atoms: C_7  and  N_8
REMARK    3  A    between atoms: N_8  and  C_9
REMARK    4  A    between atoms: C_9  and  C_10
REMARK    5  A    between atoms: C_14  and  C_15
REMARK                            x       y       z     vdW  Elec       q    Type
REMARK                         _______ _______ _______ _____ _____    ______ ____
ROOT
ATOM      1  C   UNL     1      43.863   4.561  11.323  0.00  0.00    +0.000 C 
ENDROOT
BRANCH   1   2
ATOM      2  C   UNL     1      45.047   5.251  11.953  0.00  0.00    +0.000 A 
ATOM      3  C   UNL     1      45.604   6.377  11.362  0.00  0.00    +0.000 A 
ATOM      4  N   UNL     1      46.666   7.042  11.865  0.00  0.00    +0.000 NA
ATOM      5  C   UNL     1      47.210   6.551  13.006  0.00  0.00    +0.000 A 
ATOM      6  C   UNL     1      46.756   5.426  13.701  0.00  0.00    +0.000 A 
ATOM      7  C   UNL     1      45.642   4.780  13.134  0.00  0.00    +0.000 A 
BRANCH   6   8
ATOM      8  C   UNL     1      47.410   4.948  14.943  0.00  0.00    +0.000 A 
ATOM      9  C   UNL     1      48.228   5.795  15.722  0.00  0.00    +0.000 A 
ATOM     10  C   UNL     1      48.856   5.338  16.886  0.00  0.00    +0.000 A 
ATOM     11  C   UNL     1      48.664   4.028  17.298  0.00  0.00    +0.000 A 
ATOM     12  F   UNL     1      49.260   3.591  18.415  0.00  0.00    +0.000 F 
ATOM     13  C   UNL     1      47.863   3.167  16.566  0.00  0.00    +0.000 A 
ATOM     14  C   UNL     1      47.246   3.623  15.395  0.00  0.00    +0.000 A 
ENDBRANCH   6   8
ENDBRANCH   1   2
BRANCH   1  15
ATOM     15  N   UNL     1      43.857   4.828   9.890  0.00  0.00    +0.000 N 
ATOM     16  H   UNL     1      44.042   5.806   9.681  0.00  0.00    +0.000 HD
BRANCH  15  20
ATOM     17  C   UNL     1      46.366   2.304   7.821  0.00  0.00    +0.000 A 
ATOM     18  C   UNL     1      46.389   3.670   7.590  0.00  0.00    +0.000 A 
ATOM     19  N   UNL     1      45.565   4.538   8.239  0.00  0.00    +0.000 NA
ATOM     20  C   UNL     1      44.706   4.004   9.134  0.00  0.00    +0.000 A 
ATOM     21  C   UNL     1      44.703   2.618   9.356  0.00  0.00    +0.000 A 
ATOM     22  N   UNL     1      45.511   1.733   8.711  0.00  0.00    +0.000 NA
BRANCH  17  24
ATOM     23  N   UNL     1      48.390   2.024   6.521  0.00  0.00    +0.000 N 
ATOM     24  C   UNL     1      47.309   1.411   7.093  0.00  0.00    +0.000 C 
ATOM     25  O   UNL     1      47.133   0.202   7.009  0.00  0.00    +0.000 OA
ATOM     26  H   UNL     1      49.061   1.473   6.001  0.00  0.00    +0.000 HD
ATOM     27  H   UNL     1      48.509   3.028   6.602  0.00  0.00    +0.000 HD
ENDBRANCH  17  24
ENDBRANCH  15  20
ENDBRANCH   1  15
TORSDOF 5
ENDMDL
MODEL 4
REMARK VINA RESULT:    -8.054      4.326      7.268
REMARK INTER + INTRA:         -11.014
REMARK INTER:                 -10.506
REMARK INTRA:                  -0.508
REMARK UNBOUND:                -0.606
REMARK  Name = 
REMARK  5 active torsions:
REMARK  status: ('A' for Active; 'I' for Inactive)
REMARK    1  A    between atoms: C_2  and  C_4
REMARK    2  A    between atoms: C_7  and  N_8
REMARK    3  A    between atoms: N_8  and  C_9
REMARK    4  A    between atoms: C_9  and  C_10
REMARK    5  A    between atoms: C_14  and  C_15
REMARK                            x       y       z     vdW  Elec       q    Type
REMARK                         _______ _______ _______ _____ _____    ______ ____
ROOT
ATOM      1  C   UNL     1      45.082   5.815  12.845  0.00  0.00    +0.000 C 
ENDROOT
BRANCH   1   2
ATOM      2  C   UNL     1      44.651   4.696  11.931  0.00  0.00    +0.000 A 
ATOM      3  C   UNL     1      43.535   3.927  12.234  0.00  0.00    +0.000 A 
ATOM      4  N   UNL     1      43.094   2.907  11.468  0.00  0.00    +0.000 NA
ATOM      5  C   UNL     1      43.810   2.629  10.351  0.00  0.00    +0.000 A 
ATOM      6  C   UNL     1      44.953   3.315   9.929  0.00  0.00    +0.000 A 
ATOM      7  C   UNL     1      45.360   4.373  10.763  0.00  0.00    +0.000 A 
BRANCH   6   8
ATOM      8  C   UNL     1      45.686   2.946   8.694  0.00  0.00    +0.000 A 
ATOM      9  C   UNL     1      46.094   1.618   8.444  0.00  0.00    +0.000 A 
ATOM     10  C   UNL     1      46.797   1.273   7.285  0.00  0.00    +0.000 A 
ATOM     11  C   UNL     1      47.092   2.251   6.348  0.00  0.00    +0.000 A 
ATOM     12  F   UNL     1      47.760   1.922   5.235  0.00  0.00    +0.000 F 
ATOM     13  C   UNL     1      46.704   3.565   6.551  0.00  0.00    +0.000 A 
ATOM     14  C   UNL     1      46.011   3.909   7.718  0.00  0.00    +0.000 A 
ENDBRANCH   6   8
ENDBRANCH   1   2
BRANCH   1  15
ATOM     15  N   UNL     1      46.538   5.862  12.896  0.00  0.00    +0.000 N 
ATOM     16  H   UNL     1      46.892   6.813  12.855  0.00  0.00    +0.000 HD
BRANCH  15  20
ATOM     17  C   UNL     1      48.087   3.734  16.062  0.00  0.00    +0.000 A 
ATOM     18  C   UNL     1      48.111   5.119  16.062  0.00  0.00    +0.000 A 
ATOM     19  N   UNL     1      47.625   5.861  15.029  0.00  0.00    +0.000 NA
ATOM     20  C   UNL     1      47.111   5.180  13.982  0.00  0.00    +0.000 A 
ATOM     21  C   UNL     1      47.093   3.776  14.006  0.00  0.00    +0.000 A 
ATOM     22  N   UNL     1      47.582   3.016  15.023  0.00  0.00    +0.000 NA
BRANCH  17  24
ATOM     23  N   UNL     1      47.884   3.081  18.385  0.00  0.00    +0.000 N 
ATOM     24  C   UNL     1      48.615   2.981  17.233  0.00  0.00    +0.000 C 
ATOM     25  O   UNL     1      49.639   2.313  17.174  0.00  0.00    +0.000 OA
ATOM     26  H   UNL     1      48.197   2.603  19.220  0.00  0.00    +0.000 HD
ATOM     27  H   UNL     1      47.041   3.645  18.407  0.00  0.00    +0.000 HD
ENDBRANCH  17  24
ENDBRANCH  15  20
ENDBRANCH   1  15
TORSDOF 5
ENDMDL
MODEL 5
REMARK VINA RESULT:    -7.873      1.742      2.292
REMARK INTER + INTRA:         -10.781
REMARK INTER:                 -10.114
REMARK INTRA:                  -0.667
REMARK UNBOUND:                -0.606
REMARK  Name = 
REMARK  5 active torsions:
REMARK  status: ('A' for Active; 'I' for Inactive)
REMARK    1  A    between atoms: C_2  and  C_4
REMARK    2  A    between atoms: C_7  and  N_8
REMARK    3  A    between atoms: N_8  and  C_9
REMARK    4  A    between atoms: C_9  and  C_10
REMARK    5  A    between atoms: C_14  and  C_15
REMARK                            x       y       z     vdW  Elec       q    Type
REMARK                         _______ _______ _______ _____ _____    ______ ____
ROOT
ATOM      1  C   UNL     1      44.146   4.890  11.256  0.00  0.00    +0.000 C 
ENDROOT
BRANCH   1   2
ATOM      2  C   UNL     1      44.798   6.225  11.513  0.00  0.00    +0.000 A 
ATOM      3  C   UNL     1      44.083   7.404  11.348  0.00  0.00    +0.000 A 
ATOM      4  N   UNL     1      44.602   8.633  11.554  0.00  0.00    +0.000 NA
ATOM      5  C   UNL     1      45.904   8.692  11.928  0.00  0.00    +0.000 A 
ATOM      6  C   UNL     1      46.741   7.589  12.126  0.00  0.00    +0.000 A 
ATOM      7  C   UNL     1      46.142   6.335  11.905  0.00  0.00    +0.000 A 
BRANCH   6   8
ATOM      8  C   UNL     1      48.159   7.736  12.532  0.00  0.00    +0.000 A 
ATOM      9  C   UNL     1      49.165   8.073  11.600  0.00  0.00    +0.000 A 
ATOM     10  C   UNL     1      50.505   8.198  11.981  0.00  0.00    +0.000 A 
ATOM     11  C   UNL     1      50.860   8.002  13.307  0.00  0.00    +0.000 A 
ATOM     12  F   UNL     1      52.141   8.126  13.675  0.00  0.00    +0.000 F 
ATOM     13  C   UNL     1      49.902   7.677  14.255  0.00  0.00    +0.000 A 
ATOM     14  C   UNL     1      48.564   7.540  13.867  0.00  0.00    +0.000 A 
ENDBRANCH   6   8
ENDBRANCH   1   2
BRANCH   1  15
ATOM     15  N   UNL     1      43.805   4.785   9.842  0.00  0.00    +0.000 N 
ATOM     16  H   UNL     1      43.715   5.696   9.401  0.00  0.00    +0.000 HD
BRANCH  15  20
ATOM     17  C   UNL     1      46.353   2.287   7.788  0.00  0.00    +0.000 A 
ATOM     18  C   UNL     1      46.297   3.639   7.492  0.00  0.00    +0.000 A 
ATOM     19  N   UNL     1      45.457   4.498   8.135  0.00  0.00    +0.000 NA
ATOM     20  C   UNL     1      44.664   3.967   9.090  0.00  0.00    +0.000 A 
ATOM     21  C   UNL     1      44.740   2.595   9.376  0.00  0.00    +0.000 A 
ATOM     22  N   UNL     1      45.565   1.719   8.740  0.00  0.00    +0.000 NA
BRANCH  17  24
ATOM     23  N   UNL     1      48.434   2.017   6.579  0.00  0.00    +0.000 N 
ATOM     24  C   UNL     1      47.309   1.406   7.062  0.00  0.00    +0.000 C 
ATOM     25  O   UNL     1      47.106   0.209   6.906  0.00  0.00    +0.000 OA
ATOM     26  H   UNL     1      49.117   1.475   6.065  0.00  0.00    +0.000 HD
ATOM     27  H   UNL     1      48.574   3.012   6.719  0.00  0.00    +0.000 HD
ENDBRANCH  17  24
ENDBRANCH  15  20
ENDBRANCH   1  15
TORSDOF 5
ENDMDL
MODEL 6
REMARK VINA RESULT:    -7.190      4.129      7.367
REMARK INTER + INTRA:          -9.898
REMARK INTER:                  -9.205
REMARK INTRA:                  -0.693
REMARK UNBOUND:                -0.606
REMARK  Name = 
REMARK  5 active torsions:
REMARK  status: ('A' for Active; 'I' for Inactive)
REMARK    1  A    between atoms: C_2  and  C_4
REMARK    2  A    between atoms: C_7  and  N_8
REMARK    3  A    between atoms: N_8  and  C_9
REMARK    4  A    between atoms: C_9  and  C_10
REMARK    5  A    between atoms: C_14  and  C_15
REMARK                            x       y       z     vdW  Elec       q    Type
REMARK                         _______ _______ _______ _____ _____    ______ ____
ROOT
ATOM      1  C   UNL     1      44.757   7.481  12.190  0.00  0.00    +0.000 C 
ENDROOT
BRANCH   1   2
ATOM      2  C   UNL     1      44.362   6.115  11.691  0.00  0.00    +0.000 A 
ATOM      3  C   UNL     1      43.311   5.424  12.281  0.00  0.00    +0.000 A 
ATOM      4  N   UNL     1      42.905   4.197  11.892  0.00  0.00    +0.000 NA
ATOM      5  C   UNL     1      43.591   3.621  10.874  0.00  0.00    +0.000 A 
ATOM      6  C   UNL     1      44.670   4.197  10.195  0.00  0.00    +0.000 A 
ATOM      7  C   UNL     1      45.041   5.480  10.639  0.00  0.00    +0.000 A 
BRANCH   6   8
ATOM      8  C   UNL     1      45.373   3.499   9.093  0.00  0.00    +0.000 A 
ATOM      9  C   UNL     1      45.516   2.095   9.078  0.00  0.00    +0.000 A 
ATOM     10  C   UNL     1      46.193   1.438   8.044  0.00  0.00    +0.000 A 
ATOM     11  C   UNL     1      46.726   2.176   6.999  0.00  0.00    +0.000 A 
ATOM     12  F   UNL     1      47.369   1.549   6.005  0.00  0.00    +0.000 F 
ATOM     13  C   UNL     1      46.602   3.556   6.972  0.00  0.00    +0.000 A 
ATOM     14  C   UNL     1      45.935   4.211   8.014  0.00  0.00    +0.000 A 
ENDBRANCH   6   8
ENDBRANCH   1   2
BRANCH   1  15
ATOM     15  N   UNL     1      46.114   7.781  11.749  0.00  0.00    +0.000 N 
ATOM     16  H   UNL     1      46.173   8.680  11.278  0.00  0.00    +0.000 HD
BRANCH  15  20
ATOM     17  C   UNL     1      48.958   7.352  14.694  0.00  0.00    +0.000 A 
ATOM     18  C   UNL     1      48.104   8.443  14.690  0.00  0.00    +0.000 A 
ATOM     19  N   UNL     1      47.161   8.632  13.726  0.00  0.00    +0.000 NA
ATOM     20  C   UNL     1      47.091   7.697  12.754  0.00  0.00    +0.000 A 
ATOM     21  C   UNL     1      47.964   6.598  12.781  0.00  0.00    +0.000 A 
ATOM     22  N   UNL     1      48.919   6.395  13.729  0.00  0.00    +0.000 NA
BRANCH  17  24
ATOM     23  N   UNL     1      49.443   7.144  17.058  0.00  0.00    +0.000 N 
ATOM     24  C   UNL     1      49.954   7.192  15.790  0.00  0.00    +0.000 C 
ATOM     25  O   UNL     1      51.156   7.109  15.574  0.00  0.00    +0.000 OA
ATOM     26  H   UNL     1      50.069   7.049  17.847  0.00  0.00    +0.000 HD
ATOM     27  H   UNL     1      48.443   7.220  17.208  0.00  0.00    +0.000 HD
ENDBRANCH  17  24
ENDBRANCH  15  20
ENDBRANCH   1  15
TORSDOF 5
ENDMDL
MODEL 7
REMARK VINA RESULT:    -6.750      1.784      2.689
REMARK INTER + INTRA:          -9.329
REMARK INTER:                  -8.648
REMARK INTRA:                  -0.681
REMARK UNBOUND:                -0.606
REMARK  Name = 
REMARK  5 active torsions:
REMARK  status: ('A' for Active; 'I' for Inactive)
REMARK    1  A    between atoms: C_2  and  C_4
REMARK    2  A    between atoms: C_7  and  N_8
REMARK    3  A    between atoms: N_8  and  C_9
REMARK    4  A    between atoms: C_9  and  C_10
REMARK    5  A    between atoms: C_14  and  C_15
REMARK                            x       y       z     vdW  Elec       q    Type
REMARK                         _______ _______ _______ _____ _____    ______ ____
ROOT
ATOM      1  C   UNL     1      45.317   5.146  12.316  0.00  0.00    +0.000 C 
ENDROOT
BRANCH   1   2
ATOM      2  C   UNL     1      45.852   6.555  12.354  0.00  0.00    +0.000 A 
ATOM      3  C   UNL     1      45.034   7.612  12.733  0.00  0.00    +0.000 A 
ATOM      4  N   UNL     1      45.442   8.897  12.785  0.00  0.00    +0.000 NA
ATOM      5  C   UNL     1      46.726   9.145  12.427  0.00  0.00    +0.000 A 
ATOM      6  C   UNL     1      47.655   8.182  12.021  0.00  0.00    +0.000 A 
ATOM      7  C   UNL     1      47.175   6.860  11.994  0.00  0.00    +0.000 A 
BRANCH   6   8
ATOM      8  C   UNL     1      49.044   8.535  11.639  0.00  0.00    +0.000 A 
ATOM      9  C   UNL     1      50.012   7.544  11.369  0.00  0.00    +0.000 A 
ATOM     10  C   UNL     1      51.326   7.879  11.023  0.00  0.00    +0.000 A 
ATOM     11  C   UNL     1      51.689   9.213  10.927  0.00  0.00    +0.000 A 
ATOM     12  F   UNL     1      52.944   9.535  10.590  0.00  0.00    +0.000 F 
ATOM     13  C   UNL     1      50.767  10.217  11.178  0.00  0.00    +0.000 A 
ATOM     14  C   UNL     1      49.457   9.879  11.536  0.00  0.00    +0.000 A 
ENDBRANCH   6   8
ENDBRANCH   1   2
BRANCH   1  15
ATOM     15  N   UNL     1      44.441   4.995  11.160  0.00  0.00    +0.000 N 
ATOM     16  H   UNL     1      44.055   5.884  10.853  0.00  0.00    +0.000 HD
BRANCH  15  20
ATOM     17  C   UNL     1      46.076   3.146   7.867  0.00  0.00    +0.000 A 
ATOM     18  C   UNL     1      45.408   2.410   8.831  0.00  0.00    +0.000 A 
ATOM     19  N   UNL     1      44.867   2.979   9.944  0.00  0.00    +0.000 NA
ATOM     20  C   UNL     1      45.012   4.316  10.073  0.00  0.00    +0.000 A 
ATOM     21  C   UNL     1      45.690   5.041   9.081  0.00  0.00    +0.000 A 
ATOM     22  N   UNL     1      46.246   4.491   7.967  0.00  0.00    +0.000 NA
BRANCH  17  24
ATOM     23  N   UNL     1      47.163   1.224   6.871  0.00  0.00    +0.000 N 
ATOM     24  C   UNL     1      46.627   2.465   6.662  0.00  0.00    +0.000 C 
ATOM     25  O   UNL     1      46.603   2.980   5.551  0.00  0.00    +0.000 OA
ATOM     26  H   UNL     1      47.565   0.715   6.094  0.00  0.00    +0.000 HD
ATOM     27  H   UNL     1      47.173   0.823   7.802  0.00  0.00    +0.000 HD
ENDBRANCH  17  24
ENDBRANCH  15  20
ENDBRANCH   1  15
TORSDOF 5
ENDMDL
MODEL 8
REMARK VINA RESULT:    -6.571      4.732      7.864
REMARK INTER + INTRA:          -9.099
REMARK INTER:                  -8.479
REMARK INTRA:                  -0.619
REMARK UNBOUND:                -0.606
REMARK  Name = 
REMARK  5 active torsions:
REMARK  status: ('A' for Active; 'I' for Inactive)
REMARK    1  A    between atoms: C_2  and  C_4
REMARK    2  A    between atoms: C_7  and  N_8
REMARK    3  A    between atoms: N_8  and  C_9
REMARK    4  A    between atoms: C_9  and  C_10
REMARK    5  A    between atoms: C_14  and  C_15
REMARK                            x       y       z     vdW  Elec       q    Type
REMARK                         _______ _______ _______ _____ _____    ______ ____
ROOT
ATOM      1  C   UNL     1      48.356   7.885  13.775  0.00  0.00    +0.000 C 
ENDROOT
BRANCH   1   2
ATOM      2  C   UNL     1      47.113   7.741  12.934  0.00  0.00    +0.000 A 
ATOM      3  C   UNL     1      46.208   8.789  12.827  0.00  0.00    +0.000 A 
ATOM      4  N   UNL     1      45.073   8.731  12.099  0.00  0.00    +0.000 NA
ATOM      5  C   UNL     1      44.819   7.564  11.457  0.00  0.00    +0.000 A 
ATOM      6  C   UNL     1      45.636   6.430  11.482  0.00  0.00    +0.000 A 
ATOM      7  C   UNL     1      46.808   6.553  12.250  0.00  0.00    +0.000 A 
BRANCH   6   8
ATOM      8  C   UNL     1      45.285   5.186  10.756  0.00  0.00    +0.000 A 
ATOM      9  C   UNL     1      44.650   4.104  11.404  0.00  0.00    +0.000 A 
ATOM     10  C   UNL     1      44.332   2.926  10.721  0.00  0.00    +0.000 A 
ATOM     11  C   UNL     1      44.631   2.815   9.372  0.00  0.00    +0.000 A 
ATOM     12  F   UNL     1      44.321   1.690   8.715  0.00  0.00    +0.000 F 
ATOM     13  C   UNL     1      45.247   3.857   8.696  0.00  0.00    +0.000 A 
ATOM     14  C   UNL     1      45.575   5.030   9.385  0.00  0.00    +0.000 A 
ENDBRANCH   6   8
ENDBRANCH   1   2
BRANCH   1  15
ATOM     15  N   UNL     1      48.013   7.693  15.179  0.00  0.00    +0.000 N 
ATOM     16  H   UNL     1      47.010   7.603  15.319  0.00  0.00    +0.000 HD
BRANCH  15  20
ATOM     17  C   UNL     1      49.825   4.527  17.086  0.00  0.00    +0.000 A 
ATOM     18  C   UNL     1      50.432   5.772  17.050  0.00  0.00    +0.000 A 
ATOM     19  N   UNL     1      49.876   6.842  16.417  0.00  0.00    +0.000 NA
ATOM     20  C   UNL     1      48.686   6.636  15.810  0.00  0.00    +0.000 A 
ATOM     21  C   UNL     1      48.088   5.367  15.863  0.00  0.00    +0.000 A 
ATOM     22  N   UNL     1      48.632   4.283  16.482  0.00  0.00    +0.000 NA
BRANCH  17  24
ATOM     23  N   UNL     1      51.166   3.746  18.946  0.00  0.00    +0.000 N 
ATOM     24  C   UNL     1      50.477   3.404  17.814  0.00  0.00    +0.000 C 
ATOM     25  O   UNL     1      50.403   2.243  17.429  0.00  0.00    +0.000 OA
ATOM     26  H   UNL     1      51.642   3.030  19.479  0.00  0.00    +0.000 HD
ATOM     27  H   UNL     1      51.214   4.716  19.239  0.00  0.00    +0.000 HD
ENDBRANCH  17  24
ENDBRANCH  15  20
ENDBRANCH   1  15
TORSDOF 5
ENDMDL
MODEL 9
REMARK VINA RESULT:    -6.010      4.590      6.375
REMARK INTER + INTRA:          -8.373
REMARK INTER:                  -7.733
REMARK INTRA:                  -0.641
REMARK UNBOUND:                -0.606
REMARK  Name = 
REMARK  5 active torsions:
REMARK  status: ('A' for Active; 'I' for Inactive)
REMARK    1  A    between atoms: C_2  and  C_4
REMARK    2  A    between atoms: C_7  and  N_8
REMARK    3  A    between atoms: N_8  and  C_9
REMARK    4  A    between atoms: C_9  and  C_10
REMARK    5  A    between atoms: C_14  and  C_15
REMARK                            x       y       z     vdW  Elec       q    Type
REMARK                         _______ _______ _______ _____ _____    ______ ____
ROOT
ATOM      1  C   UNL     1      47.846   7.653  12.884  0.00  0.00    +0.000 C 
ENDROOT
BRANCH   1   2
ATOM      2  C   UNL     1      48.882   7.493  13.968  0.00  0.00    +0.000 A 
ATOM      3  C   UNL     1      50.161   8.008  13.804  0.00  0.00    +0.000 A 
ATOM      4  N   UNL     1      51.140   7.898  14.727  0.00  0.00    +0.000 NA
ATOM      5  C   UNL     1      50.833   7.228  15.865  0.00  0.00    +0.000 A 
ATOM      6  C   UNL     1      49.592   6.655  16.160  0.00  0.00    +0.000 A 
ATOM      7  C   UNL     1      48.610   6.809  15.164  0.00  0.00    +0.000 A 
BRANCH   6   8
ATOM      8  C   UNL     1      49.337   5.931  17.428  0.00  0.00    +0.000 A 
ATOM      9  C   UNL     1      49.030   4.553  17.445  0.00  0.00    +0.000 A 
ATOM     10  C   UNL     1      48.775   3.874  18.641  0.00  0.00    +0.000 A 
ATOM     11  C   UNL     1      48.837   4.561  19.844  0.00  0.00    +0.000 A 
ATOM     12  F   UNL     1      48.599   3.912  20.991  0.00  0.00    +0.000 F 
ATOM     13  C   UNL     1      49.142   5.913  19.872  0.00  0.00    +0.000 A 
ATOM     14  C   UNL     1      49.384   6.592  18.672  0.00  0.00    +0.000 A 
ENDBRANCH   6   8
ENDBRANCH   1   2
BRANCH   1  15
ATOM     15  N   UNL     1      46.526   7.365  13.432  0.00  0.00    +0.000 N 
ATOM     16  H   UNL     1      45.934   8.190  13.458  0.00  0.00    +0.000 HD
BRANCH  15  20
ATOM     17  C   UNL     1      44.682   4.141  11.658  0.00  0.00    +0.000 A 
ATOM     18  C   UNL     1      44.583   5.406  11.102  0.00  0.00    +0.000 A 
ATOM     19  N   UNL     1      45.163   6.502  11.665  0.00  0.00    +0.000 NA
ATOM     20  C   UNL     1      45.850   6.303  12.811  0.00  0.00    +0.000 A 
ATOM     21  C   UNL     1      45.941   5.012  13.353  0.00  0.00    +0.000 A 
ATOM     22  N   UNL     1      45.361   3.906  12.812  0.00  0.00    +0.000 NA
BRANCH  17  24
ATOM     23  N   UNL     1      43.310   2.149  11.784  0.00  0.00    +0.000 N 
ATOM     24  C   UNL     1      44.042   2.980  10.980  0.00  0.00    +0.000 C 
ATOM     25  O   UNL     1      44.159   2.777   9.778  0.00  0.00    +0.000 OA
ATOM     26  H   UNL     1      42.860   1.335  11.386  0.00  0.00    +0.000 HD
ATOM     27  H   UNL     1      43.233   2.339  12.778  0.00  0.00    +0.000 HD
ENDBRANCH  17  24
ENDBRANCH  15  20
ENDBRANCH   1  15
TORSDOF 5
ENDMDL
