MODEL 1
REMARK VINA RESULT:    -8.758      0.000      0.000
REMARK INTER + INTRA:         -12.186
REMARK INTER:                 -12.086
REMARK INTRA:                  -0.100
REMARK UNBOUND:                -0.100
REMARK  Name = 
REMARK  8 active torsions:
REMARK  status: ('A' for Active; 'I' for Inactive)
REMARK    1  A    between atoms: C_1  and  O_2
REMARK    2  A    between atoms: O_2  and  C_3
REMARK    3  A    between atoms: C_3  and  C_5
REMARK    4  A    between atoms: N_9  and  C_10
REMARK    5  A    between atoms: C_10  and  C_11
REMARK    6  A    between atoms: C_11  and  O_12
REMARK    7  A    between atoms: C_11  and  C_13
REMARK    8  A    between atoms: C_17  and  C_18
REMARK                            x       y       z     vdW  Elec       q    Type
REMARK                         _______ _______ _______ _____ _____    ______ ____
ROOT
ATOM      1  C   UNL     1      46.216   2.120   8.059  0.00  0.00    +0.000 A 
ATOM      2  C   UNL     1      46.287   3.450   7.652  0.00  0.00    +0.000 A 
ATOM      3  C   UNL     1      45.430   4.389   8.229  0.00  0.00    +0.000 A 
ATOM      4  C   UNL     1      44.547   3.995   9.233  0.00  0.00    +0.000 A 
ATOM      5  N   UNL     1      43.750   4.985   9.822  0.00  0.00    +0.000 N 
ATOM      6  N   UNL     1      44.470   2.712   9.638  0.00  0.00    +0.000 NA
ATOM      7  C   UNL     1      45.286   1.803   9.039  0.00  0.00    +0.000 A 
ATOM      8  H   UNL     1      43.088   5.350   9.138  0.00  0.00    +0.000 HD
ENDROOT
BRANCH   1   9
ATOM      9  C   UNL     1      47.072   1.046   7.510  0.00  0.00    +0.000 C 
ATOM     10  O   UNL     1      46.812  -0.142   7.610  0.00  0.00    +0.000 OA
BRANCH   9  12
ATOM     11  C   UNL     1      47.913   2.059   5.574  0.00  0.00    +0.000 C 
ATOM     12  O   UNL     1      48.158   1.579   6.897  0.00  0.00    +0.000 OA
ENDBRANCH   9  12
ENDBRANCH   1   9
BRANCH   5  13
ATOM     13  C   UNL     1      43.095   4.591  11.074  0.00  0.00    +0.000 C 
BRANCH  13  14
ATOM     14  C   UNL     1      43.332   5.664  12.164  0.00  0.00    +0.000 C 
BRANCH  14  15
ATOM     15  C   UNL     1      44.788   5.781  12.571  0.00  0.00    +0.000 A 
ATOM     16  C   UNL     1      45.573   6.882  12.192  0.00  0.00    +0.000 A 
ATOM     17  C   UNL     1      46.910   6.977  12.581  0.00  0.00    +0.000 A 
ATOM     18  C   UNL     1      47.488   5.968  13.350  0.00  0.00    +0.000 A 
ATOM     19  C   UNL     1      46.726   4.865  13.739  0.00  0.00    +0.000 A 
ATOM     20  C   UNL     1      45.383   4.772  13.348  0.00  0.00    +0.000 A 
BRANCH  19  21
ATOM     21  C   UNL     1      47.317   3.827  14.533  0.00  0.00    +0.000 C 
ATOM     22  N   UNL     1      47.799   2.982  15.171  0.00  0.00    +0.000 NA
ENDBRANCH  19  21
ENDBRANCH  14  15
BRANCH  14  23
ATOM     23  O   UNL     1      42.537   5.366  13.321  0.00  0.00    +0.000 OA
ATOM     24  H   UNL     1      43.079   4.820  13.915  0.00  0.00    +0.000 HD
ENDBRANCH  14  23
ENDBRANCH  13  14
ENDBRANCH   5  13
TORSDOF 7
ENDMDL
MODEL 2
REMARK VINA RESULT:    -8.247      1.444      2.133
REMARK INTER + INTRA:         -11.482
REMARK INTER:                 -11.278
REMARK INTRA:                  -0.203
REMARK UNBOUND:                -0.100
REMARK  Name = 
REMARK  8 active torsions:
REMARK  status: ('A' for Active; 'I' for Inactive)
REMARK    1  A    between atoms: C_1  and  O_2
REMARK    2  A    between atoms: O_2  and  C_3
REMARK    3  A    between atoms: C_3  and  C_5
REMARK    4  A    between atoms: N_9  and  C_10
REMARK    5  A    between atoms: C_10  and  C_11
REMARK    6  A    between atoms: C_11  and  O_12
REMARK    7  A    between atoms: C_11  and  C_13
REMARK    8  A    between atoms: C_17  and  C_18
REMARK                            x       y       z     vdW  Elec       q    Type
REMARK                         _______ _______ _______ _____ _____    ______ ____
ROOT
ATOM      1  C   UNL     1      46.210   2.149   8.013  0.00  0.00    +0.000 A 
ATOM      2  C   UNL     1      46.275   3.507   7.716  0.00  0.00    +0.000 A 
ATOM      3  C   UNL     1      45.421   4.394   8.376  0.00  0.00    +0.000 A 
ATOM      4  C   UNL     1      44.550   3.917   9.353  0.00  0.00    +0.000 A 
ATOM      5  N   UNL     1      43.757   4.852  10.030  0.00  0.00    +0.000 N 
ATOM      6  N   UNL     1      44.480   2.604   9.653  0.00  0.00    +0.000 NA
ATOM      7  C   UNL     1      45.292   1.750   8.974  0.00  0.00    +0.000 A 
ATOM      8  H   UNL     1      43.087   5.270   9.384  0.00  0.00    +0.000 HD
ENDROOT
BRANCH   1   9
ATOM      9  C   UNL     1      47.063   1.125   7.370  0.00  0.00    +0.000 C 
ATOM     10  O   UNL     1      46.804  -0.066   7.369  0.00  0.00    +0.000 OA
BRANCH   9  12
ATOM     11  C   UNL     1      47.928   2.183   5.468  0.00  0.00    +0.000 C 
ATOM     12  O   UNL     1      48.146   1.709   6.798  0.00  0.00    +0.000 OA
ENDBRANCH   9  12
ENDBRANCH   1   9
BRANCH   5  13
ATOM     13  C   UNL     1      43.116   4.356  11.252  0.00  0.00    +0.000 C 
BRANCH  13  14
ATOM     14  C   UNL     1      43.284   5.380  12.400  0.00  0.00    +0.000 C 
BRANCH  14  15
ATOM     15  C   UNL     1      44.736   5.645  12.747  0.00  0.00    +0.000 A 
ATOM     16  C   UNL     1      45.554   4.650  13.304  0.00  0.00    +0.000 A 
ATOM     17  C   UNL     1      46.891   4.908  13.611  0.00  0.00    +0.000 A 
ATOM     18  C   UNL     1      47.432   6.171  13.372  0.00  0.00    +0.000 A 
ATOM     19  C   UNL     1      46.637   7.175  12.817  0.00  0.00    +0.000 A 
ATOM     20  C   UNL     1      45.295   6.913  12.509  0.00  0.00    +0.000 A 
BRANCH  19  21
ATOM     21  C   UNL     1      47.191   8.474  12.566  0.00  0.00    +0.000 C 
ATOM     22  N   UNL     1      47.648   9.525  12.365  0.00  0.00    +0.000 NA
ENDBRANCH  19  21
ENDBRANCH  14  15
BRANCH  14  23
ATOM     23  O   UNL     1      42.593   4.917  13.570  0.00  0.00    +0.000 OA
ATOM     24  H   UNL     1      41.753   5.403  13.625  0.00  0.00    +0.000 HD
ENDBRANCH  14  23
ENDBRANCH  13  14
ENDBRANCH   5  13
TORSDOF 7
ENDMDL
MODEL 3
REMARK VINA RESULT:    -7.512      2.979      7.130
REMARK INTER + INTRA:         -10.467
REMARK INTER:                 -10.096
REMARK INTRA:                  -0.371
REMARK UNBOUND:                -0.100
REMARK  Name = 
REMARK  8 active torsions:
REMARK  status: ('A' for Active; 'I' for Inactive)
REMARK    1  A    between atoms: C_1  and  O_2
REMARK    2  A    between atoms: O_2  and  C_3
REMARK    3  A    between atoms: C_3  and  C_5
REMARK    4  A    between atoms: N_9  and  C_10
REMARK    5  A    between atoms: C_10  and  C_11
REMARK    6  A    between atoms: C_11  and  O_12
REMARK    7  A    between atoms: C_11  and  C_13
REMARK    8  A    between atoms: C_17  and  C_18
REMARK                            x       y       z     vdW  Elec       q    Type
REMARK                         _______ _______ _______ _____ _____    ______ ____
ROOT
ATOM      1  C   UNL     1      47.789   5.148  15.303  0.00  0.00    +0.000 A 
ATOM      2  C   UNL     1      47.755   6.244  14.444  0.00  0.00    +0.000 A 
ATOM      3  C   UNL     1      47.037   6.155  13.250  0.00  0.00    +0.000 A 
ATOM      4  C   UNL     1      46.328   4.993  12.954  0.00  0.00    +0.000 A 
ATOM      5  N   UNL     1      45.573   4.974  11.773  0.00  0.00    +0.000 N 
ATOM      6  N   UNL     1      46.349   3.927  13.778  0.00  0.00    +0.000 NA
ATOM      7  C   UNL     1      47.085   4.016  14.919  0.00  0.00    +0.000 A 
ATOM      8  H   UNL     1      46.194   5.013  10.966  0.00  0.00    +0.000 HD
ENDROOT
BRANCH   1   9
ATOM      9  C   UNL     1      48.523   5.134  16.587  0.00  0.00    +0.000 C 
ATOM     10  O   UNL     1      49.740   5.134  16.670  0.00  0.00    +0.000 OA
BRANCH   9  12
ATOM     11  C   UNL     1      48.255   4.905  18.902  0.00  0.00    +0.000 C 
ATOM     12  O   UNL     1      47.651   5.121  17.626  0.00  0.00    +0.000 OA
ENDBRANCH   9  12
ENDBRANCH   1   9
BRANCH   5  13
ATOM     13  C   UNL     1      44.601   3.881  11.675  0.00  0.00    +0.000 C 
BRANCH  13  14
ATOM     14  C   UNL     1      43.981   3.841  10.257  0.00  0.00    +0.000 C 
BRANCH  14  15
ATOM     15  C   UNL     1      44.984   3.468   9.184  0.00  0.00    +0.000 A 
ATOM     16  C   UNL     1      45.613   4.442   8.392  0.00  0.00    +0.000 A 
ATOM     17  C   UNL     1      46.540   4.082   7.412  0.00  0.00    +0.000 A 
ATOM     18  C   UNL     1      46.850   2.739   7.203  0.00  0.00    +0.000 A 
ATOM     19  C   UNL     1      46.238   1.754   7.980  0.00  0.00    +0.000 A 
ATOM     20  C   UNL     1      45.308   2.118   8.964  0.00  0.00    +0.000 A 
BRANCH  19  21
ATOM     21  C   UNL     1      46.558   0.371   7.770  0.00  0.00    +0.000 C 
ATOM     22  N   UNL     1      46.822  -0.748   7.595  0.00  0.00    +0.000 NA
ENDBRANCH  19  21
ENDBRANCH  14  15
BRANCH  14  23
ATOM     23  O   UNL     1      43.402   5.117   9.944  0.00  0.00    +0.000 OA
ATOM     24  H   UNL     1      42.556   4.952   9.496  0.00  0.00    +0.000 HD
ENDBRANCH  14  23
ENDBRANCH  13  14
ENDBRANCH   5  13
TORSDOF 7
ENDMDL
MODEL 4
REMARK VINA RESULT:    -7.122      2.851      6.869
REMARK INTER + INTRA:          -9.929
REMARK INTER:                  -9.423
REMARK INTRA:                  -0.507
REMARK UNBOUND:                -0.100
REMARK  Name = 
REMARK  8 active torsions:
REMARK  status: ('A' for Active; 'I' for Inactive)
REMARK    1  A    between atoms: C_1  and  O_2
REMARK    2  A    between atoms: O_2  and  C_3
REMARK    3  A    between atoms: C_3  and  C_5
REMARK    4  A    between atoms: N_9  and  C_10
REMARK    5  A    between atoms: C_10  and  C_11
REMARK    6  A    between atoms: C_11  and  O_12
REMARK    7  A    between atoms: C_11  and  C_13
REMARK    8  A    between atoms: C_17  and  C_18
REMARK                            x       y       z     vdW  Elec       q    Type
REMARK                         _______ _______ _______ _____ _____    ______ ____
ROOT
ATOM      1  C   UNL     1      45.715   8.478  12.042  0.00  0.00    +0.000 A 
ATOM      2  C   UNL     1      46.888   7.783  11.761  0.00  0.00    +0.000 A 
ATOM      3  C   UNL     1      46.857   6.388  11.693  0.00  0.00    +0.000 A 
ATOM      4  C   UNL     1      45.649   5.714  11.862  0.00  0.00    +0.000 A 
ATOM      5  N   UNL     1      45.658   4.320  11.725  0.00  0.00    +0.000 N 
ATOM      6  N   UNL     1      44.506   6.376  12.131  0.00  0.00    +0.000 NA
ATOM      7  C   UNL     1      44.561   7.731  12.232  0.00  0.00    +0.000 A 
ATOM      8  H   UNL     1      46.201   3.901  12.479  0.00  0.00    +0.000 HD
ENDROOT
BRANCH   1   9
ATOM      9  C   UNL     1      45.638   9.952  12.143  0.00  0.00    +0.000 C 
ATOM     10  O   UNL     1      46.617  10.679  12.171  0.00  0.00    +0.000 OA
BRANCH   9  12
ATOM     11  C   UNL     1      44.042  11.493  11.392  0.00  0.00    +0.000 C 
ATOM     12  O   UNL     1      44.343  10.352  12.198  0.00  0.00    +0.000 OA
ENDBRANCH   9  12
ENDBRANCH   1   9
BRANCH   5  13
ATOM     13  C   UNL     1      44.336   3.701  11.583  0.00  0.00    +0.000 C 
BRANCH  13  14
ATOM     14  C   UNL     1      43.849   3.807  10.117  0.00  0.00    +0.000 C 
BRANCH  14  15
ATOM     15  C   UNL     1      44.923   3.442   9.111  0.00  0.00    +0.000 A 
ATOM     16  C   UNL     1      45.606   4.422   8.372  0.00  0.00    +0.000 A 
ATOM     17  C   UNL     1      46.596   4.069   7.455  0.00  0.00    +0.000 A 
ATOM     18  C   UNL     1      46.917   2.727   7.254  0.00  0.00    +0.000 A 
ATOM     19  C   UNL     1      46.252   1.736   7.978  0.00  0.00    +0.000 A 
ATOM     20  C   UNL     1      45.258   2.093   8.900  0.00  0.00    +0.000 A 
BRANCH  19  21
ATOM     21  C   UNL     1      46.583   0.355   7.776  0.00  0.00    +0.000 C 
ATOM     22  N   UNL     1      46.846  -0.766   7.606  0.00  0.00    +0.000 NA
ENDBRANCH  19  21
ENDBRANCH  14  15
BRANCH  14  23
ATOM     23  O   UNL     1      43.385   5.140   9.854  0.00  0.00    +0.000 OA
ATOM     24  H   UNL     1      43.205   5.561  10.711  0.00  0.00    +0.000 HD
ENDBRANCH  14  23
ENDBRANCH  13  14
ENDBRANCH   5  13
TORSDOF 7
ENDMDL
MODEL 5
REMARK VINA RESULT:    -7.085      3.209      6.862
REMARK INTER + INTRA:          -9.877
REMARK INTER:                  -9.309
REMARK INTRA:                  -0.568
REMARK UNBOUND:                -0.100
REMARK  Name = 
REMARK  8 active torsions:
REMARK  status: ('A' for Active; 'I' for Inactive)
REMARK    1  A    between atoms: C_1  and  O_2
REMARK    2  A    between atoms: O_2  and  C_3
REMARK    3  A    between atoms: C_3  and  C_5
REMARK    4  A    between atoms: N_9  and  C_10
REMARK    5  A    between atoms: C_10  and  C_11
REMARK    6  A    between atoms: C_11  and  O_12
REMARK    7  A    between atoms: C_11  and  C_13
REMARK    8  A    between atoms: C_17  and  C_18
REMARK                            x       y       z     vdW  Elec       q    Type
REMARK                         _______ _______ _______ _____ _____    ______ ____
ROOT
ATOM      1  C   UNL     1      47.507   8.345  12.304  0.00  0.00    +0.000 A 
ATOM      2  C   UNL     1      46.294   8.602  12.939  0.00  0.00    +0.000 A 
ATOM      3  C   UNL     1      45.253   7.679  12.822  0.00  0.00    +0.000 A 
ATOM      4  C   UNL     1      45.452   6.497  12.113  0.00  0.00    +0.000 A 
ATOM      5  N   UNL     1      44.397   5.575  12.074  0.00  0.00    +0.000 N 
ATOM      6  N   UNL     1      46.622   6.235  11.497  0.00  0.00    +0.000 NA
ATOM      7  C   UNL     1      47.614   7.162  11.589  0.00  0.00    +0.000 A 
ATOM      8  H   UNL     1      43.615   5.967  11.550  0.00  0.00    +0.000 HD
ENDROOT
BRANCH   1   9
ATOM      9  C   UNL     1      48.671   9.257  12.358  0.00  0.00    +0.000 C 
ATOM     10  O   UNL     1      49.562   9.265  11.525  0.00  0.00    +0.000 OA
BRANCH   9  12
ATOM     11  C   UNL     1      49.852  10.470  13.975  0.00  0.00    +0.000 C 
ATOM     12  O   UNL     1      48.590  10.058  13.450  0.00  0.00    +0.000 OA
ENDBRANCH   9  12
ENDBRANCH   1   9
BRANCH   5  13
ATOM     13  C   UNL     1      44.761   4.233  11.611  0.00  0.00    +0.000 C 
BRANCH  13  14
ATOM     14  C   UNL     1      44.077   3.929  10.256  0.00  0.00    +0.000 C 
BRANCH  14  15
ATOM     15  C   UNL     1      45.060   3.522   9.176  0.00  0.00    +0.000 A 
ATOM     16  C   UNL     1      45.696   4.472   8.361  0.00  0.00    +0.000 A 
ATOM     17  C   UNL     1      46.604   4.081   7.376  0.00  0.00    +0.000 A 
ATOM     18  C   UNL     1      46.887   2.729   7.184  0.00  0.00    +0.000 A 
ATOM     19  C   UNL     1      46.269   1.767   7.984  0.00  0.00    +0.000 A 
ATOM     20  C   UNL     1      45.357   2.163   8.973  0.00  0.00    +0.000 A 
BRANCH  19  21
ATOM     21  C   UNL     1      46.561   0.376   7.791  0.00  0.00    +0.000 C 
ATOM     22  N   UNL     1      46.805  -0.750   7.632  0.00  0.00    +0.000 NA
ENDBRANCH  19  21
ENDBRANCH  14  15
BRANCH  14  23
ATOM     23  O   UNL     1      43.338   5.079   9.816  0.00  0.00    +0.000 OA
ATOM     24  H   UNL     1      43.433   5.136   8.851  0.00  0.00    +0.000 HD
ENDBRANCH  14  23
ENDBRANCH  13  14
ENDBRANCH   5  13
TORSDOF 7
ENDMDL
MODEL 6
REMARK VINA RESULT:    -7.059      2.932      6.489
REMARK INTER + INTRA:          -9.842
REMARK INTER:                  -9.141
REMARK INTRA:                  -0.701
REMARK UNBOUND:                -0.100
REMARK  Name = 
REMARK  8 active torsions:
REMARK  status: ('A' for Active; 'I' for Inactive)
REMARK    1  A    between atoms: C_1  and  O_2
REMARK    2  A    between atoms: O_2  and  C_3
REMARK    3  A    between atoms: C_3  and  C_5
REMARK    4  A    between atoms: N_9  and  C_10
REMARK    5  A    between atoms: C_10  and  C_11
REMARK    6  A    between atoms: C_11  and  O_12
REMARK    7  A    between atoms: C_11  and  C_13
REMARK    8  A    between atoms: C_17  and  C_18
REMARK                            x       y       z     vdW  Elec       q    Type
REMARK                         _______ _______ _______ _____ _____    ______ ____
ROOT
ATOM      1  C   UNL     1      47.371   7.432  13.292  0.00  0.00    +0.000 A 
ATOM      2  C   UNL     1      47.856   6.289  13.923  0.00  0.00    +0.000 A 
ATOM      3  C   UNL     1      47.039   5.160  14.016  0.00  0.00    +0.000 A 
ATOM      4  C   UNL     1      45.770   5.175  13.440  0.00  0.00    +0.000 A 
ATOM      5  N   UNL     1      45.012   3.999  13.508  0.00  0.00    +0.000 N 
ATOM      6  N   UNL     1      45.290   6.273  12.824  0.00  0.00    +0.000 NA
ATOM      7  C   UNL     1      46.085   7.377  12.775  0.00  0.00    +0.000 A 
ATOM      8  H   UNL     1      44.765   3.802  14.477  0.00  0.00    +0.000 HD
ENDROOT
BRANCH   1   9
ATOM      9  C   UNL     1      48.149   8.681  13.144  0.00  0.00    +0.000 C 
ATOM     10  O   UNL     1      48.427   9.418  14.075  0.00  0.00    +0.000 OA
BRANCH   9  12
ATOM     11  C   UNL     1      49.766   8.334  11.486  0.00  0.00    +0.000 C 
ATOM     12  O   UNL     1      48.491   8.870  11.845  0.00  0.00    +0.000 OA
ENDBRANCH   9  12
ENDBRANCH   1   9
BRANCH   5  13
ATOM     13  C   UNL     1      43.848   3.958  12.617  0.00  0.00    +0.000 C 
BRANCH  13  14
ATOM     14  C   UNL     1      43.953   2.753  11.651  0.00  0.00    +0.000 C 
BRANCH  14  15
ATOM     15  C   UNL     1      44.618   3.108  10.336  0.00  0.00    +0.000 A 
ATOM     16  C   UNL     1      44.585   4.414   9.822  0.00  0.00    +0.000 A 
ATOM     17  C   UNL     1      45.208   4.726   8.612  0.00  0.00    +0.000 A 
ATOM     18  C   UNL     1      45.871   3.733   7.891  0.00  0.00    +0.000 A 
ATOM     19  C   UNL     1      45.918   2.428   8.384  0.00  0.00    +0.000 A 
ATOM     20  C   UNL     1      45.292   2.118   9.599  0.00  0.00    +0.000 A 
BRANCH  19  21
ATOM     21  C   UNL     1      46.601   1.406   7.646  0.00  0.00    +0.000 C 
ATOM     22  N   UNL     1      47.151   0.571   7.050  0.00  0.00    +0.000 NA
ENDBRANCH  19  21
ENDBRANCH  14  15
BRANCH  14  23
ATOM     23  O   UNL     1      42.646   2.220  11.394  0.00  0.00    +0.000 OA
ATOM     24  H   UNL     1      42.761   1.343  10.992  0.00  0.00    +0.000 HD
ENDBRANCH  14  23
ENDBRANCH  13  14
ENDBRANCH   5  13
TORSDOF 7
ENDMDL
MODEL 7
REMARK VINA RESULT:    -6.901      3.689      5.573
REMARK INTER + INTRA:          -9.623
REMARK INTER:                  -9.220
REMARK INTRA:                  -0.403
REMARK UNBOUND:                -0.100
REMARK  Name = 
REMARK  8 active torsions:
REMARK  status: ('A' for Active; 'I' for Inactive)
REMARK    1  A    between atoms: C_1  and  O_2
REMARK    2  A    between atoms: O_2  and  C_3
REMARK    3  A    between atoms: C_3  and  C_5
REMARK    4  A    between atoms: N_9  and  C_10
REMARK    5  A    between atoms: C_10  and  C_11
REMARK    6  A    between atoms: C_11  and  O_12
REMARK    7  A    between atoms: C_11  and  C_13
REMARK    8  A    between atoms: C_17  and  C_18
REMARK                            x       y       z     vdW  Elec       q    Type
REMARK                         _______ _______ _______ _____ _____    ______ ____
ROOT
ATOM      1  C   UNL     1      45.278   4.838  11.012  0.00  0.00    +0.000 A 
ATOM      2  C   UNL     1      45.876   6.000  11.492  0.00  0.00    +0.000 A 
ATOM      3  C   UNL     1      46.369   6.026  12.799  0.00  0.00    +0.000 A 
ATOM      4  C   UNL     1      46.299   4.880  13.587  0.00  0.00    +0.000 A 
ATOM      5  N   UNL     1      46.861   4.937  14.869  0.00  0.00    +0.000 N 
ATOM      6  N   UNL     1      45.726   3.747  13.133  0.00  0.00    +0.000 NA
ATOM      7  C   UNL     1      45.217   3.751  11.871  0.00  0.00    +0.000 A 
ATOM      8  H   UNL     1      46.331   5.586  15.451  0.00  0.00    +0.000 HD
ENDROOT
BRANCH   1   9
ATOM      9  C   UNL     1      44.719   4.705   9.649  0.00  0.00    +0.000 C 
ATOM     10  O   UNL     1      43.542   4.479   9.421  0.00  0.00    +0.000 OA
BRANCH   9  12
ATOM     11  C   UNL     1      45.860   3.763   7.833  0.00  0.00    +0.000 C 
ATOM     12  O   UNL     1      45.696   4.870   8.722  0.00  0.00    +0.000 OA
ENDBRANCH   9  12
ENDBRANCH   1   9
BRANCH   5  13
ATOM     13  C   UNL     1      47.057   3.638  15.521  0.00  0.00    +0.000 C 
BRANCH  13  14
ATOM     14  C   UNL     1      47.379   3.834  17.022  0.00  0.00    +0.000 C 
BRANCH  14  15
ATOM     15  C   UNL     1      48.867   3.904  17.302  0.00  0.00    +0.000 A 
ATOM     16  C   UNL     1      49.508   5.121  17.585  0.00  0.00    +0.000 A 
ATOM     17  C   UNL     1      50.878   5.167  17.847  0.00  0.00    +0.000 A 
ATOM     18  C   UNL     1      51.634   3.995  17.825  0.00  0.00    +0.000 A 
ATOM     19  C   UNL     1      51.017   2.774  17.549  0.00  0.00    +0.000 A 
ATOM     20  C   UNL     1      49.641   2.730  17.286  0.00  0.00    +0.000 A 
BRANCH  19  21
ATOM     21  C   UNL     1      51.791   1.566  17.528  0.00  0.00    +0.000 C 
ATOM     22  N   UNL     1      52.414   0.583  17.517  0.00  0.00    +0.000 NA
ENDBRANCH  19  21
ENDBRANCH  14  15
BRANCH  14  23
ATOM     23  O   UNL     1      46.800   2.766  17.787  0.00  0.00    +0.000 OA
ATOM     24  H   UNL     1      46.136   2.332  17.227  0.00  0.00    +0.000 HD
ENDBRANCH  14  23
ENDBRANCH  13  14
ENDBRANCH   5  13
TORSDOF 7
ENDMDL
MODEL 8
REMARK VINA RESULT:    -6.874      3.028      7.080
REMARK INTER + INTRA:          -9.587
REMARK INTER:                  -9.110
REMARK INTRA:                  -0.477
REMARK UNBOUND:                -0.100
REMARK  Name = 
REMARK  8 active torsions:
REMARK  status: ('A' for Active; 'I' for Inactive)
REMARK    1  A    between atoms: C_1  and  O_2
REMARK    2  A    between atoms: O_2  and  C_3
REMARK    3  A    between atoms: C_3  and  C_5
REMARK    4  A    between atoms: N_9  and  C_10
REMARK    5  A    between atoms: C_10  and  C_11
REMARK    6  A    between atoms: C_11  and  O_12
REMARK    7  A    between atoms: C_11  and  C_13
REMARK    8  A    between atoms: C_17  and  C_18
REMARK                            x       y       z     vdW  Elec       q    Type
REMARK                         _______ _______ _______ _____ _____    ______ ____
ROOT
ATOM      1  C   UNL     1      47.175   4.298  15.111  0.00  0.00    +0.000 A 
ATOM      2  C   UNL     1      47.531   5.591  14.739  0.00  0.00    +0.000 A 
ATOM      3  C   UNL     1      47.127   6.081  13.495  0.00  0.00    +0.000 A 
ATOM      4  C   UNL     1      46.338   5.290  12.663  0.00  0.00    +0.000 A 
ATOM      5  N   UNL     1      45.907   5.847  11.452  0.00  0.00    +0.000 N 
ATOM      6  N   UNL     1      45.984   4.037  13.013  0.00  0.00    +0.000 NA
ATOM      7  C   UNL     1      46.418   3.562  14.212  0.00  0.00    +0.000 A 
ATOM      8  H   UNL     1      46.707   6.005  10.840  0.00  0.00    +0.000 HD
ENDROOT
BRANCH   1   9
ATOM      9  C   UNL     1      47.556   3.680  16.400  0.00  0.00    +0.000 C 
ATOM     10  O   UNL     1      46.755   3.396  17.275  0.00  0.00    +0.000 OA
BRANCH   9  12
ATOM     11  C   UNL     1      49.563   4.226  17.475  0.00  0.00    +0.000 C 
ATOM     12  O   UNL     1      48.897   3.486  16.450  0.00  0.00    +0.000 OA
ENDBRANCH   9  12
ENDBRANCH   1   9
BRANCH   5  13
ATOM     13  C   UNL     1      44.828   5.116  10.780  0.00  0.00    +0.000 C 
BRANCH  13  14
ATOM     14  C   UNL     1      45.099   5.040   9.258  0.00  0.00    +0.000 C 
BRANCH  14  15
ATOM     15  C   UNL     1      45.441   3.640   8.788  0.00  0.00    +0.000 A 
ATOM     16  C   UNL     1      44.804   2.507   9.321  0.00  0.00    +0.000 A 
ATOM     17  C   UNL     1      45.126   1.225   8.873  0.00  0.00    +0.000 A 
ATOM     18  C   UNL     1      46.097   1.053   7.887  0.00  0.00    +0.000 A 
ATOM     19  C   UNL     1      46.742   2.164   7.342  0.00  0.00    +0.000 A 
ATOM     20  C   UNL     1      46.416   3.451   7.793  0.00  0.00    +0.000 A 
BRANCH  19  21
ATOM     21  C   UNL     1      47.739   1.990   6.325  0.00  0.00    +0.000 C 
ATOM     22  N   UNL     1      48.552   1.848   5.506  0.00  0.00    +0.000 NA
ENDBRANCH  19  21
ENDBRANCH  14  15
BRANCH  14  23
ATOM     23  O   UNL     1      46.167   5.933   8.909  0.00  0.00    +0.000 OA
ATOM     24  H   UNL     1      45.974   6.289   8.025  0.00  0.00    +0.000 HD
ENDBRANCH  14  23
ENDBRANCH  13  14
ENDBRANCH   5  13
TORSDOF 7
ENDMDL
MODEL 9
REMARK VINA RESULT:    -6.367      4.161      8.200
REMARK INTER + INTRA:          -8.886
REMARK INTER:                  -8.463
REMARK INTRA:                  -0.424
REMARK UNBOUND:                -0.100
REMARK  Name = 
REMARK  8 active torsions:
REMARK  status: ('A' for Active; 'I' for Inactive)
REMARK    1  A    between atoms: C_1  and  O_2
REMARK    2  A    between atoms: O_2  and  C_3
REMARK    3  A    between atoms: C_3  and  C_5
REMARK    4  A    between atoms: N_9  and  C_10
REMARK    5  A    between atoms: C_10  and  C_11
REMARK    6  A    between atoms: C_11  and  O_12
REMARK    7  A    between atoms: C_11  and  C_13
REMARK    8  A    between atoms: C_17  and  C_18
REMARK                            x       y       z     vdW  Elec       q    Type
REMARK                         _______ _______ _______ _____ _____    ______ ____
ROOT
ATOM      1  C   UNL     1      49.625   4.432  17.543  0.00  0.00    +0.000 A 
ATOM      2  C   UNL     1      48.826   3.298  17.431  0.00  0.00    +0.000 A 
ATOM      3  C   UNL     1      47.743   3.308  16.549  0.00  0.00    +0.000 A 
ATOM      4  C   UNL     1      47.503   4.432  15.762  0.00  0.00    +0.000 A 
ATOM      5  N   UNL     1      46.441   4.373  14.849  0.00  0.00    +0.000 N 
ATOM      6  N   UNL     1      48.271   5.536  15.858  0.00  0.00    +0.000 NA
ATOM      7  C   UNL     1      49.299   5.522  16.749  0.00  0.00    +0.000 A 
ATOM      8  H   UNL     1      45.556   4.316  15.352  0.00  0.00    +0.000 HD
ENDROOT
BRANCH   1   9
ATOM      9  C   UNL     1      50.791   4.530  18.449  0.00  0.00    +0.000 C 
ATOM     10  O   UNL     1      51.694   3.711  18.477  0.00  0.00    +0.000 OA
BRANCH   9  12
ATOM     11  C   UNL     1      50.498   5.383  20.610  0.00  0.00    +0.000 C 
ATOM     12  O   UNL     1      50.695   5.642  19.219  0.00  0.00    +0.000 OA
ENDBRANCH   9  12
ENDBRANCH   1   9
BRANCH   5  13
ATOM     13  C   UNL     1      46.437   5.429  13.831  0.00  0.00    +0.000 C 
BRANCH  13  14
ATOM     14  C   UNL     1      45.010   5.616  13.259  0.00  0.00    +0.000 C 
BRANCH  14  15
ATOM     15  C   UNL     1      44.699   4.658  12.126  0.00  0.00    +0.000 A 
ATOM     16  C   UNL     1      43.818   3.578  12.295  0.00  0.00    +0.000 A 
ATOM     17  C   UNL     1      43.536   2.709  11.239  0.00  0.00    +0.000 A 
ATOM     18  C   UNL     1      44.138   2.902   9.996  0.00  0.00    +0.000 A 
ATOM     19  C   UNL     1      45.016   3.970   9.805  0.00  0.00    +0.000 A 
ATOM     20  C   UNL     1      45.296   4.842  10.867  0.00  0.00    +0.000 A 
BRANCH  19  21
ATOM     21  C   UNL     1      45.634   4.173   8.526  0.00  0.00    +0.000 C 
ATOM     22  N   UNL     1      46.129   4.334   7.486  0.00  0.00    +0.000 NA
ENDBRANCH  19  21
ENDBRANCH  14  15
BRANCH  14  23
ATOM     23  O   UNL     1      44.843   6.965  12.801  0.00  0.00    +0.000 OA
ATOM     24  H   UNL     1      44.935   6.959  11.833  0.00  0.00    +0.000 HD
ENDBRANCH  14  23
ENDBRANCH  13  14
ENDBRANCH   5  13
TORSDOF 7
ENDMDL
