MODEL 1
REMARK VINA RESULT:    -7.596      0.000      0.000
REMARK INTER + INTRA:          -9.889
REMARK INTER:                  -9.594
REMARK INTRA:                  -0.295
REMARK UNBOUND:                -0.295
REMARK  Name = 
REMARK  5 active torsions:
REMARK  status: ('A' for Active; 'I' for Inactive)
REMARK    1  A    between atoms: N_1  and  C_2
REMARK    2  A    between atoms: C_2  and  C_3
REMARK    3  A    between atoms: C_3  and  C_4
REMARK    4  A    between atoms: C_7  and  C_8
REMARK    5  A    between atoms: C_8  and  N_9
REMARK                            x       y       z     vdW  Elec       q    Type
REMARK                         _______ _______ _______ _____ _____    ______ ____
ROOT
ATOM      1  C   UNL     1      45.780   3.135   7.889  0.00  0.00    +0.000 A 
ATOM      2  C   UNL     1      45.196   2.095   8.623  0.00  0.00    +0.000 A 
ATOM      3  C   UNL     1      44.524   2.358   9.825  0.00  0.00    +0.000 A 
ATOM      4  C   UNL     1      44.409   3.670  10.307  0.00  0.00    +0.000 A 
ATOM      5  C   UNL     1      44.966   4.711   9.550  0.00  0.00    +0.000 A 
ATOM      6  C   UNL     1      45.645   4.448   8.357  0.00  0.00    +0.000 A 
ENDROOT
BRANCH   1   7
ATOM      7  C   UNL     1      46.561   2.854   6.626  0.00  0.00    +0.000 C 
BRANCH   7   8
ATOM      8  C   UNL     1      47.681   1.830   6.832  0.00  0.00    +0.000 C 
BRANCH   8   9
ATOM      9  N   UNL     1      48.583   1.802   5.680  0.00  0.00    +0.000 NA
ATOM     10  H   UNL     1      48.046   1.609   4.834  0.00  0.00    +0.000 HD
ATOM     11  H   UNL     1      49.242   1.031   5.778  0.00  0.00    +0.000 HD
ENDBRANCH   8   9
ENDBRANCH   7   8
ENDBRANCH   1   7
BRANCH   4  12
ATOM     12  C   UNL     1      43.735   3.962  11.634  0.00  0.00    +0.000 C 
BRANCH  12  13
ATOM     13  N   UNL     1      44.695   4.120  12.730  0.00  0.00    +0.000 N 
ATOM     14  C   UNL     1      45.805   3.157  12.898  0.00  0.00    +0.000 C 
ATOM     15  C   UNL     1      46.967   3.863  13.621  0.00  0.00    +0.000 C 
ATOM     16  C   UNL     1      46.600   5.295  13.400  0.00  0.00    +0.000 A 
ATOM     17  N   UNL     1      47.404   6.333  13.681  0.00  0.00    +0.000 NA
ATOM     18  C   UNL     1      46.854   7.527  13.405  0.00  0.00    +0.000 A 
ATOM     19  N   UNL     1      45.628   7.742  12.885  0.00  0.00    +0.000 NA
ATOM     20  C   UNL     1      44.879   6.640  12.633  0.00  0.00    +0.000 A 
ATOM     21  C   UNL     1      45.321   5.366  12.878  0.00  0.00    +0.000 A 
ENDBRANCH  12  13
ENDBRANCH   4  12
TORSDOF 5
ENDMDL
MODEL 2
REMARK VINA RESULT:    -7.163      1.368      2.291
REMARK INTER + INTRA:          -9.342
REMARK INTER:                  -8.928
REMARK INTRA:                  -0.413
REMARK UNBOUND:                -0.295
REMARK  Name = 
REMARK  5 active torsions:
REMARK  status: ('A' for Active; 'I' for Inactive)
REMARK    1  A    between atoms: N_1  and  C_2
REMARK    2  A    between atoms: C_2  and  C_3
REMARK    3  A    between atoms: C_3  and  C_4
REMARK    4  A    between atoms: C_7  and  C_8
REMARK    5  A    between atoms: C_8  and  N_9
REMARK                            x       y       z     vdW  Elec       q    Type
REMARK                         _______ _______ _______ _____ _____    ______ ____
ROOT
ATOM      1  C   UNL     1      45.983   2.556   8.081  0.00  0.00    +0.000 A 
ATOM      2  C   UNL     1      45.201   2.067   9.136  0.00  0.00    +0.000 A 
ATOM      3  C   UNL     1      44.667   2.939  10.094  0.00  0.00    +0.000 A 
ATOM      4  C   UNL     1      44.891   4.320  10.006  0.00  0.00    +0.000 A 
ATOM      5  C   UNL     1      45.645   4.808   8.930  0.00  0.00    +0.000 A 
ATOM      6  C   UNL     1      46.187   3.937   7.979  0.00  0.00    +0.000 A 
ENDROOT
BRANCH   1   7
ATOM      7  C   UNL     1      46.615   1.617   7.080  0.00  0.00    +0.000 C 
BRANCH   7   8
ATOM      8  C   UNL     1      47.189   2.344   5.860  0.00  0.00    +0.000 C 
BRANCH   8   9
ATOM      9  N   UNL     1      48.535   1.863   5.548  0.00  0.00    +0.000 NA
ATOM     10  H   UNL     1      48.989   2.517   4.910  0.00  0.00    +0.000 HD
ATOM     11  H   UNL     1      48.477   0.976   5.049  0.00  0.00    +0.000 HD
ENDBRANCH   8   9
ENDBRANCH   7   8
ENDBRANCH   1   7
BRANCH   4  12
ATOM     12  C   UNL     1      44.367   5.269  11.067  0.00  0.00    +0.000 C 
BRANCH  12  13
ATOM     13  N   UNL     1      45.208   6.461  11.221  0.00  0.00    +0.000 N 
ATOM     14  C   UNL     1      44.591   7.796  11.385  0.00  0.00    +0.000 C 
ATOM     15  C   UNL     1      45.571   8.700  12.155  0.00  0.00    +0.000 C 
ATOM     16  C   UNL     1      46.473   7.676  12.763  0.00  0.00    +0.000 A 
ATOM     17  N   UNL     1      47.403   7.946  13.694  0.00  0.00    +0.000 NA
ATOM     18  C   UNL     1      48.098   6.865  14.085  0.00  0.00    +0.000 A 
ATOM     19  N   UNL     1      47.932   5.603  13.641  0.00  0.00    +0.000 NA
ATOM     20  C   UNL     1      46.974   5.417  12.698  0.00  0.00    +0.000 A 
ATOM     21  C   UNL     1      46.202   6.439  12.209  0.00  0.00    +0.000 A 
ENDBRANCH  12  13
ENDBRANCH   4  12
TORSDOF 5
ENDMDL
MODEL 3
REMARK VINA RESULT:    -6.203      2.023      3.180
REMARK INTER + INTRA:          -8.130
REMARK INTER:                  -7.771
REMARK INTRA:                  -0.360
REMARK UNBOUND:                -0.295
REMARK  Name = 
REMARK  5 active torsions:
REMARK  status: ('A' for Active; 'I' for Inactive)
REMARK    1  A    between atoms: N_1  and  C_2
REMARK    2  A    between atoms: C_2  and  C_3
REMARK    3  A    between atoms: C_3  and  C_4
REMARK    4  A    between atoms: C_7  and  C_8
REMARK    5  A    between atoms: C_8  and  N_9
REMARK                            x       y       z     vdW  Elec       q    Type
REMARK                         _______ _______ _______ _____ _____    ______ ____
ROOT
ATOM      1  C   UNL     1      45.136   3.891   9.199  0.00  0.00    +0.000 A 
ATOM      2  C   UNL     1      44.787   3.102  10.304  0.00  0.00    +0.000 A 
ATOM      3  C   UNL     1      44.894   3.608  11.606  0.00  0.00    +0.000 A 
ATOM      4  C   UNL     1      45.336   4.920  11.828  0.00  0.00    +0.000 A 
ATOM      5  C   UNL     1      45.651   5.716  10.718  0.00  0.00    +0.000 A 
ATOM      6  C   UNL     1      45.555   5.209   9.419  0.00  0.00    +0.000 A 
ENDROOT
BRANCH   1   7
ATOM      7  C   UNL     1      45.085   3.333   7.796  0.00  0.00    +0.000 C 
BRANCH   7   8
ATOM      8  C   UNL     1      46.472   3.023   7.225  0.00  0.00    +0.000 C 
BRANCH   8   9
ATOM      9  N   UNL     1      46.884   4.048   6.265  0.00  0.00    +0.000 NA
ATOM     10  H   UNL     1      47.834   3.853   5.949  0.00  0.00    +0.000 HD
ATOM     11  H   UNL     1      46.921   4.956   6.726  0.00  0.00    +0.000 HD
ENDBRANCH   8   9
ENDBRANCH   7   8
ENDBRANCH   1   7
BRANCH   4  12
ATOM     12  C   UNL     1      45.511   5.462  13.234  0.00  0.00    +0.000 C 
BRANCH  12  13
ATOM     13  N   UNL     1      46.915   5.725  13.566  0.00  0.00    +0.000 N 
ATOM     14  C   UNL     1      47.439   7.109  13.557  0.00  0.00    +0.000 C 
ATOM     15  C   UNL     1      48.634   7.189  14.524  0.00  0.00    +0.000 C 
ATOM     16  C   UNL     1      48.408   5.961  15.346  0.00  0.00    +0.000 A 
ATOM     17  N   UNL     1      49.086   5.668  16.468  0.00  0.00    +0.000 NA
ATOM     18  C   UNL     1      48.713   4.507  17.030  0.00  0.00    +0.000 A 
ATOM     19  N   UNL     1      47.756   3.670  16.579  0.00  0.00    +0.000 NA
ATOM     20  C   UNL     1      47.123   4.039  15.438  0.00  0.00    +0.000 A 
ATOM     21  C   UNL     1      47.416   5.196  14.763  0.00  0.00    +0.000 A 
ENDBRANCH  12  13
ENDBRANCH   4  12
TORSDOF 5
ENDMDL
MODEL 4
REMARK VINA RESULT:    -6.202      1.530      2.185
REMARK INTER + INTRA:          -8.128
REMARK INTER:                  -7.920
REMARK INTRA:                  -0.208
REMARK UNBOUND:                -0.295
REMARK  Name = 
REMARK  5 active torsions:
REMARK  status: ('A' for Active; 'I' for Inactive)
REMARK    1  A    between atoms: N_1  and  C_2
REMARK    2  A    between atoms: C_2  and  C_3
REMARK    3  A    between atoms: C_3  and  C_4
REMARK    4  A    between atoms: C_7  and  C_8
REMARK    5  A    between atoms: C_8  and  N_9
REMARK                            x       y       z     vdW  Elec       q    Type
REMARK                         _______ _______ _______ _____ _____    ______ ____
ROOT
ATOM      1  C   UNL     1      45.143   2.818   8.959  0.00  0.00    +0.000 A 
ATOM      2  C   UNL     1      45.674   4.086   8.691  0.00  0.00    +0.000 A 
ATOM      3  C   UNL     1      45.469   5.149   9.580  0.00  0.00    +0.000 A 
ATOM      4  C   UNL     1      44.744   4.960  10.765  0.00  0.00    +0.000 A 
ATOM      5  C   UNL     1      44.244   3.681  11.045  0.00  0.00    +0.000 A 
ATOM      6  C   UNL     1      44.438   2.622  10.153  0.00  0.00    +0.000 A 
ENDROOT
BRANCH   1   7
ATOM      7  C   UNL     1      45.303   1.682   7.976  0.00  0.00    +0.000 C 
BRANCH   7   8
ATOM      8  C   UNL     1      46.767   1.290   7.750  0.00  0.00    +0.000 C 
BRANCH   8   9
ATOM      9  N   UNL     1      46.927  -0.165   7.756  0.00  0.00    +0.000 NA
ATOM     10  H   UNL     1      47.680  -0.425   7.120  0.00  0.00    +0.000 HD
ATOM     11  H   UNL     1      46.084  -0.605   7.391  0.00  0.00    +0.000 HD
ENDBRANCH   8   9
ENDBRANCH   7   8
ENDBRANCH   1   7
BRANCH   4  12
ATOM     12  C   UNL     1      44.466   6.115  11.708  0.00  0.00    +0.000 C 
BRANCH  12  13
ATOM     13  N   UNL     1      45.370   6.129  12.863  0.00  0.00    +0.000 N 
ATOM     14  C   UNL     1      45.593   4.899  13.654  0.00  0.00    +0.000 C 
ATOM     15  C   UNL     1      46.980   4.982  14.317  0.00  0.00    +0.000 C 
ATOM     16  C   UNL     1      47.620   6.045  13.483  0.00  0.00    +0.000 A 
ATOM     17  N   UNL     1      48.924   6.364  13.538  0.00  0.00    +0.000 NA
ATOM     18  C   UNL     1      49.267   7.357  12.700  0.00  0.00    +0.000 A 
ATOM     19  N   UNL     1      48.446   8.008  11.852  0.00  0.00    +0.000 NA
ATOM     20  C   UNL     1      47.144   7.626  11.862  0.00  0.00    +0.000 A 
ATOM     21  C   UNL     1      46.665   6.633  12.675  0.00  0.00    +0.000 A 
ENDBRANCH  12  13
ENDBRANCH   4  12
TORSDOF 5
ENDMDL
MODEL 5
REMARK VINA RESULT:    -5.952      1.688      2.534
REMARK INTER + INTRA:          -7.813
REMARK INTER:                  -7.586
REMARK INTRA:                  -0.226
REMARK UNBOUND:                -0.295
REMARK  Name = 
REMARK  5 active torsions:
REMARK  status: ('A' for Active; 'I' for Inactive)
REMARK    1  A    between atoms: N_1  and  C_2
REMARK    2  A    between atoms: C_2  and  C_3
REMARK    3  A    between atoms: C_3  and  C_4
REMARK    4  A    between atoms: C_7  and  C_8
REMARK    5  A    between atoms: C_8  and  N_9
REMARK                            x       y       z     vdW  Elec       q    Type
REMARK                         _______ _______ _______ _____ _____    ______ ____
ROOT
ATOM      1  C   UNL     1      44.846   2.611   9.353  0.00  0.00    +0.000 A 
ATOM      2  C   UNL     1      45.353   3.851   8.944  0.00  0.00    +0.000 A 
ATOM      3  C   UNL     1      45.034   5.021   9.645  0.00  0.00    +0.000 A 
ATOM      4  C   UNL     1      44.215   4.972  10.782  0.00  0.00    +0.000 A 
ATOM      5  C   UNL     1      43.739   3.723  11.208  0.00  0.00    +0.000 A 
ATOM      6  C   UNL     1      44.048   2.557  10.503  0.00  0.00    +0.000 A 
ENDROOT
BRANCH   1   7
ATOM      7  C   UNL     1      45.133   1.354   8.566  0.00  0.00    +0.000 C 
BRANCH   7   8
ATOM      8  C   UNL     1      46.528   1.350   7.934  0.00  0.00    +0.000 C 
BRANCH   8   9
ATOM      9  N   UNL     1      47.059  -0.011   7.845  0.00  0.00    +0.000 NA
ATOM     10  H   UNL     1      47.650  -0.090   7.017  0.00  0.00    +0.000 HD
ATOM     11  H   UNL     1      46.295  -0.671   7.710  0.00  0.00    +0.000 HD
ENDBRANCH   8   9
ENDBRANCH   7   8
ENDBRANCH   1   7
BRANCH   4  12
ATOM     12  C   UNL     1      43.815   6.236  11.518  0.00  0.00    +0.000 C 
BRANCH  12  13
ATOM     13  N   UNL     1      44.809   6.646  12.515  0.00  0.00    +0.000 N 
ATOM     14  C   UNL     1      45.915   5.737  12.888  0.00  0.00    +0.000 C 
ATOM     15  C   UNL     1      47.104   6.581  13.380  0.00  0.00    +0.000 C 
ATOM     16  C   UNL     1      46.744   7.919  12.820  0.00  0.00    +0.000 A 
ATOM     17  N   UNL     1      47.565   8.981  12.813  0.00  0.00    +0.000 NA
ATOM     18  C   UNL     1      47.018  10.078  12.262  0.00  0.00    +0.000 A 
ATOM     19  N   UNL     1      45.780  10.177  11.738  0.00  0.00    +0.000 NA
ATOM     20  C   UNL     1      45.013   9.059  11.788  0.00  0.00    +0.000 A 
ATOM     21  C   UNL     1      45.451   7.879  12.332  0.00  0.00    +0.000 A 
ENDBRANCH  12  13
ENDBRANCH   4  12
TORSDOF 5
ENDMDL
MODEL 6
REMARK VINA RESULT:    -5.857      2.249      6.497
REMARK INTER + INTRA:          -7.692
REMARK INTER:                  -7.246
REMARK INTRA:                  -0.446
REMARK UNBOUND:                -0.295
REMARK  Name = 
REMARK  5 active torsions:
REMARK  status: ('A' for Active; 'I' for Inactive)
REMARK    1  A    between atoms: N_1  and  C_2
REMARK    2  A    between atoms: C_2  and  C_3
REMARK    3  A    between atoms: C_3  and  C_4
REMARK    4  A    between atoms: C_7  and  C_8
REMARK    5  A    between atoms: C_8  and  N_9
REMARK                            x       y       z     vdW  Elec       q    Type
REMARK                         _______ _______ _______ _____ _____    ______ ____
ROOT
ATOM      1  C   UNL     1      48.044   7.977  14.126  0.00  0.00    +0.000 A 
ATOM      2  C   UNL     1      47.043   8.850  13.680  0.00  0.00    +0.000 A 
ATOM      3  C   UNL     1      45.943   8.368  12.958  0.00  0.00    +0.000 A 
ATOM      4  C   UNL     1      45.813   6.999  12.683  0.00  0.00    +0.000 A 
ATOM      5  C   UNL     1      46.800   6.125  13.161  0.00  0.00    +0.000 A 
ATOM      6  C   UNL     1      47.903   6.607  13.872  0.00  0.00    +0.000 A 
ENDROOT
BRANCH   1   7
ATOM      7  C   UNL     1      49.265   8.495  14.849  0.00  0.00    +0.000 C 
BRANCH   7   8
ATOM      8  C   UNL     1      50.320   7.412  15.092  0.00  0.00    +0.000 C 
BRANCH   8   9
ATOM      9  N   UNL     1      51.530   7.674  14.311  0.00  0.00    +0.000 NA
ATOM     10  H   UNL     1      51.304   7.644  13.317  0.00  0.00    +0.000 HD
ATOM     11  H   UNL     1      52.209   6.932  14.470  0.00  0.00    +0.000 HD
ENDBRANCH   8   9
ENDBRANCH   7   8
ENDBRANCH   1   7
BRANCH   4  12
ATOM     12  C   UNL     1      44.658   6.471  11.854  0.00  0.00    +0.000 C 
BRANCH  12  13
ATOM     13  N   UNL     1      44.719   5.019  11.665  0.00  0.00    +0.000 N 
ATOM     14  C   UNL     1      43.646   4.148  12.195  0.00  0.00    +0.000 C 
ATOM     15  C   UNL     1      43.584   2.867  11.344  0.00  0.00    +0.000 C 
ATOM     16  C   UNL     1      44.320   3.311  10.121  0.00  0.00    +0.000 A 
ATOM     17  N   UNL     1      44.383   2.606   8.981  0.00  0.00    +0.000 NA
ATOM     18  C   UNL     1      45.108   3.204   8.021  0.00  0.00    +0.000 A 
ATOM     19  N   UNL     1      45.730   4.397   8.114  0.00  0.00    +0.000 NA
ATOM     20  C   UNL     1      45.618   5.043   9.302  0.00  0.00    +0.000 A 
ATOM     21  C   UNL     1      44.914   4.535  10.363  0.00  0.00    +0.000 A 
ENDBRANCH  12  13
ENDBRANCH   4  12
TORSDOF 5
ENDMDL
MODEL 7
REMARK VINA RESULT:    -5.433      2.503      4.365
REMARK INTER + INTRA:          -7.157
REMARK INTER:                  -6.732
REMARK INTRA:                  -0.425
REMARK UNBOUND:                -0.295
REMARK  Name = 
REMARK  5 active torsions:
REMARK  status: ('A' for Active; 'I' for Inactive)
REMARK    1  A    between atoms: N_1  and  C_2
REMARK    2  A    between atoms: C_2  and  C_3
REMARK    3  A    between atoms: C_3  and  C_4
REMARK    4  A    between atoms: C_7  and  C_8
REMARK    5  A    between atoms: C_8  and  N_9
REMARK                            x       y       z     vdW  Elec       q    Type
REMARK                         _______ _______ _______ _____ _____    ______ ____
ROOT
ATOM      1  C   UNL     1      44.851   3.808  10.937  0.00  0.00    +0.000 A 
ATOM      2  C   UNL     1      45.246   4.915  10.175  0.00  0.00    +0.000 A 
ATOM      3  C   UNL     1      45.838   6.029  10.784  0.00  0.00    +0.000 A 
ATOM      4  C   UNL     1      46.064   6.050  12.168  0.00  0.00    +0.000 A 
ATOM      5  C   UNL     1      45.698   4.926  12.922  0.00  0.00    +0.000 A 
ATOM      6  C   UNL     1      45.098   3.819  12.316  0.00  0.00    +0.000 A 
ENDROOT
BRANCH   1   7
ATOM      7  C   UNL     1      44.155   2.629  10.298  0.00  0.00    +0.000 C 
BRANCH   7   8
ATOM      8  C   UNL     1      44.609   2.376   8.858  0.00  0.00    +0.000 C 
BRANCH   8   9
ATOM      9  N   UNL     1      45.628   1.328   8.806  0.00  0.00    +0.000 NA
ATOM     10  H   UNL     1      46.437   1.669   8.287  0.00  0.00    +0.000 HD
ATOM     11  H   UNL     1      45.273   0.529   8.283  0.00  0.00    +0.000 HD
ENDBRANCH   8   9
ENDBRANCH   7   8
ENDBRANCH   1   7
BRANCH   4  12
ATOM     12  C   UNL     1      46.651   7.272  12.849  0.00  0.00    +0.000 C 
BRANCH  12  13
ATOM     13  N   UNL     1      48.115   7.308  12.775  0.00  0.00    +0.000 N 
ATOM     14  C   UNL     1      48.805   8.463  12.159  0.00  0.00    +0.000 C 
ATOM     15  C   UNL     1      50.212   8.581  12.772  0.00  0.00    +0.000 C 
ATOM     16  C   UNL     1      50.043   7.764  14.012  0.00  0.00    +0.000 A 
ATOM     17  N   UNL     1      50.945   7.702  15.005  0.00  0.00    +0.000 NA
ATOM     18  C   UNL     1      50.577   6.895  16.014  0.00  0.00    +0.000 A 
ATOM     19  N   UNL     1      49.429   6.193  16.098  0.00  0.00    +0.000 NA
ATOM     20  C   UNL     1      48.574   6.309  15.051  0.00  0.00    +0.000 A 
ATOM     21  C   UNL     1      48.836   7.093  13.958  0.00  0.00    +0.000 A 
ENDBRANCH  12  13
ENDBRANCH   4  12
TORSDOF 5
ENDMDL
MODEL 8
REMARK VINA RESULT:    -5.382      2.881      4.771
REMARK INTER + INTRA:          -7.093
REMARK INTER:                  -6.649
REMARK INTRA:                  -0.443
REMARK UNBOUND:                -0.295
REMARK  Name = 
REMARK  5 active torsions:
REMARK  status: ('A' for Active; 'I' for Inactive)
REMARK    1  A    between atoms: N_1  and  C_2
REMARK    2  A    between atoms: C_2  and  C_3
REMARK    3  A    between atoms: C_3  and  C_4
REMARK    4  A    between atoms: C_7  and  C_8
REMARK    5  A    between atoms: C_8  and  N_9
REMARK                            x       y       z     vdW  Elec       q    Type
REMARK                         _______ _______ _______ _____ _____    ______ ____
ROOT
ATOM      1  C   UNL     1      44.895   3.865  10.958  0.00  0.00    +0.000 A 
ATOM      2  C   UNL     1      45.220   5.039  10.268  0.00  0.00    +0.000 A 
ATOM      3  C   UNL     1      45.887   6.088  10.915  0.00  0.00    +0.000 A 
ATOM      4  C   UNL     1      46.258   5.975  12.262  0.00  0.00    +0.000 A 
ATOM      5  C   UNL     1      45.962   4.784  12.939  0.00  0.00    +0.000 A 
ATOM      6  C   UNL     1      45.287   3.741  12.297  0.00  0.00    +0.000 A 
ENDROOT
BRANCH   1   7
ATOM      7  C   UNL     1      44.120   2.755  10.287  0.00  0.00    +0.000 C 
BRANCH   7   8
ATOM      8  C   UNL     1      44.603   2.465   8.863  0.00  0.00    +0.000 C 
BRANCH   8   9
ATOM      9  N   UNL     1      45.583   1.378   8.852  0.00  0.00    +0.000 NA
ATOM     10  H   UNL     1      45.559   0.910   7.947  0.00  0.00    +0.000 HD
ATOM     11  H   UNL     1      45.323   0.674   9.541  0.00  0.00    +0.000 HD
ENDBRANCH   8   9
ENDBRANCH   7   8
ENDBRANCH   1   7
BRANCH   4  12
ATOM     12  C   UNL     1      46.929   7.124  12.990  0.00  0.00    +0.000 C 
BRANCH  12  13
ATOM     13  N   UNL     1      47.260   8.240  12.099  0.00  0.00    +0.000 N 
ATOM     14  C   UNL     1      46.721   9.593  12.361  0.00  0.00    +0.000 C 
ATOM     15  C   UNL     1      47.680  10.632  11.753  0.00  0.00    +0.000 C 
ATOM     16  C   UNL     1      48.916   9.807  11.592  0.00  0.00    +0.000 A 
ATOM     17  N   UNL     1      50.120  10.306  11.266  0.00  0.00    +0.000 NA
ATOM     18  C   UNL     1      51.079   9.370  11.172  0.00  0.00    +0.000 A 
ATOM     19  N   UNL     1      50.929   8.047  11.380  0.00  0.00    +0.000 NA
ATOM     20  C   UNL     1      49.680   7.626  11.703  0.00  0.00    +0.000 A 
ATOM     21  C   UNL     1      48.613   8.478  11.821  0.00  0.00    +0.000 A 
ENDBRANCH  12  13
ENDBRANCH   4  12
TORSDOF 5
ENDMDL
MODEL 9
REMARK VINA RESULT:    -5.180      3.335      7.864
REMARK INTER + INTRA:          -6.837
REMARK INTER:                  -6.453
REMARK INTRA:                  -0.384
REMARK UNBOUND:                -0.295
REMARK  Name = 
REMARK  5 active torsions:
REMARK  status: ('A' for Active; 'I' for Inactive)
REMARK    1  A    between atoms: N_1  and  C_2
REMARK    2  A    between atoms: C_2  and  C_3
REMARK    3  A    between atoms: C_3  and  C_4
REMARK    4  A    between atoms: C_7  and  C_8
REMARK    5  A    between atoms: C_8  and  N_9
REMARK                            x       y       z     vdW  Elec       q    Type
REMARK                         _______ _______ _______ _____ _____    ______ ____
ROOT
ATOM      1  C   UNL     1      48.297   5.026  17.581  0.00  0.00    +0.000 A 
ATOM      2  C   UNL     1      48.880   6.106  16.906  0.00  0.00    +0.000 A 
ATOM      3  C   UNL     1      48.628   6.318  15.544  0.00  0.00    +0.000 A 
ATOM      4  C   UNL     1      47.773   5.464  14.834  0.00  0.00    +0.000 A 
ATOM      5  C   UNL     1      47.165   4.404  15.523  0.00  0.00    +0.000 A 
ATOM      6  C   UNL     1      47.424   4.186  16.879  0.00  0.00    +0.000 A 
ENDROOT
BRANCH   1   7
ATOM      7  C   UNL     1      48.613   4.752  19.033  0.00  0.00    +0.000 C 
BRANCH   7   8
ATOM      8  C   UNL     1      48.263   5.927  19.952  0.00  0.00    +0.000 C 
BRANCH   8   9
ATOM      9  N   UNL     1      47.007   5.681  20.661  0.00  0.00    +0.000 NA
ATOM     10  H   UNL     1      46.226   5.994  20.084  0.00  0.00    +0.000 HD
ATOM     11  H   UNL     1      46.975   6.245  21.510  0.00  0.00    +0.000 HD
ENDBRANCH   8   9
ENDBRANCH   7   8
ENDBRANCH   1   7
BRANCH   4  12
ATOM     12  C   UNL     1      47.537   5.647  13.347  0.00  0.00    +0.000 C 
BRANCH  12  13
ATOM     13  N   UNL     1      46.176   6.101  13.046  0.00  0.00    +0.000 N 
ATOM     14  C   UNL     1      45.952   7.382  12.340  0.00  0.00    +0.000 C 
ATOM     15  C   UNL     1      44.610   7.306  11.591  0.00  0.00    +0.000 C 
ATOM     16  C   UNL     1      44.394   5.828  11.559  0.00  0.00    +0.000 A 
ATOM     17  N   UNL     1      43.436   5.219  10.842  0.00  0.00    +0.000 NA
ATOM     18  C   UNL     1      43.432   3.883  10.978  0.00  0.00    +0.000 A 
ATOM     19  N   UNL     1      44.280   3.153  11.730  0.00  0.00    +0.000 NA
ATOM     20  C   UNL     1      45.217   3.845  12.426  0.00  0.00    +0.000 A 
ATOM     21  C   UNL     1      45.321   5.211  12.380  0.00  0.00    +0.000 A 
ENDBRANCH  12  13
ENDBRANCH   4  12
TORSDOF 5
ENDMDL
