MODEL 1
REMARK VINA RESULT:    -9.031      0.000      0.000
REMARK INTER + INTRA:         -12.619
REMARK INTER:                 -11.671
REMARK INTRA:                  -0.948
REMARK UNBOUND:                -0.948
REMARK  Name = 
REMARK  5 active torsions:
REMARK  status: ('A' for Active; 'I' for Inactive)
REMARK    1  A    between atoms: C_2  and  C_3
REMARK    2  A    between atoms: C_6  and  N_7
REMARK    3  A    between atoms: N_7  and  C_8
REMARK    4  A    between atoms: C_8  and  C_9
REMARK    5  A    between atoms: C_14  and  C_15
REMARK                            x       y       z     vdW  Elec       q    Type
REMARK                         _______ _______ _______ _____ _____    ______ ____
ROOT
ATOM      1  C   UNL     1      44.032   4.635  11.559  0.00  0.00    +0.000 C 
ATOM      2  C   UNL     1      43.072   3.677  12.246  0.00  0.00    +0.000 C 
ATOM      3  C   UNL     1      42.877   5.138  12.429  0.00  0.00    +0.000 C 
ENDROOT
BRANCH   1   4
ATOM      4  C   UNL     1      45.378   5.020  12.164  0.00  0.00    +0.000 A 
ATOM      5  C   UNL     1      46.091   6.128  11.673  0.00  0.00    +0.000 A 
ATOM      6  C   UNL     1      47.164   6.662  12.383  0.00  0.00    +0.000 A 
ATOM      7  C   UNL     1      47.556   6.072  13.581  0.00  0.00    +0.000 A 
ATOM      8  F   UNL     1      48.517   6.694  14.284  0.00  0.00    +0.000 F 
ATOM      9  C   UNL     1      46.955   4.902  14.062  0.00  0.00    +0.000 A 
ATOM     10  C   UNL     1      45.874   4.388  13.314  0.00  0.00    +0.000 A 
BRANCH   9  11
ATOM     11  C   UNL     1      47.363   4.235  15.315  0.00  0.00    +0.000 A 
ATOM     12  C   UNL     1      47.220   4.807  16.577  0.00  0.00    +0.000 A 
ATOM     13  C   UNL     1      47.650   4.107  17.701  0.00  0.00    +0.000 A 
ATOM     14  C   UNL     1      48.220   2.851  17.545  0.00  0.00    +0.000 A 
ATOM     15  C   UNL     1      48.334   2.346  16.265  0.00  0.00    +0.000 A 
ATOM     16  N   UNL     1      47.923   3.003  15.162  0.00  0.00    +0.000 NA
ENDBRANCH   9  11
ENDBRANCH   1   4
BRANCH   1  17
ATOM     17  N   UNL     1      43.972   4.727  10.094  0.00  0.00    +0.000 N 
ATOM     18  H   UNL     1      43.099   5.018   9.667  0.00  0.00    +0.000 HD
BRANCH  17  22
ATOM     19  C   UNL     1      46.679   2.715   7.525  0.00  0.00    +0.000 A 
ATOM     20  C   UNL     1      45.863   1.970   8.378  0.00  0.00    +0.000 A 
ATOM     21  C   UNL     1      44.961   2.624   9.236  0.00  0.00    +0.000 A 
ATOM     22  C   UNL     1      44.826   4.019   9.224  0.00  0.00    +0.000 A 
ATOM     23  C   UNL     1      45.671   4.745   8.373  0.00  0.00    +0.000 A 
ATOM     24  C   UNL     1      46.590   4.103   7.530  0.00  0.00    +0.000 A 
BRANCH  19  26
ATOM     25  N   UNL     1      48.378   1.511   5.967  0.00  0.00    +0.000 NA
ATOM     26  C   UNL     1      47.619   2.044   6.662  0.00  0.00    +0.000 C 
ENDBRANCH  19  26
ENDBRANCH  17  22
ENDBRANCH   1  17
TORSDOF 5
ENDMDL
MODEL 2
REMARK VINA RESULT:    -8.253      2.108      4.189
REMARK INTER + INTRA:         -11.614
REMARK INTER:                 -10.650
REMARK INTRA:                  -0.963
REMARK UNBOUND:                -0.948
REMARK  Name = 
REMARK  5 active torsions:
REMARK  status: ('A' for Active; 'I' for Inactive)
REMARK    1  A    between atoms: C_2  and  C_3
REMARK    2  A    between atoms: C_6  and  N_7
REMARK    3  A    between atoms: N_7  and  C_8
REMARK    4  A    between atoms: C_8  and  C_9
REMARK    5  A    between atoms: C_14  and  C_15
REMARK                            x       y       z     vdW  Elec       q    Type
REMARK                         _______ _______ _______ _____ _____    ______ ____
ROOT
ATOM      1  C   UNL     1      44.006   4.721  11.589  0.00  0.00    +0.000 C 
ATOM      2  C   UNL     1      43.172   3.586  12.159  0.00  0.00    +0.000 C 
ATOM      3  C   UNL     1      42.719   4.984  12.375  0.00  0.00    +0.000 C 
ENDROOT
BRANCH   1   4
ATOM      4  C   UNL     1      45.217   5.295  12.318  0.00  0.00    +0.000 A 
ATOM      5  C   UNL     1      45.983   4.486  13.176  0.00  0.00    +0.000 A 
ATOM      6  C   UNL     1      47.237   4.899  13.621  0.00  0.00    +0.000 A 
ATOM      7  C   UNL     1      47.725   6.145  13.238  0.00  0.00    +0.000 A 
ATOM      8  F   UNL     1      48.984   6.445  13.596  0.00  0.00    +0.000 F 
ATOM      9  C   UNL     1      46.960   7.038  12.477  0.00  0.00    +0.000 A 
ATOM     10  C   UNL     1      45.694   6.586  12.047  0.00  0.00    +0.000 A 
BRANCH   9  11
ATOM     11  C   UNL     1      47.437   8.377  12.073  0.00  0.00    +0.000 A 
ATOM     12  C   UNL     1      48.745   8.644  11.678  0.00  0.00    +0.000 A 
ATOM     13  C   UNL     1      49.105   9.944  11.330  0.00  0.00    +0.000 A 
ATOM     14  C   UNL     1      48.155  10.953  11.391  0.00  0.00    +0.000 A 
ATOM     15  C   UNL     1      46.878  10.618  11.796  0.00  0.00    +0.000 A 
ATOM     16  N   UNL     1      46.504   9.367  12.134  0.00  0.00    +0.000 NA
ENDBRANCH   9  11
ENDBRANCH   1   4
BRANCH   1  17
ATOM     17  N   UNL     1      44.045   4.872  10.128  0.00  0.00    +0.000 N 
ATOM     18  H   UNL     1      43.196   5.157   9.652  0.00  0.00    +0.000 HD
BRANCH  17  22
ATOM     19  C   UNL     1      46.715   2.813   7.556  0.00  0.00    +0.000 A 
ATOM     20  C   UNL     1      46.730   4.209   7.583  0.00  0.00    +0.000 A 
ATOM     21  C   UNL     1      45.850   4.905   8.430  0.00  0.00    +0.000 A 
ATOM     22  C   UNL     1      44.979   4.224   9.293  0.00  0.00    +0.000 A 
ATOM     23  C   UNL     1      44.970   2.824   9.232  0.00  0.00    +0.000 A 
ATOM     24  C   UNL     1      45.828   2.122   8.373  0.00  0.00    +0.000 A 
BRANCH  19  26
ATOM     25  N   UNL     1      48.312   1.526   5.957  0.00  0.00    +0.000 NA
ATOM     26  C   UNL     1      47.603   2.102   6.671  0.00  0.00    +0.000 C 
ENDBRANCH  19  26
ENDBRANCH  17  22
ENDBRANCH   1  17
TORSDOF 5
ENDMDL
MODEL 3
REMARK VINA RESULT:    -8.107      2.633      3.281
REMARK INTER + INTRA:         -11.425
REMARK INTER:                 -10.434
REMARK INTRA:                  -0.991
REMARK UNBOUND:                -0.948
REMARK  Name = 
REMARK  5 active torsions:
REMARK  status: ('A' for Active; 'I' for Inactive)
REMARK    1  A    between atoms: C_2  and  C_3
REMARK    2  A    between atoms: C_6  and  N_7
REMARK    3  A    between atoms: N_7  and  C_8
REMARK    4  A    between atoms: C_8  and  C_9
REMARK    5  A    between atoms: C_14  and  C_15
REMARK                            x       y       z     vdW  Elec       q    Type
REMARK                         _______ _______ _______ _____ _____    ______ ____
ROOT
ATOM      1  C   UNL     1      44.293   4.336  11.543  0.00  0.00    +0.000 C 
ATOM      2  C   UNL     1      44.686   3.329  12.611  0.00  0.00    +0.000 C 
ATOM      3  C   UNL     1      43.436   4.111  12.791  0.00  0.00    +0.000 C 
ENDROOT
BRANCH   1   4
ATOM      4  C   UNL     1      44.848   5.756  11.513  0.00  0.00    +0.000 A 
ATOM      5  C   UNL     1      44.004   6.848  11.240  0.00  0.00    +0.000 A 
ATOM      6  C   UNL     1      44.420   8.154  11.485  0.00  0.00    +0.000 A 
ATOM      7  C   UNL     1      45.701   8.387  11.978  0.00  0.00    +0.000 A 
ATOM      8  F   UNL     1      46.010   9.652  12.308  0.00  0.00    +0.000 F 
ATOM      9  C   UNL     1      46.623   7.348  12.164  0.00  0.00    +0.000 A 
ATOM     10  C   UNL     1      46.167   6.038  11.901  0.00  0.00    +0.000 A 
BRANCH   9  11
ATOM     11  C   UNL     1      47.997   7.561  12.660  0.00  0.00    +0.000 A 
ATOM     12  C   UNL     1      49.044   8.019  11.865  0.00  0.00    +0.000 A 
ATOM     13  C   UNL     1      50.312   8.173  12.420  0.00  0.00    +0.000 A 
ATOM     14  C   UNL     1      50.512   7.860  13.757  0.00  0.00    +0.000 A 
ATOM     15  C   UNL     1      49.432   7.407  14.486  0.00  0.00    +0.000 A 
ATOM     16  N   UNL     1      48.194   7.253  13.972  0.00  0.00    +0.000 NA
ENDBRANCH   9  11
ENDBRANCH   1   4
BRANCH   1  17
ATOM     17  N   UNL     1      43.878   3.814  10.234  0.00  0.00    +0.000 N 
ATOM     18  H   UNL     1      42.931   3.464  10.136  0.00  0.00    +0.000 HD
BRANCH  17  22
ATOM     19  C   UNL     1      46.686   2.484   7.349  0.00  0.00    +0.000 A 
ATOM     20  C   UNL     1      46.089   1.555   8.203  0.00  0.00    +0.000 A 
ATOM     21  C   UNL     1      45.158   1.982   9.165  0.00  0.00    +0.000 A 
ATOM     22  C   UNL     1      44.772   3.327   9.259  0.00  0.00    +0.000 A 
ATOM     23  C   UNL     1      45.400   4.242   8.404  0.00  0.00    +0.000 A 
ATOM     24  C   UNL     1      46.349   3.829   7.457  0.00  0.00    +0.000 A 
BRANCH  19  26
ATOM     25  N   UNL     1      48.435   1.692   5.594  0.00  0.00    +0.000 NA
ATOM     26  C   UNL     1      47.658   2.048   6.378  0.00  0.00    +0.000 C 
ENDBRANCH  19  26
ENDBRANCH  17  22
ENDBRANCH   1  17
TORSDOF 5
ENDMDL
MODEL 4
REMARK VINA RESULT:    -6.495      3.245      7.140
REMARK INTER + INTRA:          -9.342
REMARK INTER:                  -8.591
REMARK INTRA:                  -0.751
REMARK UNBOUND:                -0.948
REMARK  Name = 
REMARK  5 active torsions:
REMARK  status: ('A' for Active; 'I' for Inactive)
REMARK    1  A    between atoms: C_2  and  C_3
REMARK    2  A    between atoms: C_6  and  N_7
REMARK    3  A    between atoms: N_7  and  C_8
REMARK    4  A    between atoms: C_8  and  C_9
REMARK    5  A    between atoms: C_14  and  C_15
REMARK                            x       y       z     vdW  Elec       q    Type
REMARK                         _______ _______ _______ _____ _____    ______ ____
ROOT
ATOM      1  C   UNL     1      44.497   6.379  11.757  0.00  0.00    +0.000 C 
ATOM      2  C   UNL     1      44.362   7.542  10.787  0.00  0.00    +0.000 C 
ATOM      3  C   UNL     1      43.140   7.020  11.453  0.00  0.00    +0.000 C 
ENDROOT
BRANCH   1   4
ATOM      4  C   UNL     1      44.529   4.926  11.295  0.00  0.00    +0.000 A 
ATOM      5  C   UNL     1      43.671   3.973  11.873  0.00  0.00    +0.000 A 
ATOM      6  C   UNL     1      43.482   2.726  11.282  0.00  0.00    +0.000 A 
ATOM      7  C   UNL     1      44.176   2.406  10.118  0.00  0.00    +0.000 A 
ATOM      8  F   UNL     1      43.869   1.240   9.525  0.00  0.00    +0.000 F 
ATOM      9  C   UNL     1      45.125   3.271   9.560  0.00  0.00    +0.000 A 
ATOM     10  C   UNL     1      45.292   4.524  10.189  0.00  0.00    +0.000 A 
BRANCH   9  11
ATOM     11  C   UNL     1      45.897   2.953   8.341  0.00  0.00    +0.000 A 
ATOM     12  C   UNL     1      46.095   3.851   7.296  0.00  0.00    +0.000 A 
ATOM     13  C   UNL     1      46.824   3.454   6.178  0.00  0.00    +0.000 A 
ATOM     14  C   UNL     1      47.337   2.165   6.122  0.00  0.00    +0.000 A 
ATOM     15  C   UNL     1      47.100   1.326   7.192  0.00  0.00    +0.000 A 
ATOM     16  N   UNL     1      46.399   1.688   8.286  0.00  0.00    +0.000 NA
ENDBRANCH   9  11
ENDBRANCH   1   4
BRANCH   1  17
ATOM     17  N   UNL     1      45.185   6.631  13.031  0.00  0.00    +0.000 N 
ATOM     18  H   UNL     1      44.620   6.806  13.855  0.00  0.00    +0.000 HD
BRANCH  17  22
ATOM     19  C   UNL     1      49.200   7.987  13.172  0.00  0.00    +0.000 A 
ATOM     20  C   UNL     1      48.165   8.881  13.453  0.00  0.00    +0.000 A 
ATOM     21  C   UNL     1      46.829   8.445  13.409  0.00  0.00    +0.000 A 
ATOM     22  C   UNL     1      46.508   7.108  13.132  0.00  0.00    +0.000 A 
ATOM     23  C   UNL     1      47.563   6.236  12.834  0.00  0.00    +0.000 A 
ATOM     24  C   UNL     1      48.898   6.667  12.852  0.00  0.00    +0.000 A 
BRANCH  19  26
ATOM     25  N   UNL     1      51.666   8.813  13.215  0.00  0.00    +0.000 NA
ATOM     26  C   UNL     1      50.568   8.440  13.196  0.00  0.00    +0.000 C 
ENDBRANCH  19  26
ENDBRANCH  17  22
ENDBRANCH   1  17
TORSDOF 5
ENDMDL
MODEL 5
REMARK VINA RESULT:    -6.347      2.983      7.790
REMARK INTER + INTRA:          -9.151
REMARK INTER:                  -8.195
REMARK INTRA:                  -0.955
REMARK UNBOUND:                -0.948
REMARK  Name = 
REMARK  5 active torsions:
REMARK  status: ('A' for Active; 'I' for Inactive)
REMARK    1  A    between atoms: C_2  and  C_3
REMARK    2  A    between atoms: C_6  and  N_7
REMARK    3  A    between atoms: N_7  and  C_8
REMARK    4  A    between atoms: C_8  and  C_9
REMARK    5  A    between atoms: C_14  and  C_15
REMARK                            x       y       z     vdW  Elec       q    Type
REMARK                         _______ _______ _______ _____ _____    ______ ____
ROOT
ATOM      1  C   UNL     1      48.696   7.972  12.633  0.00  0.00    +0.000 C 
ATOM      2  C   UNL     1      49.816   7.452  11.747  0.00  0.00    +0.000 C 
ATOM      3  C   UNL     1      49.231   8.785  11.451  0.00  0.00    +0.000 C 
ENDROOT
BRANCH   1   4
ATOM      4  C   UNL     1      47.236   7.592  12.416  0.00  0.00    +0.000 A 
ATOM      5  C   UNL     1      46.204   8.459  12.817  0.00  0.00    +0.000 A 
ATOM      6  C   UNL     1      44.895   8.268  12.379  0.00  0.00    +0.000 A 
ATOM      7  C   UNL     1      44.598   7.184  11.558  0.00  0.00    +0.000 A 
ATOM      8  F   UNL     1      43.349   7.112  11.069  0.00  0.00    +0.000 F 
ATOM      9  C   UNL     1      45.561   6.225  11.218  0.00  0.00    +0.000 A 
ATOM     10  C   UNL     1      46.875   6.451  11.683  0.00  0.00    +0.000 A 
BRANCH   9  11
ATOM     11  C   UNL     1      45.275   5.050  10.371  0.00  0.00    +0.000 A 
ATOM     12  C   UNL     1      45.653   4.951   9.034  0.00  0.00    +0.000 A 
ATOM     13  C   UNL     1      45.323   3.808   8.310  0.00  0.00    +0.000 A 
ATOM     14  C   UNL     1      44.615   2.789   8.932  0.00  0.00    +0.000 A 
ATOM     15  C   UNL     1      44.268   2.955  10.258  0.00  0.00    +0.000 A 
ATOM     16  N   UNL     1      44.579   4.051  10.981  0.00  0.00    +0.000 NA
ENDBRANCH   9  11
ENDBRANCH   1   4
BRANCH   1  17
ATOM     17  N   UNL     1      49.035   8.335  14.016  0.00  0.00    +0.000 N 
ATOM     18  H   UNL     1      49.259   9.303  14.217  0.00  0.00    +0.000 HD
BRANCH  17  22
ATOM     19  C   UNL     1      50.607   5.735  16.973  0.00  0.00    +0.000 A 
ATOM     20  C   UNL     1      49.249   5.669  16.656  0.00  0.00    +0.000 A 
ATOM     21  C   UNL     1      48.714   6.526  15.679  0.00  0.00    +0.000 A 
ATOM     22  C   UNL     1      49.528   7.423  14.972  0.00  0.00    +0.000 A 
ATOM     23  C   UNL     1      50.883   7.483  15.323  0.00  0.00    +0.000 A 
ATOM     24  C   UNL     1      51.421   6.649  16.314  0.00  0.00    +0.000 A 
BRANCH  19  26
ATOM     25  N   UNL     1      51.589   4.182  18.814  0.00  0.00    +0.000 NA
ATOM     26  C   UNL     1      51.150   4.871  17.992  0.00  0.00    +0.000 C 
ENDBRANCH  19  26
ENDBRANCH  17  22
ENDBRANCH   1  17
TORSDOF 5
ENDMDL
MODEL 6
REMARK VINA RESULT:    -6.225      2.918      4.692
REMARK INTER + INTRA:          -8.993
REMARK INTER:                  -8.175
REMARK INTRA:                  -0.817
REMARK UNBOUND:                -0.948
REMARK  Name = 
REMARK  5 active torsions:
REMARK  status: ('A' for Active; 'I' for Inactive)
REMARK    1  A    between atoms: C_2  and  C_3
REMARK    2  A    between atoms: C_6  and  N_7
REMARK    3  A    between atoms: N_7  and  C_8
REMARK    4  A    between atoms: C_8  and  C_9
REMARK    5  A    between atoms: C_14  and  C_15
REMARK                            x       y       z     vdW  Elec       q    Type
REMARK                         _______ _______ _______ _____ _____    ______ ____
ROOT
ATOM      1  C   UNL     1      48.235   8.112  12.580  0.00  0.00    +0.000 C 
ATOM      2  C   UNL     1      49.142   8.864  11.621  0.00  0.00    +0.000 C 
ATOM      3  C   UNL     1      49.266   7.387  11.712  0.00  0.00    +0.000 C 
ENDROOT
BRANCH   1   4
ATOM      4  C   UNL     1      48.561   7.954  14.061  0.00  0.00    +0.000 A 
ATOM      5  C   UNL     1      48.666   9.082  14.895  0.00  0.00    +0.000 A 
ATOM      6  C   UNL     1      48.679   8.950  16.282  0.00  0.00    +0.000 A 
ATOM      7  C   UNL     1      48.618   7.681  16.852  0.00  0.00    +0.000 A 
ATOM      8  F   UNL     1      48.514   7.616  18.189  0.00  0.00    +0.000 F 
ATOM      9  C   UNL     1      48.624   6.518  16.071  0.00  0.00    +0.000 A 
ATOM     10  C   UNL     1      48.615   6.691  14.671  0.00  0.00    +0.000 A 
BRANCH   9  11
ATOM     11  C   UNL     1      48.586   5.156  16.643  0.00  0.00    +0.000 A 
ATOM     12  C   UNL     1      47.415   4.422  16.812  0.00  0.00    +0.000 A 
ATOM     13  C   UNL     1      47.477   3.151  17.376  0.00  0.00    +0.000 A 
ATOM     14  C   UNL     1      48.706   2.638  17.767  0.00  0.00    +0.000 A 
ATOM     15  C   UNL     1      49.826   3.421  17.573  0.00  0.00    +0.000 A 
ATOM     16  N   UNL     1      49.792   4.654  17.027  0.00  0.00    +0.000 NA
ENDBRANCH   9  11
ENDBRANCH   1   4
BRANCH   1  17
ATOM     17  N   UNL     1      46.802   8.055  12.260  0.00  0.00    +0.000 N 
ATOM     18  H   UNL     1      46.223   8.851  12.508  0.00  0.00    +0.000 HD
BRANCH  17  22
ATOM     19  C   UNL     1      44.489   4.532  11.802  0.00  0.00    +0.000 A 
ATOM     20  C   UNL     1      45.203   5.029  10.710  0.00  0.00    +0.000 A 
ATOM     21  C   UNL     1      45.972   6.197  10.847  0.00  0.00    +0.000 A 
ATOM     22  C   UNL     1      46.081   6.857  12.080  0.00  0.00    +0.000 A 
ATOM     23  C   UNL     1      45.340   6.349  13.155  0.00  0.00    +0.000 A 
ATOM     24  C   UNL     1      44.550   5.198  13.021  0.00  0.00    +0.000 A 
BRANCH  19  26
ATOM     25  N   UNL     1      43.039   2.389  11.532  0.00  0.00    +0.000 NA
ATOM     26  C   UNL     1      43.682   3.346  11.654  0.00  0.00    +0.000 C 
ENDBRANCH  19  26
ENDBRANCH  17  22
ENDBRANCH   1  17
TORSDOF 5
ENDMDL
MODEL 7
REMARK VINA RESULT:    -6.212      2.385      7.581
REMARK INTER + INTRA:          -8.976
REMARK INTER:                  -8.943
REMARK INTRA:                  -0.033
REMARK UNBOUND:                -0.948
REMARK  Name = 
REMARK  5 active torsions:
REMARK  status: ('A' for Active; 'I' for Inactive)
REMARK    1  A    between atoms: C_2  and  C_3
REMARK    2  A    between atoms: C_6  and  N_7
REMARK    3  A    between atoms: N_7  and  C_8
REMARK    4  A    between atoms: C_8  and  C_9
REMARK    5  A    between atoms: C_14  and  C_15
REMARK                            x       y       z     vdW  Elec       q    Type
REMARK                         _______ _______ _______ _____ _____    ______ ____
ROOT
ATOM      1  C   UNL     1      45.479   6.073  11.870  0.00  0.00    +0.000 C 
ATOM      2  C   UNL     1      44.743   7.326  11.426  0.00  0.00    +0.000 C 
ATOM      3  C   UNL     1      44.267   6.609  12.636  0.00  0.00    +0.000 C 
ENDROOT
BRANCH   1   4
ATOM      4  C   UNL     1      45.185   4.698  11.279  0.00  0.00    +0.000 A 
ATOM      5  C   UNL     1      44.142   3.907  11.795  0.00  0.00    +0.000 A 
ATOM      6  C   UNL     1      43.677   2.792  11.100  0.00  0.00    +0.000 A 
ATOM      7  C   UNL     1      44.273   2.437   9.893  0.00  0.00    +0.000 A 
ATOM      8  F   UNL     1      43.712   1.428   9.206  0.00  0.00    +0.000 F 
ATOM      9  C   UNL     1      45.386   3.122   9.387  0.00  0.00    +0.000 A 
ATOM     10  C   UNL     1      45.831   4.243  10.120  0.00  0.00    +0.000 A 
BRANCH   9  11
ATOM     11  C   UNL     1      46.058   2.757   8.123  0.00  0.00    +0.000 A 
ATOM     12  C   UNL     1      46.166   3.614   7.031  0.00  0.00    +0.000 A 
ATOM     13  C   UNL     1      46.805   3.174   5.874  0.00  0.00    +0.000 A 
ATOM     14  C   UNL     1      47.318   1.885   5.827  0.00  0.00    +0.000 A 
ATOM     15  C   UNL     1      47.172   1.088   6.945  0.00  0.00    +0.000 A 
ATOM     16  N   UNL     1      46.560   1.492   8.077  0.00  0.00    +0.000 NA
ENDBRANCH   9  11
ENDBRANCH   1   4
BRANCH   1  17
ATOM     17  N   UNL     1      46.840   6.232  12.399  0.00  0.00    +0.000 N 
ATOM     18  H   UNL     1      47.607   6.295  11.738  0.00  0.00    +0.000 HD
BRANCH  17  22
ATOM     19  C   UNL     1      48.058   4.896  16.234  0.00  0.00    +0.000 A 
ATOM     20  C   UNL     1      48.537   6.115  15.750  0.00  0.00    +0.000 A 
ATOM     21  C   UNL     1      48.143   6.569  14.479  0.00  0.00    +0.000 A 
ATOM     22  C   UNL     1      47.232   5.845  13.696  0.00  0.00    +0.000 A 
ATOM     23  C   UNL     1      46.782   4.616  14.197  0.00  0.00    +0.000 A 
ATOM     24  C   UNL     1      47.188   4.143  15.453  0.00  0.00    +0.000 A 
BRANCH  19  26
ATOM     25  N   UNL     1      48.817   4.033  18.567  0.00  0.00    +0.000 NA
ATOM     26  C   UNL     1      48.481   4.421  17.528  0.00  0.00    +0.000 C 
ENDBRANCH  19  26
ENDBRANCH  17  22
ENDBRANCH   1  17
TORSDOF 5
ENDMDL
MODEL 8
REMARK VINA RESULT:    -6.089      2.324      7.480
REMARK INTER + INTRA:          -8.817
REMARK INTER:                  -8.580
REMARK INTRA:                  -0.237
REMARK UNBOUND:                -0.948
REMARK  Name = 
REMARK  5 active torsions:
REMARK  status: ('A' for Active; 'I' for Inactive)
REMARK    1  A    between atoms: C_2  and  C_3
REMARK    2  A    between atoms: C_6  and  N_7
REMARK    3  A    between atoms: N_7  and  C_8
REMARK    4  A    between atoms: C_8  and  C_9
REMARK    5  A    between atoms: C_14  and  C_15
REMARK                            x       y       z     vdW  Elec       q    Type
REMARK                         _______ _______ _______ _____ _____    ______ ____
ROOT
ATOM      1  C   UNL     1      46.747   7.608  12.659  0.00  0.00    +0.000 C 
ATOM      2  C   UNL     1      46.726   8.979  12.001  0.00  0.00    +0.000 C 
ATOM      3  C   UNL     1      46.005   8.791  13.287  0.00  0.00    +0.000 C 
ENDROOT
BRANCH   1   4
ATOM      4  C   UNL     1      45.775   6.499  12.271  0.00  0.00    +0.000 A 
ATOM      5  C   UNL     1      44.496   6.434  12.853  0.00  0.00    +0.000 A 
ATOM      6  C   UNL     1      43.505   5.616  12.315  0.00  0.00    +0.000 A 
ATOM      7  C   UNL     1      43.792   4.828  11.205  0.00  0.00    +0.000 A 
ATOM      8  F   UNL     1      42.771   4.149  10.655  0.00  0.00    +0.000 F 
ATOM      9  C   UNL     1      45.078   4.768  10.652  0.00  0.00    +0.000 A 
ATOM     10  C   UNL     1      46.057   5.607  11.226  0.00  0.00    +0.000 A 
BRANCH   9  11
ATOM     11  C   UNL     1      45.425   3.924   9.491  0.00  0.00    +0.000 A 
ATOM     12  C   UNL     1      45.332   2.534   9.491  0.00  0.00    +0.000 A 
ATOM     13  C   UNL     1      45.698   1.822   8.351  0.00  0.00    +0.000 A 
ATOM     14  C   UNL     1      46.155   2.509   7.236  0.00  0.00    +0.000 A 
ATOM     15  C   UNL     1      46.226   3.886   7.306  0.00  0.00    +0.000 A 
ATOM     16  N   UNL     1      45.875   4.598   8.397  0.00  0.00    +0.000 NA
ENDBRANCH   9  11
ENDBRANCH   1   4
BRANCH   1  17
ATOM     17  N   UNL     1      48.024   7.137  13.211  0.00  0.00    +0.000 N 
ATOM     18  H   UNL     1      48.808   7.026  12.578  0.00  0.00    +0.000 HD
BRANCH  17  22
ATOM     19  C   UNL     1      48.341   5.056  16.892  0.00  0.00    +0.000 A 
ATOM     20  C   UNL     1      47.579   4.506  15.858  0.00  0.00    +0.000 A 
ATOM     21  C   UNL     1      47.465   5.186  14.633  0.00  0.00    +0.000 A 
ATOM     22  C   UNL     1      48.141   6.393  14.403  0.00  0.00    +0.000 A 
ATOM     23  C   UNL     1      48.882   6.932  15.463  0.00  0.00    +0.000 A 
ATOM     24  C   UNL     1      48.983   6.273  16.697  0.00  0.00    +0.000 A 
BRANCH  19  26
ATOM     25  N   UNL     1      48.520   3.822  19.174  0.00  0.00    +0.000 NA
ATOM     26  C   UNL     1      48.439   4.368  18.155  0.00  0.00    +0.000 C 
ENDBRANCH  19  26
ENDBRANCH  17  22
ENDBRANCH   1  17
TORSDOF 5
ENDMDL
