MODEL 1
REMARK VINA RESULT:    -8.328      0.000      0.000
REMARK INTER + INTRA:         -11.780
REMARK INTER:                 -11.006
REMARK INTRA:                  -0.774
REMARK UNBOUND:                -0.774
REMARK  Name = 
REMARK  7 active torsions:
REMARK  status: ('A' for Active; 'I' for Inactive)
REMARK    1  A    between atoms: C_1  and  C_2
REMARK    2  A    between atoms: C_2  and  N_3
REMARK    3  A    between atoms: C_2  and  C_18
REMARK    4  A    between atoms: C_7  and  C_8
REMARK    5  A    between atoms: C_8  and  N_9
REMARK    6  A    between atoms: N_9  and  C_10
REMARK    7  A    between atoms: C_13  and  N_14
REMARK                            x       y       z     vdW  Elec       q    Type
REMARK                         _______ _______ _______ _____ _____    ______ ____
ROOT
ATOM      1  N   UNL     1      47.919   5.309  15.565  0.00  0.00    +0.000 N 
ATOM      2  C   UNL     1      47.146   4.963  14.447  0.00  0.00    +0.000 A 
ATOM      3  C   UNL     1      46.652   5.991  13.639  0.00  0.00    +0.000 A 
ATOM      4  C   UNL     1      45.840   5.682  12.547  0.00  0.00    +0.000 A 
ATOM      5  C   UNL     1      45.616   4.349  12.213  0.00  0.00    +0.000 A 
ATOM      6  C   UNL     1      46.213   3.395  13.029  0.00  0.00    +0.000 A 
ATOM      7  N   UNL     1      46.949   3.673  14.133  0.00  0.00    +0.000 NA
ATOM      8  H   UNL     1      48.864   5.453  15.214  0.00  0.00    +0.000 HD
ENDROOT
BRANCH   1  10
ATOM      9  C   UNL     1      46.894   4.768  17.744  0.00  0.00    +0.000 C 
ATOM     10  C   UNL     1      47.950   4.349  16.699  0.00  0.00    +0.000 C 
BRANCH  10  11
ATOM     11  C   UNL     1      49.338   4.303  17.367  0.00  0.00    +0.000 A 
ATOM     12  C   UNL     1      49.862   5.383  18.071  0.00  0.00    +0.000 A 
ATOM     13  S   UNL     1      51.432   5.115  18.670  0.00  0.00    +0.000 S 
ATOM     14  C   UNL     1      51.476   3.541  18.025  0.00  0.00    +0.000 A 
ATOM     15  N   UNL     1      52.586   2.768  18.175  0.00  0.00    +0.000 NA
ATOM     16  C   UNL     1      52.490   1.598  17.632  0.00  0.00    +0.000 A 
ATOM     17  N   UNL     1      51.385   1.135  16.973  0.00  0.00    +0.000 N 
ATOM     18  C   UNL     1      50.222   1.858  16.837  0.00  0.00    +0.000 A 
ATOM     19  O   UNL     1      49.217   1.379  16.315  0.00  0.00    +0.000 OA
ATOM     20  C   UNL     1      50.294   3.207  17.383  0.00  0.00    +0.000 A 
ATOM     21  H   UNL     1      51.374   0.194  16.598  0.00  0.00    +0.000 HD
ENDBRANCH  10  11
ENDBRANCH   1  10
BRANCH   5  22
ATOM     22  C   UNL     1      44.782   3.955  11.023  0.00  0.00    +0.000 C 
BRANCH  22  23
ATOM     23  N   UNL     1      45.171   2.634  10.522  0.00  0.00    +0.000 NA
ATOM     24  H   UNL     1      44.874   1.923  11.189  0.00  0.00    +0.000 HD
BRANCH  23  25
ATOM     25  C   UNL     1      44.652   2.340   9.181  0.00  0.00    +0.000 C 
ATOM     26  C   UNL     1      44.815   3.585   8.283  0.00  0.00    +0.000 C 
ATOM     27  C   UNL     1      46.078   3.370   7.439  0.00  0.00    +0.000 C 
ATOM     28  C   UNL     1      46.673   2.049   7.921  0.00  0.00    +0.000 C 
ATOM     29  C   UNL     1      45.461   1.277   8.428  0.00  0.00    +0.000 C 
BRANCH  28  30
ATOM     30  N   UNL     1      47.408   1.336   6.890  0.00  0.00    +0.000 NA
ATOM     31  H   UNL     1      46.799   0.657   6.434  0.00  0.00    +0.000 HD
ATOM     32  H   UNL     1      48.157   0.794   7.320  0.00  0.00    +0.000 HD
ENDBRANCH  28  30
ENDBRANCH  23  25
ENDBRANCH  22  23
ENDBRANCH   5  22
TORSDOF 6
ENDMDL
MODEL 2
REMARK VINA RESULT:    -7.944      1.536      2.040
REMARK INTER + INTRA:         -11.273
REMARK INTER:                 -10.430
REMARK INTRA:                  -0.842
REMARK UNBOUND:                -0.774
REMARK  Name = 
REMARK  7 active torsions:
REMARK  status: ('A' for Active; 'I' for Inactive)
REMARK    1  A    between atoms: C_1  and  C_2
REMARK    2  A    between atoms: C_2  and  N_3
REMARK    3  A    between atoms: C_2  and  C_18
REMARK    4  A    between atoms: C_7  and  C_8
REMARK    5  A    between atoms: C_8  and  N_9
REMARK    6  A    between atoms: N_9  and  C_10
REMARK    7  A    between atoms: C_13  and  N_14
REMARK                            x       y       z     vdW  Elec       q    Type
REMARK                         _______ _______ _______ _____ _____    ______ ____
ROOT
ATOM      1  N   UNL     1      47.542   5.141  15.592  0.00  0.00    +0.000 N 
ATOM      2  C   UNL     1      46.857   4.790  14.419  0.00  0.00    +0.000 A 
ATOM      3  C   UNL     1      46.376   5.815  13.601  0.00  0.00    +0.000 A 
ATOM      4  C   UNL     1      45.649   5.501  12.452  0.00  0.00    +0.000 A 
ATOM      5  C   UNL     1      45.501   4.167  12.078  0.00  0.00    +0.000 A 
ATOM      6  C   UNL     1      46.081   3.219  12.912  0.00  0.00    +0.000 A 
ATOM      7  N   UNL     1      46.733   3.501  14.067  0.00  0.00    +0.000 NA
ATOM      8  H   UNL     1      48.501   5.329  15.306  0.00  0.00    +0.000 HD
ENDROOT
BRANCH   1  10
ATOM      9  C   UNL     1      47.004   4.842  17.982  0.00  0.00    +0.000 C 
ATOM     10  C   UNL     1      47.538   4.157  16.706  0.00  0.00    +0.000 C 
BRANCH  10  11
ATOM     11  C   UNL     1      48.950   3.603  16.979  0.00  0.00    +0.000 A 
ATOM     12  C   UNL     1      49.244   2.245  16.907  0.00  0.00    +0.000 A 
ATOM     13  S   UNL     1      50.856   1.869  17.305  0.00  0.00    +0.000 S 
ATOM     14  C   UNL     1      51.234   3.505  17.581  0.00  0.00    +0.000 A 
ATOM     15  N   UNL     1      52.484   3.864  17.982  0.00  0.00    +0.000 NA
ATOM     16  C   UNL     1      52.634   5.136  18.162  0.00  0.00    +0.000 A 
ATOM     17  N   UNL     1      51.657   6.071  17.962  0.00  0.00    +0.000 N 
ATOM     18  C   UNL     1      50.393   5.765  17.510  0.00  0.00    +0.000 A 
ATOM     19  O   UNL     1      49.565   6.639  17.257  0.00  0.00    +0.000 OA
ATOM     20  C   UNL     1      50.151   4.338  17.344  0.00  0.00    +0.000 A 
ATOM     21  H   UNL     1      51.858   7.054  18.097  0.00  0.00    +0.000 HD
ENDBRANCH  10  11
ENDBRANCH   1  10
BRANCH   5  22
ATOM     22  C   UNL     1      44.761   3.767  10.829  0.00  0.00    +0.000 C 
BRANCH  22  23
ATOM     23  N   UNL     1      45.280   2.507  10.291  0.00  0.00    +0.000 NA
ATOM     24  H   UNL     1      45.016   1.745  10.913  0.00  0.00    +0.000 HD
BRANCH  23  25
ATOM     25  C   UNL     1      44.843   2.233   8.917  0.00  0.00    +0.000 C 
ATOM     26  C   UNL     1      45.006   3.508   8.062  0.00  0.00    +0.000 C 
ATOM     27  C   UNL     1      46.319   3.362   7.282  0.00  0.00    +0.000 C 
ATOM     28  C   UNL     1      46.937   2.050   7.759  0.00  0.00    +0.000 C 
ATOM     29  C   UNL     1      45.729   1.222   8.180  0.00  0.00    +0.000 C 
BRANCH  28  30
ATOM     30  N   UNL     1      47.751   1.394   6.750  0.00  0.00    +0.000 NA
ATOM     31  H   UNL     1      48.571   0.972   7.185  0.00  0.00    +0.000 HD
ATOM     32  H   UNL     1      48.109   2.090   6.097  0.00  0.00    +0.000 HD
ENDBRANCH  28  30
ENDBRANCH  23  25
ENDBRANCH  22  23
ENDBRANCH   5  22
TORSDOF 6
ENDMDL
MODEL 3
REMARK VINA RESULT:    -7.763      2.156      2.768
REMARK INTER + INTRA:         -11.033
REMARK INTER:                 -10.085
REMARK INTRA:                  -0.948
REMARK UNBOUND:                -0.774
REMARK  Name = 
REMARK  7 active torsions:
REMARK  status: ('A' for Active; 'I' for Inactive)
REMARK    1  A    between atoms: C_1  and  C_2
REMARK    2  A    between atoms: C_2  and  N_3
REMARK    3  A    between atoms: C_2  and  C_18
REMARK    4  A    between atoms: C_7  and  C_8
REMARK    5  A    between atoms: C_8  and  N_9
REMARK    6  A    between atoms: N_9  and  C_10
REMARK    7  A    between atoms: C_13  and  N_14
REMARK                            x       y       z     vdW  Elec       q    Type
REMARK                         _______ _______ _______ _____ _____    ______ ____
ROOT
ATOM      1  N   UNL     1      49.233   6.136  16.053  0.00  0.00    +0.000 N 
ATOM      2  C   UNL     1      48.347   6.318  14.981  0.00  0.00    +0.000 A 
ATOM      3  C   UNL     1      48.252   7.590  14.410  0.00  0.00    +0.000 A 
ATOM      4  C   UNL     1      47.345   7.817  13.373  0.00  0.00    +0.000 A 
ATOM      5  C   UNL     1      46.620   6.749  12.850  0.00  0.00    +0.000 A 
ATOM      6  C   UNL     1      46.838   5.505  13.431  0.00  0.00    +0.000 A 
ATOM      7  N   UNL     1      47.664   5.276  14.482  0.00  0.00    +0.000 NA
ATOM      8  H   UNL     1      50.148   5.987  15.633  0.00  0.00    +0.000 HD
ENDROOT
BRANCH   1  10
ATOM      9  C   UNL     1      47.938   5.537  18.068  0.00  0.00    +0.000 C 
ATOM     10  C   UNL     1      48.936   5.032  17.004  0.00  0.00    +0.000 C 
BRANCH  10  11
ATOM     11  C   UNL     1      50.214   4.527  17.704  0.00  0.00    +0.000 A 
ATOM     12  C   UNL     1      50.967   5.334  18.551  0.00  0.00    +0.000 A 
ATOM     13  S   UNL     1      52.363   4.574  19.160  0.00  0.00    +0.000 S 
ATOM     14  C   UNL     1      52.015   3.131  18.328  0.00  0.00    +0.000 A 
ATOM     15  N   UNL     1      52.859   2.066  18.415  0.00  0.00    +0.000 NA
ATOM     16  C   UNL     1      52.481   1.037  17.729  0.00  0.00    +0.000 A 
ATOM     17  N   UNL     1      51.336   0.977  16.985  0.00  0.00    +0.000 N 
ATOM     18  C   UNL     1      50.426   2.007  16.903  0.00  0.00    +0.000 A 
ATOM     19  O   UNL     1      49.364   1.888  16.295  0.00  0.00    +0.000 OA
ATOM     20  C   UNL     1      50.830   3.213  17.613  0.00  0.00    +0.000 A 
ATOM     21  H   UNL     1      51.091   0.124  16.496  0.00  0.00    +0.000 HD
ENDBRANCH  10  11
ENDBRANCH   1  10
BRANCH   5  22
ATOM     22  C   UNL     1      45.657   6.924  11.706  0.00  0.00    +0.000 C 
BRANCH  22  23
ATOM     23  N   UNL     1      44.310   6.484  12.080  0.00  0.00    +0.000 NA
ATOM     24  H   UNL     1      43.727   7.301  12.250  0.00  0.00    +0.000 HD
BRANCH  23  25
ATOM     25  C   UNL     1      43.689   5.597  11.089  0.00  0.00    +0.000 C 
ATOM     26  C   UNL     1      44.790   4.864  10.294  0.00  0.00    +0.000 C 
ATOM     27  C   UNL     1      44.936   3.466  10.910  0.00  0.00    +0.000 C 
ATOM     28  C   UNL     1      43.982   3.442  12.103  0.00  0.00    +0.000 C 
ATOM     29  C   UNL     1      42.899   4.439  11.711  0.00  0.00    +0.000 C 
BRANCH  28  30
ATOM     30  N   UNL     1      43.456   2.119  12.395  0.00  0.00    +0.000 NA
ATOM     31  H   UNL     1      43.192   2.058  13.378  0.00  0.00    +0.000 HD
ATOM     32  H   UNL     1      44.191   1.424  12.262  0.00  0.00    +0.000 HD
ENDBRANCH  28  30
ENDBRANCH  23  25
ENDBRANCH  22  23
ENDBRANCH   5  22
TORSDOF 6
ENDMDL
MODEL 4
REMARK VINA RESULT:    -7.266      1.908      2.195
REMARK INTER + INTRA:         -10.376
REMARK INTER:                  -9.471
REMARK INTRA:                  -0.905
REMARK UNBOUND:                -0.774
REMARK  Name = 
REMARK  7 active torsions:
REMARK  status: ('A' for Active; 'I' for Inactive)
REMARK    1  A    between atoms: C_1  and  C_2
REMARK    2  A    between atoms: C_2  and  N_3
REMARK    3  A    between atoms: C_2  and  C_18
REMARK    4  A    between atoms: C_7  and  C_8
REMARK    5  A    between atoms: C_8  and  N_9
REMARK    6  A    between atoms: N_9  and  C_10
REMARK    7  A    between atoms: C_13  and  N_14
REMARK                            x       y       z     vdW  Elec       q    Type
REMARK                         _______ _______ _______ _____ _____    ______ ____
ROOT
ATOM      1  N   UNL     1      48.853   7.030  14.309  0.00  0.00    +0.000 N 
ATOM      2  C   UNL     1      47.811   6.254  13.779  0.00  0.00    +0.000 A 
ATOM      3  C   UNL     1      47.273   6.623  12.544  0.00  0.00    +0.000 A 
ATOM      4  C   UNL     1      46.204   5.900  12.011  0.00  0.00    +0.000 A 
ATOM      5  C   UNL     1      45.754   4.758  12.667  0.00  0.00    +0.000 A 
ATOM      6  C   UNL     1      46.402   4.423  13.850  0.00  0.00    +0.000 A 
ATOM      7  N   UNL     1      47.397   5.149  14.419  0.00  0.00    +0.000 NA
ATOM      8  H   UNL     1      49.703   6.690  13.866  0.00  0.00    +0.000 HD
ENDROOT
BRANCH   1  10
ATOM      9  C   UNL     1      48.709   8.434  16.334  0.00  0.00    +0.000 C 
ATOM     10  C   UNL     1      49.024   7.026  15.786  0.00  0.00    +0.000 C 
BRANCH  10  11
ATOM     11  C   UNL     1      50.459   6.632  16.190  0.00  0.00    +0.000 A 
ATOM     12  C   UNL     1      51.577   7.322  15.732  0.00  0.00    +0.000 A 
ATOM     13  S   UNL     1      53.054   6.667  16.269  0.00  0.00    +0.000 S 
ATOM     14  C   UNL     1      52.263   5.441  17.144  0.00  0.00    +0.000 A 
ATOM     15  N   UNL     1      52.983   4.510  17.827  0.00  0.00    +0.000 NA
ATOM     16  C   UNL     1      52.260   3.632  18.442  0.00  0.00    +0.000 A 
ATOM     17  N   UNL     1      50.893   3.614  18.446  0.00  0.00    +0.000 N 
ATOM     18  C   UNL     1      50.119   4.560  17.811  0.00  0.00    +0.000 A 
ATOM     19  O   UNL     1      48.893   4.565  17.907  0.00  0.00    +0.000 OA
ATOM     20  C   UNL     1      50.883   5.543  17.055  0.00  0.00    +0.000 A 
ATOM     21  H   UNL     1      50.394   2.910  18.975  0.00  0.00    +0.000 HD
ENDBRANCH  10  11
ENDBRANCH   1  10
BRANCH   5  22
ATOM     22  C   UNL     1      44.632   3.915  12.121  0.00  0.00    +0.000 C 
BRANCH  22  23
ATOM     23  N   UNL     1      45.142   2.876  11.223  0.00  0.00    +0.000 NA
ATOM     24  H   UNL     1      45.171   1.989  11.722  0.00  0.00    +0.000 HD
BRANCH  23  25
ATOM     25  C   UNL     1      44.375   2.750   9.978  0.00  0.00    +0.000 C 
ATOM     26  C   UNL     1      44.440   4.080   9.197  0.00  0.00    +0.000 C 
ATOM     27  C   UNL     1      45.517   3.916   8.117  0.00  0.00    +0.000 C 
ATOM     28  C   UNL     1      46.118   2.530   8.343  0.00  0.00    +0.000 C 
ATOM     29  C   UNL     1      44.977   1.749   8.984  0.00  0.00    +0.000 C 
BRANCH  28  30
ATOM     30  N   UNL     1      46.615   1.910   7.127  0.00  0.00    +0.000 NA
ATOM     31  H   UNL     1      45.922   1.260   6.758  0.00  0.00    +0.000 HD
ATOM     32  H   UNL     1      47.438   1.347   7.344  0.00  0.00    +0.000 HD
ENDBRANCH  28  30
ENDBRANCH  23  25
ENDBRANCH  22  23
ENDBRANCH   5  22
TORSDOF 6
ENDMDL
MODEL 5
REMARK VINA RESULT:    -7.179      2.989      3.818
REMARK INTER + INTRA:         -10.262
REMARK INTER:                  -9.518
REMARK INTRA:                  -0.744
REMARK UNBOUND:                -0.774
REMARK  Name = 
REMARK  7 active torsions:
REMARK  status: ('A' for Active; 'I' for Inactive)
REMARK    1  A    between atoms: C_1  and  C_2
REMARK    2  A    between atoms: C_2  and  N_3
REMARK    3  A    between atoms: C_2  and  C_18
REMARK    4  A    between atoms: C_7  and  C_8
REMARK    5  A    between atoms: C_8  and  N_9
REMARK    6  A    between atoms: N_9  and  C_10
REMARK    7  A    between atoms: C_13  and  N_14
REMARK                            x       y       z     vdW  Elec       q    Type
REMARK                         _______ _______ _______ _____ _____    ______ ____
ROOT
ATOM      1  N   UNL     1      47.371   6.665  14.312  0.00  0.00    +0.000 N 
ATOM      2  C   UNL     1      46.661   5.937  13.347  0.00  0.00    +0.000 A 
ATOM      3  C   UNL     1      46.284   4.626  13.651  0.00  0.00    +0.000 A 
ATOM      4  C   UNL     1      45.617   3.858  12.695  0.00  0.00    +0.000 A 
ATOM      5  C   UNL     1      45.242   4.441  11.487  0.00  0.00    +0.000 A 
ATOM      6  C   UNL     1      45.591   5.774  11.305  0.00  0.00    +0.000 A 
ATOM      7  N   UNL     1      46.297   6.517  12.193  0.00  0.00    +0.000 NA
ATOM      8  H   UNL     1      46.671   7.041  14.947  0.00  0.00    +0.000 HD
ENDROOT
BRANCH   1  10
ATOM      9  C   UNL     1      49.368   7.170  12.951  0.00  0.00    +0.000 C 
ATOM     10  C   UNL     1      48.247   7.766  13.830  0.00  0.00    +0.000 C 
BRANCH  10  11
ATOM     11  C   UNL     1      48.878   8.544  15.001  0.00  0.00    +0.000 A 
ATOM     12  C   UNL     1      48.872   9.934  15.060  0.00  0.00    +0.000 A 
ATOM     13  S   UNL     1      49.678  10.567  16.420  0.00  0.00    +0.000 S 
ATOM     14  C   UNL     1      50.060   9.011  16.993  0.00  0.00    +0.000 A 
ATOM     15  N   UNL     1      50.782   8.857  18.137  0.00  0.00    +0.000 NA
ATOM     16  C   UNL     1      51.009   7.625  18.456  0.00  0.00    +0.000 A 
ATOM     17  N   UNL     1      50.567   6.544  17.745  0.00  0.00    +0.000 N 
ATOM     18  C   UNL     1      49.794   6.644  16.611  0.00  0.00    +0.000 A 
ATOM     19  O   UNL     1      49.340   5.651  16.045  0.00  0.00    +0.000 OA
ATOM     20  C   UNL     1      49.555   8.013  16.174  0.00  0.00    +0.000 A 
ATOM     21  H   UNL     1      50.760   5.606  18.073  0.00  0.00    +0.000 HD
ENDBRANCH  10  11
ENDBRANCH   1  10
BRANCH   5  22
ATOM     22  C   UNL     1      44.487   3.676  10.434  0.00  0.00    +0.000 C 
BRANCH  22  23
ATOM     23  N   UNL     1      45.221   2.474  10.028  0.00  0.00    +0.000 NA
ATOM     24  H   UNL     1      45.028   1.726  10.691  0.00  0.00    +0.000 HD
BRANCH  23  25
ATOM     25  C   UNL     1      44.925   2.043   8.656  0.00  0.00    +0.000 C 
ATOM     26  C   UNL     1      44.924   3.272   7.721  0.00  0.00    +0.000 C 
ATOM     27  C   UNL     1      46.289   3.308   7.023  0.00  0.00    +0.000 C 
ATOM     28  C   UNL     1      47.090   2.155   7.626  0.00  0.00    +0.000 C 
ATOM     29  C   UNL     1      46.016   1.158   8.042  0.00  0.00    +0.000 C 
BRANCH  28  30
ATOM     30  N   UNL     1      48.066   1.589   6.711  0.00  0.00    +0.000 NA
ATOM     31  H   UNL     1      47.592   1.070   5.973  0.00  0.00    +0.000 HD
ATOM     32  H   UNL     1      48.640   0.907   7.206  0.00  0.00    +0.000 HD
ENDBRANCH  28  30
ENDBRANCH  23  25
ENDBRANCH  22  23
ENDBRANCH   5  22
TORSDOF 6
ENDMDL
MODEL 6
REMARK VINA RESULT:    -6.712      3.410      8.449
REMARK INTER + INTRA:          -9.644
REMARK INTER:                  -9.033
REMARK INTRA:                  -0.612
REMARK UNBOUND:                -0.774
REMARK  Name = 
REMARK  7 active torsions:
REMARK  status: ('A' for Active; 'I' for Inactive)
REMARK    1  A    between atoms: C_1  and  C_2
REMARK    2  A    between atoms: C_2  and  N_3
REMARK    3  A    between atoms: C_2  and  C_18
REMARK    4  A    between atoms: C_7  and  C_8
REMARK    5  A    between atoms: C_8  and  N_9
REMARK    6  A    between atoms: N_9  and  C_10
REMARK    7  A    between atoms: C_13  and  N_14
REMARK                            x       y       z     vdW  Elec       q    Type
REMARK                         _______ _______ _______ _____ _____    ______ ____
ROOT
ATOM      1  N   UNL     1      47.895   7.069  14.328  0.00  0.00    +0.000 N 
ATOM      2  C   UNL     1      48.251   6.359  15.483  0.00  0.00    +0.000 A 
ATOM      3  C   UNL     1      48.805   7.067  16.553  0.00  0.00    +0.000 A 
ATOM      4  C   UNL     1      49.213   6.384  17.699  0.00  0.00    +0.000 A 
ATOM      5  C   UNL     1      48.968   5.017  17.806  0.00  0.00    +0.000 A 
ATOM      6  C   UNL     1      48.340   4.411  16.724  0.00  0.00    +0.000 A 
ATOM      7  N   UNL     1      47.997   5.044  15.575  0.00  0.00    +0.000 NA
ATOM      8  H   UNL     1      46.973   7.458  14.514  0.00  0.00    +0.000 HD
ENDROOT
BRANCH   1  10
ATOM      9  C   UNL     1      48.779   7.031  12.024  0.00  0.00    +0.000 C 
ATOM     10  C   UNL     1      47.868   6.318  13.045  0.00  0.00    +0.000 C 
BRANCH  10  11
ATOM     11  C   UNL     1      46.440   6.222  12.473  0.00  0.00    +0.000 A 
ATOM     12  C   UNL     1      45.792   7.312  11.901  0.00  0.00    +0.000 A 
ATOM     13  S   UNL     1      44.203   6.976  11.392  0.00  0.00    +0.000 S 
ATOM     14  C   UNL     1      44.316   5.357  11.903  0.00  0.00    +0.000 A 
ATOM     15  N   UNL     1      43.254   4.516  11.767  0.00  0.00    +0.000 NA
ATOM     16  C   UNL     1      43.471   3.318  12.201  0.00  0.00    +0.000 A 
ATOM     17  N   UNL     1      44.652   2.888  12.740  0.00  0.00    +0.000 N 
ATOM     18  C   UNL     1      45.770   3.683  12.855  0.00  0.00    +0.000 A 
ATOM     19  O   UNL     1      46.842   3.241  13.264  0.00  0.00    +0.000 OA
ATOM     20  C   UNL     1      45.564   5.062  12.432  0.00  0.00    +0.000 A 
ATOM     21  H   UNL     1      44.756   1.924  13.033  0.00  0.00    +0.000 HD
ENDBRANCH  10  11
ENDBRANCH   1  10
BRANCH   5  22
ATOM     22  C   UNL     1      49.349   4.233  19.033  0.00  0.00    +0.000 C 
BRANCH  22  23
ATOM     23  N   UNL     1      50.786   3.950  19.052  0.00  0.00    +0.000 NA
ATOM     24  H   UNL     1      50.964   3.167  19.679  0.00  0.00    +0.000 HD
BRANCH  23  25
ATOM     25  C   UNL     1      51.350   3.692  17.722  0.00  0.00    +0.000 C 
ATOM     26  C   UNL     1      52.866   3.980  17.742  0.00  0.00    +0.000 C 
ATOM     27  C   UNL     1      53.579   2.630  17.900  0.00  0.00    +0.000 C 
ATOM     28  C   UNL     1      52.467   1.595  18.056  0.00  0.00    +0.000 C 
ATOM     29  C   UNL     1      51.295   2.217  17.307  0.00  0.00    +0.000 C 
BRANCH  28  30
ATOM     30  N   UNL     1      52.827   0.280  17.554  0.00  0.00    +0.000 NA
ATOM     31  H   UNL     1      53.793   0.065  17.801  0.00  0.00    +0.000 HD
ATOM     32  H   UNL     1      52.795   0.286  16.535  0.00  0.00    +0.000 HD
ENDBRANCH  28  30
ENDBRANCH  23  25
ENDBRANCH  22  23
ENDBRANCH   5  22
TORSDOF 6
ENDMDL
MODEL 7
REMARK VINA RESULT:    -6.618      2.280      3.198
REMARK INTER + INTRA:          -9.520
REMARK INTER:                  -9.376
REMARK INTRA:                  -0.144
REMARK UNBOUND:                -0.774
REMARK  Name = 
REMARK  7 active torsions:
REMARK  status: ('A' for Active; 'I' for Inactive)
REMARK    1  A    between atoms: C_1  and  C_2
REMARK    2  A    between atoms: C_2  and  N_3
REMARK    3  A    between atoms: C_2  and  C_18
REMARK    4  A    between atoms: C_7  and  C_8
REMARK    5  A    between atoms: C_8  and  N_9
REMARK    6  A    between atoms: N_9  and  C_10
REMARK    7  A    between atoms: C_13  and  N_14
REMARK                            x       y       z     vdW  Elec       q    Type
REMARK                         _______ _______ _______ _____ _____    ______ ____
ROOT
ATOM      1  N   UNL     1      46.154   6.087  13.773  0.00  0.00    +0.000 N 
ATOM      2  C   UNL     1      45.676   5.645  12.531  0.00  0.00    +0.000 A 
ATOM      3  C   UNL     1      44.680   4.666  12.514  0.00  0.00    +0.000 A 
ATOM      4  C   UNL     1      44.216   4.170  11.294  0.00  0.00    +0.000 A 
ATOM      5  C   UNL     1      44.678   4.732  10.107  0.00  0.00    +0.000 A 
ATOM      6  C   UNL     1      45.611   5.755  10.223  0.00  0.00    +0.000 A 
ATOM      7  N   UNL     1      46.123   6.205  11.395  0.00  0.00    +0.000 NA
ATOM      8  H   UNL     1      45.492   6.792  14.090  0.00  0.00    +0.000 HD
ENDROOT
BRANCH   1  10
ATOM      9  C   UNL     1      48.416   5.881  12.806  0.00  0.00    +0.000 C 
ATOM     10  C   UNL     1      47.532   6.643  13.817  0.00  0.00    +0.000 C 
BRANCH  10  11
ATOM     11  C   UNL     1      48.149   6.521  15.225  0.00  0.00    +0.000 A 
ATOM     12  C   UNL     1      48.802   7.582  15.845  0.00  0.00    +0.000 A 
ATOM     13  S   UNL     1      49.448   7.191  17.371  0.00  0.00    +0.000 S 
ATOM     14  C   UNL     1      48.873   5.593  17.273  0.00  0.00    +0.000 A 
ATOM     15  N   UNL     1      49.121   4.710  18.279  0.00  0.00    +0.000 NA
ATOM     16  C   UNL     1      48.635   3.529  18.076  0.00  0.00    +0.000 A 
ATOM     17  N   UNL     1      47.917   3.163  16.972  0.00  0.00    +0.000 N 
ATOM     18  C   UNL     1      47.598   4.030  15.951  0.00  0.00    +0.000 A 
ATOM     19  O   UNL     1      46.876   3.691  15.014  0.00  0.00    +0.000 OA
ATOM     20  C   UNL     1      48.169   5.362  16.102  0.00  0.00    +0.000 A 
ATOM     21  H   UNL     1      47.543   2.225  16.896  0.00  0.00    +0.000 HD
ENDBRANCH  10  11
ENDBRANCH   1  10
BRANCH   5  22
ATOM     22  C   UNL     1      44.185   4.267   8.762  0.00  0.00    +0.000 C 
BRANCH  22  23
ATOM     23  N   UNL     1      44.619   2.894   8.488  0.00  0.00    +0.000 NA
ATOM     24  H   UNL     1      44.233   2.595   7.594  0.00  0.00    +0.000 HD
BRANCH  23  25
ATOM     25  C   UNL     1      46.077   2.726   8.508  0.00  0.00    +0.000 C 
ATOM     26  C   UNL     1      46.432   1.280   8.102  0.00  0.00    +0.000 C 
ATOM     27  C   UNL     1      46.826   1.312   6.620  0.00  0.00    +0.000 C 
ATOM     28  C   UNL     1      46.610   2.754   6.168  0.00  0.00    +0.000 C 
ATOM     29  C   UNL     1      46.806   3.559   7.447  0.00  0.00    +0.000 C 
BRANCH  28  30
ATOM     30  N   UNL     1      47.502   3.165   5.097  0.00  0.00    +0.000 NA
ATOM     31  H   UNL     1      48.466   2.937   5.340  0.00  0.00    +0.000 HD
ATOM     32  H   UNL     1      47.471   4.179   5.000  0.00  0.00    +0.000 HD
ENDBRANCH  28  30
ENDBRANCH  23  25
ENDBRANCH  22  23
ENDBRANCH   5  22
TORSDOF 6
ENDMDL
MODEL 8
REMARK VINA RESULT:    -6.406      3.265      9.054
REMARK INTER + INTRA:          -9.239
REMARK INTER:                  -8.257
REMARK INTRA:                  -0.982
REMARK UNBOUND:                -0.774
REMARK  Name = 
REMARK  7 active torsions:
REMARK  status: ('A' for Active; 'I' for Inactive)
REMARK    1  A    between atoms: C_1  and  C_2
REMARK    2  A    between atoms: C_2  and  N_3
REMARK    3  A    between atoms: C_2  and  C_18
REMARK    4  A    between atoms: C_7  and  C_8
REMARK    5  A    between atoms: C_8  and  N_9
REMARK    6  A    between atoms: N_9  and  C_10
REMARK    7  A    between atoms: C_13  and  N_14
REMARK                            x       y       z     vdW  Elec       q    Type
REMARK                         _______ _______ _______ _____ _____    ______ ____
ROOT
ATOM      1  N   UNL     1      47.781   5.758  15.867  0.00  0.00    +0.000 N 
ATOM      2  C   UNL     1      48.764   5.538  16.844  0.00  0.00    +0.000 A 
ATOM      3  C   UNL     1      48.365   5.466  18.181  0.00  0.00    +0.000 A 
ATOM      4  C   UNL     1      49.323   5.295  19.181  0.00  0.00    +0.000 A 
ATOM      5  C   UNL     1      50.655   5.095  18.828  0.00  0.00    +0.000 A 
ATOM      6  C   UNL     1      50.946   5.104  17.469  0.00  0.00    +0.000 A 
ATOM      7  N   UNL     1      50.042   5.335  16.485  0.00  0.00    +0.000 NA
ATOM      8  H   UNL     1      47.377   4.845  15.671  0.00  0.00    +0.000 HD
ENDROOT
BRANCH   1  10
ATOM      9  C   UNL     1      48.537   7.882  14.861  0.00  0.00    +0.000 C 
ATOM     10  C   UNL     1      48.213   6.396  14.596  0.00  0.00    +0.000 C 
BRANCH  10  11
ATOM     11  C   UNL     1      47.120   6.299  13.512  0.00  0.00    +0.000 A 
ATOM     12  C   UNL     1      46.662   7.412  12.815  0.00  0.00    +0.000 A 
ATOM     13  S   UNL     1      45.415   7.064  11.710  0.00  0.00    +0.000 S 
ATOM     14  C   UNL     1      45.440   5.410  12.108  0.00  0.00    +0.000 A 
ATOM     15  N   UNL     1      44.573   4.546  11.513  0.00  0.00    +0.000 NA
ATOM     16  C   UNL     1      44.693   3.321  11.911  0.00  0.00    +0.000 A 
ATOM     17  N   UNL     1      45.608   2.889  12.831  0.00  0.00    +0.000 N 
ATOM     18  C   UNL     1      46.537   3.712  13.424  0.00  0.00    +0.000 A 
ATOM     19  O   UNL     1      47.402   3.275  14.182  0.00  0.00    +0.000 OA
ATOM     20  C   UNL     1      46.411   5.116  13.054  0.00  0.00    +0.000 A 
ATOM     21  H   UNL     1      45.661   1.907  13.072  0.00  0.00    +0.000 HD
ENDBRANCH  10  11
ENDBRANCH   1  10
BRANCH   5  22
ATOM     22  C   UNL     1      51.727   4.866  19.859  0.00  0.00    +0.000 C 
BRANCH  22  23
ATOM     23  N   UNL     1      52.388   3.574  19.654  0.00  0.00    +0.000 NA
ATOM     24  H   UNL     1      52.121   3.204  18.744  0.00  0.00    +0.000 HD
BRANCH  23  25
ATOM     25  C   UNL     1      53.849   3.638  19.783  0.00  0.00    +0.000 C 
ATOM     26  C   UNL     1      54.467   2.318  19.275  0.00  0.00    +0.000 C 
ATOM     27  C   UNL     1      54.952   2.569  17.841  0.00  0.00    +0.000 C 
ATOM     28  C   UNL     1      54.530   4.000  17.510  0.00  0.00    +0.000 C 
ATOM     29  C   UNL     1      54.502   4.684  18.871  0.00  0.00    +0.000 C 
BRANCH  28  30
ATOM     30  N   UNL     1      55.414   4.658  16.563  0.00  0.00    +0.000 NA
ATOM     31  H   UNL     1      55.924   3.961  16.021  0.00  0.00    +0.000 HD
ATOM     32  H   UNL     1      56.121   5.189  17.070  0.00  0.00    +0.000 HD
ENDBRANCH  28  30
ENDBRANCH  23  25
ENDBRANCH  22  23
ENDBRANCH   5  22
TORSDOF 6
ENDMDL
MODEL 9
REMARK VINA RESULT:    -5.896      4.203      5.949
REMARK INTER + INTRA:          -8.566
REMARK INTER:                  -8.183
REMARK INTRA:                  -0.383
REMARK UNBOUND:                -0.774
REMARK  Name = 
REMARK  7 active torsions:
REMARK  status: ('A' for Active; 'I' for Inactive)
REMARK    1  A    between atoms: C_1  and  C_2
REMARK    2  A    between atoms: C_2  and  N_3
REMARK    3  A    between atoms: C_2  and  C_18
REMARK    4  A    between atoms: C_7  and  C_8
REMARK    5  A    between atoms: C_8  and  N_9
REMARK    6  A    between atoms: N_9  and  C_10
REMARK    7  A    between atoms: C_13  and  N_14
REMARK                            x       y       z     vdW  Elec       q    Type
REMARK                         _______ _______ _______ _____ _____    ______ ____
ROOT
ATOM      1  N   UNL     1      47.776   6.705  14.351  0.00  0.00    +0.000 N 
ATOM      2  C   UNL     1      46.944   6.114  13.389  0.00  0.00    +0.000 A 
ATOM      3  C   UNL     1      46.093   5.082  13.792  0.00  0.00    +0.000 A 
ATOM      4  C   UNL     1      45.287   4.441  12.850  0.00  0.00    +0.000 A 
ATOM      5  C   UNL     1      45.263   4.907  11.538  0.00  0.00    +0.000 A 
ATOM      6  C   UNL     1      46.085   5.989  11.247  0.00  0.00    +0.000 A 
ATOM      7  N   UNL     1      46.925   6.583  12.131  0.00  0.00    +0.000 NA
ATOM      8  H   UNL     1      47.202   7.398  14.825  0.00  0.00    +0.000 HD
ENDROOT
BRANCH   1  10
ATOM      9  C   UNL     1      50.009   7.484  15.056  0.00  0.00    +0.000 C 
ATOM     10  C   UNL     1      49.031   7.341  13.871  0.00  0.00    +0.000 C 
BRANCH  10  11
ATOM     11  C   UNL     1      48.765   8.732  13.261  0.00  0.00    +0.000 A 
ATOM     12  C   UNL     1      47.680   9.516  13.640  0.00  0.00    +0.000 A 
ATOM     13  S   UNL     1      47.564  10.985  12.787  0.00  0.00    +0.000 S 
ATOM     14  C   UNL     1      48.964  10.641  11.883  0.00  0.00    +0.000 A 
ATOM     15  N   UNL     1      49.402  11.514  10.935  0.00  0.00    +0.000 NA
ATOM     16  C   UNL     1      50.470  11.129  10.317  0.00  0.00    +0.000 A 
ATOM     17  N   UNL     1      51.140   9.965  10.574  0.00  0.00    +0.000 N 
ATOM     18  C   UNL     1      50.767   9.073  11.554  0.00  0.00    +0.000 A 
ATOM     19  O   UNL     1      51.441   8.079  11.818  0.00  0.00    +0.000 OA
ATOM     20  C   UNL     1      49.535   9.431  12.245  0.00  0.00    +0.000 A 
ATOM     21  H   UNL     1      51.988   9.744  10.067  0.00  0.00    +0.000 HD
ENDBRANCH  10  11
ENDBRANCH   1  10
BRANCH   5  22
ATOM     22  C   UNL     1      44.385   4.282  10.487  0.00  0.00    +0.000 C 
BRANCH  22  23
ATOM     23  N   UNL     1      44.845   2.932  10.150  0.00  0.00    +0.000 NA
ATOM     24  H   UNL     1      44.420   2.266  10.792  0.00  0.00    +0.000 HD
BRANCH  23  25
ATOM     25  C   UNL     1      44.580   2.554   8.756  0.00  0.00    +0.000 C 
ATOM     26  C   UNL     1      44.998   3.710   7.823  0.00  0.00    +0.000 C 
ATOM     27  C   UNL     1      46.385   3.362   7.268  0.00  0.00    +0.000 C 
ATOM     28  C   UNL     1      46.786   2.057   7.953  0.00  0.00    +0.000 C 
ATOM     29  C   UNL     1      45.450   1.393   8.260  0.00  0.00    +0.000 C 
BRANCH  28  30
ATOM     30  N   UNL     1      47.660   1.225   7.144  0.00  0.00    +0.000 NA
ATOM     31  H   UNL     1      47.189   0.353   6.905  0.00  0.00    +0.000 HD
ATOM     32  H   UNL     1      48.477   0.958   7.692  0.00  0.00    +0.000 HD
ENDBRANCH  28  30
ENDBRANCH  23  25
ENDBRANCH  22  23
ENDBRANCH   5  22
TORSDOF 6
ENDMDL
