MODEL 1
REMARK VINA RESULT:    -8.206      0.000      0.000
REMARK INTER + INTRA:         -13.514
REMARK INTER:                 -12.044
REMARK INTRA:                  -1.470
REMARK UNBOUND:                -1.470
REMARK  Name = 
REMARK  9 active torsions:
REMARK  status: ('A' for Active; 'I' for Inactive)
REMARK    1  A    between atoms: C_1  and  O_2
REMARK    2  A    between atoms: O_2  and  C_3
REMARK    3  A    between atoms: C_10  and  C_11
REMARK    4  A    between atoms: N_13  and  C_14
REMARK    5  A    between atoms: C_14  and  C_15
REMARK    6  A    between atoms: C_18  and  C_19
REMARK    7  A    between atoms: C_19  and  N_20
REMARK    8  A    between atoms: N_20  and  C_21
REMARK    9  A    between atoms: C_21  and  C_22
REMARK                            x       y       z     vdW  Elec       q    Type
REMARK                         _______ _______ _______ _____ _____    ______ ____
ROOT
ATOM      1  C   UNL     1      45.956   7.036  12.400  0.00  0.00    +0.000 A 
ATOM      2  C   UNL     1      46.361   6.547  11.153  0.00  0.00    +0.000 A 
ATOM      3  C   UNL     1      45.659   5.510  10.524  0.00  0.00    +0.000 A 
ATOM      4  C   UNL     1      44.502   4.962  11.098  0.00  0.00    +0.000 A 
ATOM      5  C   UNL     1      44.030   5.538  12.287  0.00  0.00    +0.000 A 
ATOM      6  C   UNL     1      44.752   6.555  12.934  0.00  0.00    +0.000 A 
ENDROOT
BRANCH   1   7
ATOM      7  C   UNL     1      46.807   8.038  13.152  0.00  0.00    +0.000 C 
BRANCH   7  10
ATOM      8  C   UNL     1      48.618   6.859  14.375  0.00  0.00    +0.000 C 
ATOM      9  O   UNL     1      49.301   6.733  13.361  0.00  0.00    +0.000 OA
ATOM     10  N   UNL     1      47.398   7.474  14.342  0.00  0.00    +0.000 N 
ATOM     11  H   UNL     1      46.875   7.594  15.200  0.00  0.00    +0.000 HD
BRANCH   8  19
ATOM     12  C   UNL     1      47.533   4.318  16.433  0.00  0.00    +0.000 A 
ATOM     13  N   UNL     1      47.356   3.360  17.364  0.00  0.00    +0.000 NA
ATOM     14  C   UNL     1      48.203   3.325  18.394  0.00  0.00    +0.000 A 
ATOM     15  N   UNL     1      49.218   4.151  18.621  0.00  0.00    +0.000 NA
ATOM     16  C   UNL     1      49.366   5.082  17.659  0.00  0.00    +0.000 A 
ATOM     17  S   UNL     1      50.610   6.229  17.780  0.00  0.00    +0.000 S 
ATOM     18  C   UNL     1      50.161   6.950  16.307  0.00  0.00    +0.000 A 
ATOM     19  C   UNL     1      49.078   6.341  15.684  0.00  0.00    +0.000 A 
ATOM     20  C   UNL     1      48.589   5.238  16.516  0.00  0.00    +0.000 A 
BRANCH  12  22
ATOM     21  C   UNL     1      47.141   3.621  14.243  0.00  0.00    +0.000 C 
ATOM     22  O   UNL     1      46.659   4.348  15.369  0.00  0.00    +0.000 OA
ENDBRANCH  12  22
ENDBRANCH   8  19
ENDBRANCH   7  10
ENDBRANCH   1   7
BRANCH   4  23
ATOM     23  C   UNL     1      43.740   3.824  10.432  0.00  0.00    +0.000 C 
BRANCH  23  24
ATOM     24  N   UNL     1      44.489   2.566  10.480  0.00  0.00    +0.000 NA
ATOM     25  H   UNL     1      44.080   1.959  11.189  0.00  0.00    +0.000 HD
BRANCH  24  26
ATOM     26  C   UNL     1      44.548   1.858   9.195  0.00  0.00    +0.000 C 
BRANCH  26  27
ATOM     27  C   UNL     1      45.837   2.251   8.413  0.00  0.00    +0.000 C 
ATOM     28  C   UNL     1      45.528   3.304   7.327  0.00  0.00    +0.000 C 
ATOM     29  C   UNL     1      46.777   3.686   6.538  0.00  0.00    +0.000 C 
ATOM     30  C   UNL     1      47.490   2.446   6.011  0.00  0.00    +0.000 C 
ATOM     31  C   UNL     1      47.732   1.432   7.126  0.00  0.00    +0.000 C 
ATOM     32  N   UNL     1      46.471   1.077   7.787  0.00  0.00    +0.000 NA
ATOM     33  H   UNL     1      46.659   0.376   8.496  0.00  0.00    +0.000 HD
ENDBRANCH  26  27
ENDBRANCH  24  26
ENDBRANCH  23  24
ENDBRANCH   4  23
TORSDOF 8
ENDMDL
MODEL 2
REMARK VINA RESULT:    -7.841      1.508      1.699
REMARK INTER + INTRA:         -12.977
REMARK INTER:                 -11.832
REMARK INTRA:                  -1.146
REMARK UNBOUND:                -1.470
REMARK  Name = 
REMARK  9 active torsions:
REMARK  status: ('A' for Active; 'I' for Inactive)
REMARK    1  A    between atoms: C_1  and  O_2
REMARK    2  A    between atoms: O_2  and  C_3
REMARK    3  A    between atoms: C_10  and  C_11
REMARK    4  A    between atoms: N_13  and  C_14
REMARK    5  A    between atoms: C_14  and  C_15
REMARK    6  A    between atoms: C_18  and  C_19
REMARK    7  A    between atoms: C_19  and  N_20
REMARK    8  A    between atoms: N_20  and  C_21
REMARK    9  A    between atoms: C_21  and  C_22
REMARK                            x       y       z     vdW  Elec       q    Type
REMARK                         _______ _______ _______ _____ _____    ______ ____
ROOT
ATOM      1  C   UNL     1      46.707   6.173  12.792  0.00  0.00    +0.000 A 
ATOM      2  C   UNL     1      46.207   6.443  11.512  0.00  0.00    +0.000 A 
ATOM      3  C   UNL     1      45.194   5.653  10.953  0.00  0.00    +0.000 A 
ATOM      4  C   UNL     1      44.612   4.599  11.675  0.00  0.00    +0.000 A 
ATOM      5  C   UNL     1      45.029   4.411  13.001  0.00  0.00    +0.000 A 
ATOM      6  C   UNL     1      46.069   5.181  13.549  0.00  0.00    +0.000 A 
ENDROOT
BRANCH   1   7
ATOM      7  C   UNL     1      47.911   6.921  13.325  0.00  0.00    +0.000 C 
BRANCH   7  10
ATOM      8  C   UNL     1      49.022   6.902  15.546  0.00  0.00    +0.000 C 
ATOM      9  O   UNL     1      50.130   6.694  15.055  0.00  0.00    +0.000 OA
ATOM     10  N   UNL     1      47.906   7.015  14.765  0.00  0.00    +0.000 N 
ATOM     11  H   UNL     1      47.013   7.221  15.196  0.00  0.00    +0.000 HD
BRANCH   8  19
ATOM     12  C   UNL     1      48.897   4.625  18.128  0.00  0.00    +0.000 A 
ATOM     13  N   UNL     1      48.880   3.960  19.301  0.00  0.00    +0.000 NA
ATOM     14  C   UNL     1      48.749   4.673  20.421  0.00  0.00    +0.000 A 
ATOM     15  N   UNL     1      48.619   5.990  20.518  0.00  0.00    +0.000 NA
ATOM     16  C   UNL     1      48.655   6.614  19.326  0.00  0.00    +0.000 A 
ATOM     17  S   UNL     1      48.500   8.302  19.251  0.00  0.00    +0.000 S 
ATOM     18  C   UNL     1      48.654   8.295  17.557  0.00  0.00    +0.000 A 
ATOM     19  C   UNL     1      48.838   7.031  17.010  0.00  0.00    +0.000 A 
ATOM     20  C   UNL     1      48.810   6.024  18.075  0.00  0.00    +0.000 A 
BRANCH  12  22
ATOM     21  C   UNL     1      47.786   3.453  16.447  0.00  0.00    +0.000 C 
ATOM     22  O   UNL     1      49.036   3.887  16.974  0.00  0.00    +0.000 OA
ENDBRANCH  12  22
ENDBRANCH   8  19
ENDBRANCH   7  10
ENDBRANCH   1   7
BRANCH   4  23
ATOM     23  C   UNL     1      43.521   3.723  11.073  0.00  0.00    +0.000 C 
BRANCH  23  24
ATOM     24  N   UNL     1      43.805   3.384   9.677  0.00  0.00    +0.000 NA
ATOM     25  H   UNL     1      44.338   4.140   9.250  0.00  0.00    +0.000 HD
BRANCH  24  26
ATOM     26  C   UNL     1      44.521   2.113   9.507  0.00  0.00    +0.000 C 
BRANCH  26  27
ATOM     27  C   UNL     1      45.785   2.313   8.618  0.00  0.00    +0.000 C 
ATOM     28  C   UNL     1      45.512   3.323   7.484  0.00  0.00    +0.000 C 
ATOM     29  C   UNL     1      46.736   3.517   6.592  0.00  0.00    +0.000 C 
ATOM     30  C   UNL     1      47.276   2.175   6.109  0.00  0.00    +0.000 C 
ATOM     31  C   UNL     1      47.489   1.213   7.274  0.00  0.00    +0.000 C 
ATOM     32  N   UNL     1      46.247   1.040   8.037  0.00  0.00    +0.000 NA
ATOM     33  H   UNL     1      46.411   0.368   8.780  0.00  0.00    +0.000 HD
ENDBRANCH  26  27
ENDBRANCH  24  26
ENDBRANCH  23  24
ENDBRANCH   4  23
TORSDOF 8
ENDMDL
MODEL 3
REMARK VINA RESULT:    -7.390      2.237      2.941
REMARK INTER + INTRA:         -12.315
REMARK INTER:                 -11.300
REMARK INTRA:                  -1.015
REMARK UNBOUND:                -1.470
REMARK  Name = 
REMARK  9 active torsions:
REMARK  status: ('A' for Active; 'I' for Inactive)
REMARK    1  A    between atoms: C_1  and  O_2
REMARK    2  A    between atoms: O_2  and  C_3
REMARK    3  A    between atoms: C_10  and  C_11
REMARK    4  A    between atoms: N_13  and  C_14
REMARK    5  A    between atoms: C_14  and  C_15
REMARK    6  A    between atoms: C_18  and  C_19
REMARK    7  A    between atoms: C_19  and  N_20
REMARK    8  A    between atoms: N_20  and  C_21
REMARK    9  A    between atoms: C_21  and  C_22
REMARK                            x       y       z     vdW  Elec       q    Type
REMARK                         _______ _______ _______ _____ _____    ______ ____
ROOT
ATOM      1  C   UNL     1      46.754   6.061  12.925  0.00  0.00    +0.000 A 
ATOM      2  C   UNL     1      46.095   4.992  13.544  0.00  0.00    +0.000 A 
ATOM      3  C   UNL     1      45.011   4.358  12.922  0.00  0.00    +0.000 A 
ATOM      4  C   UNL     1      44.582   4.739  11.641  0.00  0.00    +0.000 A 
ATOM      5  C   UNL     1      45.322   5.727  10.975  0.00  0.00    +0.000 A 
ATOM      6  C   UNL     1      46.387   6.386  11.611  0.00  0.00    +0.000 A 
ENDROOT
BRANCH   1   7
ATOM      7  C   UNL     1      47.813   6.850  13.665  0.00  0.00    +0.000 C 
BRANCH   7  10
ATOM      8  C   UNL     1      49.019   6.419  15.793  0.00  0.00    +0.000 C 
ATOM      9  O   UNL     1      50.119   6.597  15.274  0.00  0.00    +0.000 OA
ATOM     10  N   UNL     1      47.864   6.519  15.069  0.00  0.00    +0.000 N 
ATOM     11  H   UNL     1      46.972   6.401  15.532  0.00  0.00    +0.000 HD
BRANCH   8  19
ATOM     12  C   UNL     1      48.458   8.285  18.635  0.00  0.00    +0.000 A 
ATOM     13  N   UNL     1      48.184   8.766  19.864  0.00  0.00    +0.000 NA
ATOM     14  C   UNL     1      48.109   7.896  20.873  0.00  0.00    +0.000 A 
ATOM     15  N   UNL     1      48.289   6.582  20.809  0.00  0.00    +0.000 NA
ATOM     16  C   UNL     1      48.546   6.144  19.562  0.00  0.00    +0.000 A 
ATOM     17  S   UNL     1      48.808   4.491  19.285  0.00  0.00    +0.000 S 
ATOM     18  C   UNL     1      49.023   4.749  17.618  0.00  0.00    +0.000 A 
ATOM     19  C   UNL     1      48.890   6.076  17.228  0.00  0.00    +0.000 A 
ATOM     20  C   UNL     1      48.632   6.911  18.405  0.00  0.00    +0.000 A 
BRANCH  12  22
ATOM     21  C   UNL     1      47.838  10.398  17.871  0.00  0.00    +0.000 C 
ATOM     22  O   UNL     1      48.530   9.184  17.595  0.00  0.00    +0.000 OA
ENDBRANCH  12  22
ENDBRANCH   8  19
ENDBRANCH   7  10
ENDBRANCH   1   7
BRANCH   4  23
ATOM     23  C   UNL     1      43.395   4.068  10.963  0.00  0.00    +0.000 C 
BRANCH  23  24
ATOM     24  N   UNL     1      43.735   3.588   9.622  0.00  0.00    +0.000 NA
ATOM     25  H   UNL     1      44.279   4.302   9.138  0.00  0.00    +0.000 HD
BRANCH  24  26
ATOM     26  C   UNL     1      44.468   2.316   9.612  0.00  0.00    +0.000 C 
BRANCH  26  27
ATOM     27  C   UNL     1      45.714   2.408   8.682  0.00  0.00    +0.000 C 
ATOM     28  C   UNL     1      45.452   3.363   7.498  0.00  0.00    +0.000 C 
ATOM     29  C   UNL     1      46.657   3.450   6.565  0.00  0.00    +0.000 C 
ATOM     30  C   UNL     1      47.126   2.061   6.147  0.00  0.00    +0.000 C 
ATOM     31  C   UNL     1      47.330   1.159   7.361  0.00  0.00    +0.000 C 
ATOM     32  N   UNL     1      46.104   1.084   8.164  0.00  0.00    +0.000 NA
ATOM     33  H   UNL     1      46.260   0.450   8.941  0.00  0.00    +0.000 HD
ENDBRANCH  26  27
ENDBRANCH  24  26
ENDBRANCH  23  24
ENDBRANCH   4  23
TORSDOF 8
ENDMDL
MODEL 4
REMARK VINA RESULT:    -7.012      1.800      2.391
REMARK INTER + INTRA:         -11.761
REMARK INTER:                 -10.355
REMARK INTRA:                  -1.406
REMARK UNBOUND:                -1.470
REMARK  Name = 
REMARK  9 active torsions:
REMARK  status: ('A' for Active; 'I' for Inactive)
REMARK    1  A    between atoms: C_1  and  O_2
REMARK    2  A    between atoms: O_2  and  C_3
REMARK    3  A    between atoms: C_10  and  C_11
REMARK    4  A    between atoms: N_13  and  C_14
REMARK    5  A    between atoms: C_14  and  C_15
REMARK    6  A    between atoms: C_18  and  C_19
REMARK    7  A    between atoms: C_19  and  N_20
REMARK    8  A    between atoms: N_20  and  C_21
REMARK    9  A    between atoms: C_21  and  C_22
REMARK                            x       y       z     vdW  Elec       q    Type
REMARK                         _______ _______ _______ _____ _____    ______ ____
ROOT
ATOM      1  C   UNL     1      46.773   7.237  12.600  0.00  0.00    +0.000 A 
ATOM      2  C   UNL     1      46.979   5.872  12.837  0.00  0.00    +0.000 A 
ATOM      3  C   UNL     1      45.895   4.996  12.979  0.00  0.00    +0.000 A 
ATOM      4  C   UNL     1      44.572   5.445  12.840  0.00  0.00    +0.000 A 
ATOM      5  C   UNL     1      44.376   6.787  12.480  0.00  0.00    +0.000 A 
ATOM      6  C   UNL     1      45.461   7.673  12.372  0.00  0.00    +0.000 A 
ENDROOT
BRANCH   1   7
ATOM      7  C   UNL     1      47.936   8.207  12.612  0.00  0.00    +0.000 C 
BRANCH   7  10
ATOM      8  C   UNL     1      49.187   7.951  14.742  0.00  0.00    +0.000 C 
ATOM      9  O   UNL     1      48.361   8.606  15.374  0.00  0.00    +0.000 OA
ATOM     10  N   UNL     1      49.045   7.727  13.401  0.00  0.00    +0.000 N 
ATOM     11  H   UNL     1      49.724   7.156  12.914  0.00  0.00    +0.000 HD
BRANCH   8  19
ATOM     12  C   UNL     1      49.646   5.522  17.141  0.00  0.00    +0.000 A 
ATOM     13  N   UNL     1      50.093   4.581  17.997  0.00  0.00    +0.000 NA
ATOM     14  C   UNL     1      51.412   4.454  18.152  0.00  0.00    +0.000 A 
ATOM     15  N   UNL     1      52.358   5.170  17.557  0.00  0.00    +0.000 NA
ATOM     16  C   UNL     1      51.868   6.087  16.702  0.00  0.00    +0.000 A 
ATOM     17  S   UNL     1      52.929   7.099  15.850  0.00  0.00    +0.000 S 
ATOM     18  C   UNL     1      51.640   7.872  15.055  0.00  0.00    +0.000 A 
ATOM     19  C   UNL     1      50.386   7.381  15.398  0.00  0.00    +0.000 A 
ATOM     20  C   UNL     1      50.530   6.328  16.408  0.00  0.00    +0.000 A 
BRANCH  12  22
ATOM     21  C   UNL     1      47.719   4.577  16.230  0.00  0.00    +0.000 C 
ATOM     22  O   UNL     1      48.284   5.648  16.980  0.00  0.00    +0.000 OA
ENDBRANCH  12  22
ENDBRANCH   8  19
ENDBRANCH   7  10
ENDBRANCH   1   7
BRANCH   4  23
ATOM     23  C   UNL     1      43.386   4.505  13.008  0.00  0.00    +0.000 C 
BRANCH  23  24
ATOM     24  N   UNL     1      42.867   4.048  11.717  0.00  0.00    +0.000 NA
ATOM     25  H   UNL     1      43.070   4.749  11.007  0.00  0.00    +0.000 HD
BRANCH  24  26
ATOM     26  C   UNL     1      43.393   2.744  11.292  0.00  0.00    +0.000 C 
BRANCH  26  27
ATOM     27  C   UNL     1      44.570   2.930  10.288  0.00  0.00    +0.000 C 
ATOM     28  C   UNL     1      44.400   4.226   9.469  0.00  0.00    +0.000 C 
ATOM     29  C   UNL     1      45.536   4.414   8.467  0.00  0.00    +0.000 C 
ATOM     30  C   UNL     1      45.724   3.164   7.614  0.00  0.00    +0.000 C 
ATOM     31  C   UNL     1      45.848   1.916   8.484  0.00  0.00    +0.000 C 
ATOM     32  N   UNL     1      44.685   1.783   9.370  0.00  0.00    +0.000 NA
ATOM     33  H   UNL     1      44.780   0.927   9.907  0.00  0.00    +0.000 HD
ENDBRANCH  26  27
ENDBRANCH  24  26
ENDBRANCH  23  24
ENDBRANCH   4  23
TORSDOF 8
ENDMDL
MODEL 5
REMARK VINA RESULT:    -6.779      4.550      9.282
REMARK INTER + INTRA:         -11.420
REMARK INTER:                 -10.547
REMARK INTRA:                  -0.872
REMARK UNBOUND:                -1.470
REMARK  Name = 
REMARK  9 active torsions:
REMARK  status: ('A' for Active; 'I' for Inactive)
REMARK    1  A    between atoms: C_1  and  O_2
REMARK    2  A    between atoms: O_2  and  C_3
REMARK    3  A    between atoms: C_10  and  C_11
REMARK    4  A    between atoms: N_13  and  C_14
REMARK    5  A    between atoms: C_14  and  C_15
REMARK    6  A    between atoms: C_18  and  C_19
REMARK    7  A    between atoms: C_19  and  N_20
REMARK    8  A    between atoms: N_20  and  C_21
REMARK    9  A    between atoms: C_21  and  C_22
REMARK                            x       y       z     vdW  Elec       q    Type
REMARK                         _______ _______ _______ _____ _____    ______ ____
ROOT
ATOM      1  C   UNL     1      48.600   3.294  17.351  0.00  0.00    +0.000 A 
ATOM      2  C   UNL     1      49.252   2.116  16.968  0.00  0.00    +0.000 A 
ATOM      3  C   UNL     1      50.636   1.972  17.138  0.00  0.00    +0.000 A 
ATOM      4  C   UNL     1      51.403   2.980  17.742  0.00  0.00    +0.000 A 
ATOM      5  C   UNL     1      50.727   4.105  18.235  0.00  0.00    +0.000 A 
ATOM      6  C   UNL     1      49.345   4.265  18.034  0.00  0.00    +0.000 A 
ENDROOT
BRANCH   1   7
ATOM      7  C   UNL     1      47.139   3.513  17.016  0.00  0.00    +0.000 C 
BRANCH   7  10
ATOM      8  C   UNL     1      47.000   4.215  14.638  0.00  0.00    +0.000 C 
ATOM      9  O   UNL     1      47.221   3.077  14.228  0.00  0.00    +0.000 OA
ATOM     10  N   UNL     1      46.955   4.495  15.974  0.00  0.00    +0.000 N 
ATOM     11  H   UNL     1      46.738   5.435  16.281  0.00  0.00    +0.000 HD
BRANCH   8  19
ATOM     12  C   UNL     1      44.337   5.198  12.686  0.00  0.00    +0.000 A 
ATOM     13  N   UNL     1      43.437   5.824  11.901  0.00  0.00    +0.000 NA
ATOM     14  C   UNL     1      43.808   6.959  11.307  0.00  0.00    +0.000 A 
ATOM     15  N   UNL     1      44.992   7.554  11.391  0.00  0.00    +0.000 NA
ATOM     16  C   UNL     1      45.854   6.903  12.196  0.00  0.00    +0.000 A 
ATOM     17  S   UNL     1      47.420   7.513  12.424  0.00  0.00    +0.000 S 
ATOM     18  C   UNL     1      47.818   6.245  13.484  0.00  0.00    +0.000 A 
ATOM     19  C   UNL     1      46.784   5.343  13.702  0.00  0.00    +0.000 A 
ATOM     20  C   UNL     1      45.617   5.729  12.904  0.00  0.00    +0.000 A 
BRANCH  12  22
ATOM     21  C   UNL     1      43.724   2.971  12.374  0.00  0.00    +0.000 C 
ATOM     22  O   UNL     1      43.950   4.029  13.300  0.00  0.00    +0.000 OA
ENDBRANCH  12  22
ENDBRANCH   8  19
ENDBRANCH   7  10
ENDBRANCH   1   7
BRANCH   4  23
ATOM     23  C   UNL     1      52.910   2.842  17.917  0.00  0.00    +0.000 C 
BRANCH  23  24
ATOM     24  N   UNL     1      53.275   1.538  18.476  0.00  0.00    +0.000 NA
ATOM     25  H   UNL     1      52.427   1.018  18.695  0.00  0.00    +0.000 HD
BRANCH  24  26
ATOM     26  C   UNL     1      54.136   0.734  17.598  0.00  0.00    +0.000 C 
BRANCH  26  27
ATOM     27  C   UNL     1      54.419  -0.658  18.236  0.00  0.00    +0.000 C 
ATOM     28  C   UNL     1      55.027  -1.629  17.202  0.00  0.00    +0.000 C 
ATOM     29  C   UNL     1      55.294  -3.005  17.806  0.00  0.00    +0.000 C 
ATOM     30  C   UNL     1      54.051  -3.545  18.505  0.00  0.00    +0.000 C 
ATOM     31  C   UNL     1      53.482  -2.523  19.486  0.00  0.00    +0.000 C 
ATOM     32  N   UNL     1      53.198  -1.254  18.806  0.00  0.00    +0.000 NA
ATOM     33  H   UNL     1      52.787  -0.610  19.474  0.00  0.00    +0.000 HD
ENDBRANCH  26  27
ENDBRANCH  24  26
ENDBRANCH  23  24
ENDBRANCH   4  23
TORSDOF 8
ENDMDL
MODEL 6
REMARK VINA RESULT:    -6.630      3.071      7.841
REMARK INTER + INTRA:         -11.200
REMARK INTER:                  -9.577
REMARK INTRA:                  -1.623
REMARK UNBOUND:                -1.470
REMARK  Name = 
REMARK  9 active torsions:
REMARK  status: ('A' for Active; 'I' for Inactive)
REMARK    1  A    between atoms: C_1  and  O_2
REMARK    2  A    between atoms: O_2  and  C_3
REMARK    3  A    between atoms: C_10  and  C_11
REMARK    4  A    between atoms: N_13  and  C_14
REMARK    5  A    between atoms: C_14  and  C_15
REMARK    6  A    between atoms: C_18  and  C_19
REMARK    7  A    between atoms: C_19  and  N_20
REMARK    8  A    between atoms: N_20  and  C_21
REMARK    9  A    between atoms: C_21  and  C_22
REMARK                            x       y       z     vdW  Elec       q    Type
REMARK                         _______ _______ _______ _____ _____    ______ ____
ROOT
ATOM      1  C   UNL     1      48.713   7.997  13.465  0.00  0.00    +0.000 A 
ATOM      2  C   UNL     1      48.472   9.137  14.242  0.00  0.00    +0.000 A 
ATOM      3  C   UNL     1      48.414   9.056  15.640  0.00  0.00    +0.000 A 
ATOM      4  C   UNL     1      48.643   7.844  16.308  0.00  0.00    +0.000 A 
ATOM      5  C   UNL     1      49.005   6.732  15.534  0.00  0.00    +0.000 A 
ATOM      6  C   UNL     1      49.030   6.805  14.131  0.00  0.00    +0.000 A 
ENDROOT
BRANCH   1   7
ATOM      7  C   UNL     1      48.611   8.054  11.956  0.00  0.00    +0.000 C 
BRANCH   7  10
ATOM      8  C   UNL     1      46.444   6.976  11.401  0.00  0.00    +0.000 C 
ATOM      9  O   UNL     1      45.793   7.907  11.871  0.00  0.00    +0.000 OA
ATOM     10  N   UNL     1      47.810   6.981  11.417  0.00  0.00    +0.000 N 
ATOM     11  H   UNL     1      48.318   6.216  10.992  0.00  0.00    +0.000 HD
BRANCH   8  19
ATOM     12  C   UNL     1      44.603   4.376  12.713  0.00  0.00    +0.000 A 
ATOM     13  N   UNL     1      43.810   3.314  12.959  0.00  0.00    +0.000 NA
ATOM     14  C   UNL     1      43.419   2.572  11.921  0.00  0.00    +0.000 A 
ATOM     15  N   UNL     1      43.736   2.754  10.645  0.00  0.00    +0.000 NA
ATOM     16  C   UNL     1      44.517   3.833  10.444  0.00  0.00    +0.000 A 
ATOM     17  S   UNL     1      45.027   4.225   8.874  0.00  0.00    +0.000 S 
ATOM     18  C   UNL     1      45.871   5.592   9.432  0.00  0.00    +0.000 A 
ATOM     19  C   UNL     1      45.779   5.794  10.804  0.00  0.00    +0.000 A 
ATOM     20  C   UNL     1      44.988   4.719  11.408  0.00  0.00    +0.000 A 
BRANCH  12  22
ATOM     21  C   UNL     1      46.244   4.713  14.334  0.00  0.00    +0.000 C 
ATOM     22  O   UNL     1      45.001   5.142  13.785  0.00  0.00    +0.000 OA
ENDBRANCH  12  22
ENDBRANCH   8  19
ENDBRANCH   7  10
ENDBRANCH   1   7
BRANCH   4  23
ATOM     23  C   UNL     1      48.567   7.741  17.826  0.00  0.00    +0.000 C 
BRANCH  23  24
ATOM     24  N   UNL     1      49.528   6.770  18.355  0.00  0.00    +0.000 NA
ATOM     25  H   UNL     1      50.332   7.268  18.735  0.00  0.00    +0.000 HD
BRANCH  24  26
ATOM     26  C   UNL     1      48.970   5.875  19.377  0.00  0.00    +0.000 C 
BRANCH  26  27
ATOM     27  C   UNL     1      48.770   4.443  18.799  0.00  0.00    +0.000 C 
ATOM     28  C   UNL     1      49.946   4.044  17.883  0.00  0.00    +0.000 C 
ATOM     29  C   UNL     1      49.756   2.649  17.294  0.00  0.00    +0.000 C 
ATOM     30  C   UNL     1      48.388   2.516  16.635  0.00  0.00    +0.000 C 
ATOM     31  C   UNL     1      47.275   2.960  17.580  0.00  0.00    +0.000 C 
ATOM     32  N   UNL     1      47.507   4.332  18.047  0.00  0.00    +0.000 NA
ATOM     33  H   UNL     1      46.733   4.610  18.643  0.00  0.00    +0.000 HD
ENDBRANCH  26  27
ENDBRANCH  24  26
ENDBRANCH  23  24
ENDBRANCH   4  23
TORSDOF 8
ENDMDL
MODEL 7
REMARK VINA RESULT:    -6.487      3.249      4.941
REMARK INTER + INTRA:         -10.991
REMARK INTER:                  -9.824
REMARK INTRA:                  -1.166
REMARK UNBOUND:                -1.470
REMARK  Name = 
REMARK  9 active torsions:
REMARK  status: ('A' for Active; 'I' for Inactive)
REMARK    1  A    between atoms: C_1  and  O_2
REMARK    2  A    between atoms: O_2  and  C_3
REMARK    3  A    between atoms: C_10  and  C_11
REMARK    4  A    between atoms: N_13  and  C_14
REMARK    5  A    between atoms: C_14  and  C_15
REMARK    6  A    between atoms: C_18  and  C_19
REMARK    7  A    between atoms: C_19  and  N_20
REMARK    8  A    between atoms: N_20  and  C_21
REMARK    9  A    between atoms: C_21  and  C_22
REMARK                            x       y       z     vdW  Elec       q    Type
REMARK                         _______ _______ _______ _____ _____    ______ ____
ROOT
ATOM      1  C   UNL     1      46.804   5.495  13.216  0.00  0.00    +0.000 A 
ATOM      2  C   UNL     1      46.546   4.127  13.367  0.00  0.00    +0.000 A 
ATOM      3  C   UNL     1      45.479   3.518  12.694  0.00  0.00    +0.000 A 
ATOM      4  C   UNL     1      44.665   4.244  11.811  0.00  0.00    +0.000 A 
ATOM      5  C   UNL     1      45.004   5.584  11.568  0.00  0.00    +0.000 A 
ATOM      6  C   UNL     1      46.052   6.204  12.268  0.00  0.00    +0.000 A 
ENDROOT
BRANCH   1   7
ATOM      7  C   UNL     1      47.850   6.184  14.068  0.00  0.00    +0.000 C 
BRANCH   7  10
ATOM      8  C   UNL     1      48.404   8.511  13.403  0.00  0.00    +0.000 C 
ATOM      9  O   UNL     1      47.529   8.987  14.123  0.00  0.00    +0.000 OA
ATOM     10  N   UNL     1      48.607   7.162  13.325  0.00  0.00    +0.000 N 
ATOM     11  H   UNL     1      49.358   6.802  12.750  0.00  0.00    +0.000 HD
BRANCH   8  19
ATOM     12  C   UNL     1      51.817   8.937  13.205  0.00  0.00    +0.000 A 
ATOM     13  N   UNL     1      53.093   9.236  12.887  0.00  0.00    +0.000 NA
ATOM     14  C   UNL     1      53.303  10.119  11.910  0.00  0.00    +0.000 A 
ATOM     15  N   UNL     1      52.381  10.762  11.203  0.00  0.00    +0.000 NA
ATOM     16  C   UNL     1      51.123  10.423  11.544  0.00  0.00    +0.000 A 
ATOM     17  S   UNL     1      49.810  11.146  10.750  0.00  0.00    +0.000 S 
ATOM     18  C   UNL     1      48.693  10.247  11.665  0.00  0.00    +0.000 A 
ATOM     19  C   UNL     1      49.277   9.375  12.575  0.00  0.00    +0.000 A 
ATOM     20  C   UNL     1      50.736   9.507  12.516  0.00  0.00    +0.000 A 
BRANCH  12  22
ATOM     21  C   UNL     1      51.523   8.630  15.497  0.00  0.00    +0.000 C 
ATOM     22  O   UNL     1      51.604   8.022  14.211  0.00  0.00    +0.000 OA
ENDBRANCH  12  22
ENDBRANCH   8  19
ENDBRANCH   7  10
ENDBRANCH   1   7
BRANCH   4  23
ATOM     23  C   UNL     1      43.493   3.597  11.087  0.00  0.00    +0.000 C 
BRANCH  23  24
ATOM     24  N   UNL     1      43.812   3.304   9.687  0.00  0.00    +0.000 NA
ATOM     25  H   UNL     1      44.347   4.078   9.297  0.00  0.00    +0.000 HD
BRANCH  24  26
ATOM     26  C   UNL     1      44.546   2.047   9.494  0.00  0.00    +0.000 C 
BRANCH  26  27
ATOM     27  C   UNL     1      45.809   2.280   8.613  0.00  0.00    +0.000 C 
ATOM     28  C   UNL     1      45.522   3.302   7.492  0.00  0.00    +0.000 C 
ATOM     29  C   UNL     1      46.745   3.529   6.607  0.00  0.00    +0.000 C 
ATOM     30  C   UNL     1      47.309   2.204   6.106  0.00  0.00    +0.000 C 
ATOM     31  C   UNL     1      47.535   1.229   7.258  0.00  0.00    +0.000 C 
ATOM     32  N   UNL     1      46.293   1.024   8.015  0.00  0.00    +0.000 NA
ATOM     33  H   UNL     1      46.466   0.344   8.749  0.00  0.00    +0.000 HD
ENDBRANCH  26  27
ENDBRANCH  24  26
ENDBRANCH  23  24
ENDBRANCH   4  23
TORSDOF 8
ENDMDL
MODEL 8
REMARK VINA RESULT:    -6.201      4.500      9.672
REMARK INTER + INTRA:         -10.571
REMARK INTER:                  -9.305
REMARK INTRA:                  -1.265
REMARK UNBOUND:                -1.470
REMARK  Name = 
REMARK  9 active torsions:
REMARK  status: ('A' for Active; 'I' for Inactive)
REMARK    1  A    between atoms: C_1  and  O_2
REMARK    2  A    between atoms: O_2  and  C_3
REMARK    3  A    between atoms: C_10  and  C_11
REMARK    4  A    between atoms: N_13  and  C_14
REMARK    5  A    between atoms: C_14  and  C_15
REMARK    6  A    between atoms: C_18  and  C_19
REMARK    7  A    between atoms: C_19  and  N_20
REMARK    8  A    between atoms: N_20  and  C_21
REMARK    9  A    between atoms: C_21  and  C_22
REMARK                            x       y       z     vdW  Elec       q    Type
REMARK                         _______ _______ _______ _____ _____    ______ ____
ROOT
ATOM      1  C   UNL     1      48.766   3.457  17.357  0.00  0.00    +0.000 A 
ATOM      2  C   UNL     1      49.378   2.251  16.995  0.00  0.00    +0.000 A 
ATOM      3  C   UNL     1      50.756   2.063  17.171  0.00  0.00    +0.000 A 
ATOM      4  C   UNL     1      51.556   3.055  17.759  0.00  0.00    +0.000 A 
ATOM      5  C   UNL     1      50.917   4.210  18.232  0.00  0.00    +0.000 A 
ATOM      6  C   UNL     1      49.543   4.413  18.025  0.00  0.00    +0.000 A 
ENDROOT
BRANCH   1   7
ATOM      7  C   UNL     1      47.314   3.720  17.015  0.00  0.00    +0.000 C 
BRANCH   7  10
ATOM      8  C   UNL     1      47.145   4.283  14.602  0.00  0.00    +0.000 C 
ATOM      9  O   UNL     1      47.267   3.109  14.259  0.00  0.00    +0.000 OA
ATOM     10  N   UNL     1      47.166   4.648  15.919  0.00  0.00    +0.000 N 
ATOM     11  H   UNL     1      47.029   5.618  16.172  0.00  0.00    +0.000 HD
BRANCH   8  19
ATOM     12  C   UNL     1      48.930   7.141  13.886  0.00  0.00    +0.000 A 
ATOM     13  N   UNL     1      49.478   8.259  13.369  0.00  0.00    +0.000 NA
ATOM     14  C   UNL     1      48.878   8.821  12.318  0.00  0.00    +0.000 A 
ATOM     15  N   UNL     1      47.772   8.405  11.714  0.00  0.00    +0.000 NA
ATOM     16  C   UNL     1      47.267   7.278  12.253  0.00  0.00    +0.000 A 
ATOM     17  S   UNL     1      45.851   6.598  11.614  0.00  0.00    +0.000 S 
ATOM     18  C   UNL     1      45.896   5.319  12.735  0.00  0.00    +0.000 A 
ATOM     19  C   UNL     1      46.979   5.365  13.604  0.00  0.00    +0.000 A 
ATOM     20  C   UNL     1      47.782   6.560  13.327  0.00  0.00    +0.000 A 
BRANCH  12  22
ATOM     21  C   UNL     1      49.828   7.496  16.008  0.00  0.00    +0.000 C 
ATOM     22  O   UNL     1      49.554   6.562  14.968  0.00  0.00    +0.000 OA
ENDBRANCH  12  22
ENDBRANCH   8  19
ENDBRANCH   7  10
ENDBRANCH   1   7
BRANCH   4  23
ATOM     23  C   UNL     1      53.057   2.868  17.940  0.00  0.00    +0.000 C 
BRANCH  23  24
ATOM     24  N   UNL     1      53.362   1.969  19.056  0.00  0.00    +0.000 NA
ATOM     25  H   UNL     1      52.893   1.077  18.906  0.00  0.00    +0.000 HD
BRANCH  24  26
ATOM     26  C   UNL     1      54.799   1.744  19.263  0.00  0.00    +0.000 C 
BRANCH  26  27
ATOM     27  C   UNL     1      55.110   0.219  19.329  0.00  0.00    +0.000 C 
ATOM     28  C   UNL     1      54.190  -0.576  18.378  0.00  0.00    +0.000 C 
ATOM     29  C   UNL     1      54.470  -2.075  18.445  0.00  0.00    +0.000 C 
ATOM     30  C   UNL     1      54.447  -2.572  19.886  0.00  0.00    +0.000 C 
ATOM     31  C   UNL     1      55.347  -1.721  20.778  0.00  0.00    +0.000 C 
ATOM     32  N   UNL     1      54.967  -0.305  20.699  0.00  0.00    +0.000 NA
ATOM     33  H   UNL     1      55.558   0.227  21.329  0.00  0.00    +0.000 HD
ENDBRANCH  26  27
ENDBRANCH  24  26
ENDBRANCH  23  24
ENDBRANCH   4  23
TORSDOF 8
ENDMDL
MODEL 9
REMARK VINA RESULT:    -6.086      3.554      7.991
REMARK INTER + INTRA:         -10.401
REMARK INTER:                  -9.135
REMARK INTRA:                  -1.266
REMARK UNBOUND:                -1.470
REMARK  Name = 
REMARK  9 active torsions:
REMARK  status: ('A' for Active; 'I' for Inactive)
REMARK    1  A    between atoms: C_1  and  O_2
REMARK    2  A    between atoms: O_2  and  C_3
REMARK    3  A    between atoms: C_10  and  C_11
REMARK    4  A    between atoms: N_13  and  C_14
REMARK    5  A    between atoms: C_14  and  C_15
REMARK    6  A    between atoms: C_18  and  C_19
REMARK    7  A    between atoms: C_19  and  N_20
REMARK    8  A    between atoms: N_20  and  C_21
REMARK    9  A    between atoms: C_21  and  C_22
REMARK                            x       y       z     vdW  Elec       q    Type
REMARK                         _______ _______ _______ _____ _____    ______ ____
ROOT
ATOM      1  C   UNL     1      48.318   8.820  15.862  0.00  0.00    +0.000 A 
ATOM      2  C   UNL     1      47.889   9.485  17.016  0.00  0.00    +0.000 A 
ATOM      3  C   UNL     1      48.089   8.925  18.286  0.00  0.00    +0.000 A 
ATOM      4  C   UNL     1      48.767   7.707  18.445  0.00  0.00    +0.000 A 
ATOM      5  C   UNL     1      49.303   7.106  17.296  0.00  0.00    +0.000 A 
ATOM      6  C   UNL     1      49.073   7.649  16.021  0.00  0.00    +0.000 A 
ENDROOT
BRANCH   1   7
ATOM      7  C   UNL     1      47.956   9.343  14.488  0.00  0.00    +0.000 C 
BRANCH   7  10
ATOM      8  C   UNL     1      47.062   7.646  12.912  0.00  0.00    +0.000 C 
ATOM      9  O   UNL     1      48.180   7.373  12.479  0.00  0.00    +0.000 OA
ATOM     10  N   UNL     1      46.883   8.595  13.879  0.00  0.00    +0.000 N 
ATOM     11  H   UNL     1      45.954   8.773  14.239  0.00  0.00    +0.000 HD
BRANCH   8  19
ATOM     12  C   UNL     1      45.966   4.380  12.975  0.00  0.00    +0.000 A 
ATOM     13  N   UNL     1      45.291   3.214  12.925  0.00  0.00    +0.000 NA
ATOM     14  C   UNL     1      44.088   3.212  12.349  0.00  0.00    +0.000 A 
ATOM     15  N   UNL     1      43.467   4.247  11.795  0.00  0.00    +0.000 NA
ATOM     16  C   UNL     1      44.170   5.392  11.880  0.00  0.00    +0.000 A 
ATOM     17  S   UNL     1      43.537   6.822  11.223  0.00  0.00    +0.000 S 
ATOM     18  C   UNL     1      44.896   7.716  11.718  0.00  0.00    +0.000 A 
ATOM     19  C   UNL     1      45.849   6.967  12.398  0.00  0.00    +0.000 A 
ATOM     20  C   UNL     1      45.419   5.568  12.467  0.00  0.00    +0.000 A 
BRANCH  12  22
ATOM     21  C   UNL     1      47.138   4.615  14.976  0.00  0.00    +0.000 C 
ATOM     22  O   UNL     1      47.206   4.379  13.573  0.00  0.00    +0.000 OA
ENDBRANCH  12  22
ENDBRANCH   8  19
ENDBRANCH   7  10
ENDBRANCH   1   7
BRANCH   4  23
ATOM     23  C   UNL     1      48.976   7.081  19.817  0.00  0.00    +0.000 C 
BRANCH  23  24
ATOM     24  N   UNL     1      48.066   5.956  20.046  0.00  0.00    +0.000 NA
ATOM     25  H   UNL     1      47.405   5.897  19.273  0.00  0.00    +0.000 HD
BRANCH  24  26
ATOM     26  C   UNL     1      48.746   4.665  20.217  0.00  0.00    +0.000 C 
BRANCH  26  27
ATOM     27  C   UNL     1      49.278   4.142  18.850  0.00  0.00    +0.000 C 
ATOM     28  C   UNL     1      48.419   2.968  18.334  0.00  0.00    +0.000 C 
ATOM     29  C   UNL     1      48.938   2.430  17.003  0.00  0.00    +0.000 C 
ATOM     30  C   UNL     1      50.428   2.117  17.085  0.00  0.00    +0.000 C 
ATOM     31  C   UNL     1      51.213   3.304  17.637  0.00  0.00    +0.000 C 
ATOM     32  N   UNL     1      50.684   3.713  18.944  0.00  0.00    +0.000 NA
ATOM     33  H   UNL     1      51.249   4.477  19.300  0.00  0.00    +0.000 HD
ENDBRANCH  26  27
ENDBRANCH  24  26
ENDBRANCH  23  24
ENDBRANCH   4  23
TORSDOF 8
ENDMDL
