MODEL 1
REMARK VINA RESULT:    -8.304      0.000      0.000
REMARK INTER + INTRA:         -12.505
REMARK INTER:                 -11.945
REMARK INTRA:                  -0.560
REMARK UNBOUND:                -0.560
REMARK  Name = 
REMARK  9 active torsions:
REMARK  status: ('A' for Active; 'I' for Inactive)
REMARK    1  A    between atoms: C_1  and  O_2
REMARK    2  A    between atoms: O_2  and  C_3
REMARK    3  A    between atoms: C_10  and  C_11
REMARK    4  A    between atoms: N_13  and  C_14
REMARK    5  A    between atoms: C_14  and  C_15
REMARK    6  A    between atoms: N_19  and  CA_20
REMARK    7  A    between atoms: CA_20  and  C_21
REMARK    8  A    between atoms: CA_20  and  C_23
REMARK    9  A    between atoms: C_21  and  O_22
REMARK                            x       y       z     vdW  Elec       q    Type
REMARK                         _______ _______ _______ _____ _____    ______ ____
ROOT
ATOM      1  C   UNL     1      47.314   5.574  13.665  0.00  0.00    +0.000 A 
ATOM      2  C   UNL     1      47.300   4.227  14.021  0.00  0.00    +0.000 A 
ATOM      3  C   UNL     1      46.391   3.356  13.412  0.00  0.00    +0.000 A 
ATOM      4  C   UNL     1      45.530   3.822  12.420  0.00  0.00    +0.000 A 
ATOM      5  N   UNL     1      44.592   2.953  11.873  0.00  0.00    +0.000 N 
ATOM      6  N   UNL     1      45.561   5.113  12.039  0.00  0.00    +0.000 NA
ATOM      7  C   UNL     1      46.427   5.954  12.666  0.00  0.00    +0.000 A 
ATOM      8  H   UNL     1      44.713   1.970  12.061  0.00  0.00    +0.000 HD
ENDROOT
BRANCH   1   9
ATOM      9  C   UNL     1      48.259   6.556  14.300  0.00  0.00    +0.000 C 
BRANCH   9  12
ATOM     10  C   UNL     1      48.897   6.153  16.648  0.00  0.00    +0.000 C 
ATOM     11  O   UNL     1      49.923   5.565  16.303  0.00  0.00    +0.000 OA
ATOM     12  N   UNL     1      48.032   6.667  15.721  0.00  0.00    +0.000 N 
ATOM     13  H   UNL     1      47.157   7.074  16.027  0.00  0.00    +0.000 HD
BRANCH  10  21
ATOM     14  C   UNL     1      47.830   8.855  18.491  0.00  0.00    +0.000 A 
ATOM     15  N   UNL     1      47.440   9.733  19.434  0.00  0.00    +0.000 NA
ATOM     16  C   UNL     1      47.341   9.301  20.694  0.00  0.00    +0.000 A 
ATOM     17  N   UNL     1      47.579   8.071  21.139  0.00  0.00    +0.000 NA
ATOM     18  C   UNL     1      47.964   7.224  20.164  0.00  0.00    +0.000 A 
ATOM     19  S   UNL     1      48.298   5.606  20.548  0.00  0.00    +0.000 S 
ATOM     20  C   UNL     1      48.678   5.250  18.931  0.00  0.00    +0.000 A 
ATOM     21  C   UNL     1      48.558   6.339  18.073  0.00  0.00    +0.000 A 
ATOM     22  C   UNL     1      48.114   7.516  18.817  0.00  0.00    +0.000 A 
BRANCH  14  24
ATOM     23  C   UNL     1      49.095   9.942  16.848  0.00  0.00    +0.000 C 
ATOM     24  O   UNL     1      47.876   9.284  17.182  0.00  0.00    +0.000 OA
ENDBRANCH  14  24
ENDBRANCH  10  21
ENDBRANCH   9  12
ENDBRANCH   1   9
BRANCH   5  25
ATOM     25  CA  UNL     1      43.941   3.296  10.601  0.00  0.00    +0.000 C 
BRANCH  25  26
ATOM     26  C   UNL     1      44.931   3.144   9.440  0.00  0.00    +0.000 A 
ATOM     27  C   UNL     1      45.303   4.224   8.617  0.00  0.00    +0.000 A 
ATOM     28  C   UNL     1      46.130   4.037   7.505  0.00  0.00    +0.000 A 
ATOM     29  C   UNL     1      46.598   2.764   7.189  0.00  0.00    +0.000 A 
ATOM     30  C   UNL     1      46.247   1.686   7.995  0.00  0.00    +0.000 A 
ATOM     31 CL   UNL     1      46.801   0.107   7.591  0.00  0.00    +0.000 Cl
ATOM     32  C   UNL     1      45.428   1.868   9.113  0.00  0.00    +0.000 A 
ENDBRANCH  25  26
BRANCH  25  33
ATOM     33  C   UNL     1      43.350   4.733  10.610  0.00  0.00    +0.000 C 
BRANCH  33  34
ATOM     34  O   UNL     1      42.387   4.935  11.653  0.00  0.00    +0.000 OA
ATOM     35  H   UNL     1      42.439   4.139  12.209  0.00  0.00    +0.000 HD
ENDBRANCH  33  34
ENDBRANCH  25  33
ENDBRANCH   5  25
TORSDOF 8
ENDMDL
MODEL 2
REMARK VINA RESULT:    -8.302      1.886      2.971
REMARK INTER + INTRA:         -12.502
REMARK INTER:                 -11.314
REMARK INTRA:                  -1.188
REMARK UNBOUND:                -0.560
REMARK  Name = 
REMARK  9 active torsions:
REMARK  status: ('A' for Active; 'I' for Inactive)
REMARK    1  A    between atoms: C_1  and  O_2
REMARK    2  A    between atoms: O_2  and  C_3
REMARK    3  A    between atoms: C_10  and  C_11
REMARK    4  A    between atoms: N_13  and  C_14
REMARK    5  A    between atoms: C_14  and  C_15
REMARK    6  A    between atoms: N_19  and  CA_20
REMARK    7  A    between atoms: CA_20  and  C_21
REMARK    8  A    between atoms: CA_20  and  C_23
REMARK    9  A    between atoms: C_21  and  O_22
REMARK                            x       y       z     vdW  Elec       q    Type
REMARK                         _______ _______ _______ _____ _____    ______ ____
ROOT
ATOM      1  C   UNL     1      46.577   8.035  12.868  0.00  0.00    +0.000 A 
ATOM      2  C   UNL     1      45.291   8.352  12.434  0.00  0.00    +0.000 A 
ATOM      3  C   UNL     1      44.547   7.412  11.714  0.00  0.00    +0.000 A 
ATOM      4  C   UNL     1      45.071   6.144  11.467  0.00  0.00    +0.000 A 
ATOM      5  N   UNL     1      44.342   5.246  10.696  0.00  0.00    +0.000 N 
ATOM      6  N   UNL     1      46.297   5.812  11.915  0.00  0.00    +0.000 NA
ATOM      7  C   UNL     1      47.020   6.751  12.584  0.00  0.00    +0.000 A 
ATOM      8  H   UNL     1      43.373   5.470  10.525  0.00  0.00    +0.000 HD
ENDROOT
BRANCH   1   9
ATOM      9  C   UNL     1      47.424   9.015  13.631  0.00  0.00    +0.000 C 
BRANCH   9  12
ATOM     10  C   UNL     1      48.742   8.088  15.497  0.00  0.00    +0.000 C 
ATOM     11  O   UNL     1      49.720   7.923  14.768  0.00  0.00    +0.000 OA
ATOM     12  N   UNL     1      47.580   8.619  15.010  0.00  0.00    +0.000 N 
ATOM     13  H   UNL     1      46.764   8.670  15.608  0.00  0.00    +0.000 HD
BRANCH  10  21
ATOM     14  C   UNL     1      48.473   5.109  17.198  0.00  0.00    +0.000 A 
ATOM     15  N   UNL     1      48.375   4.111  18.095  0.00  0.00    +0.000 NA
ATOM     16  C   UNL     1      48.441   4.422  19.393  0.00  0.00    +0.000 A 
ATOM     17  N   UNL     1      48.605   5.632  19.918  0.00  0.00    +0.000 NA
ATOM     18  C   UNL     1      48.701   6.601  18.986  0.00  0.00    +0.000 A 
ATOM     19  S   UNL     1      48.926   8.210  19.475  0.00  0.00    +0.000 S 
ATOM     20  C   UNL     1      48.941   8.748  17.864  0.00  0.00    +0.000 A 
ATOM     21  C   UNL     1      48.780   7.730  16.929  0.00  0.00    +0.000 A 
ATOM     22  C   UNL     1      48.653   6.443  17.609  0.00  0.00    +0.000 A 
BRANCH  14  24
ATOM     23  C   UNL     1      47.182   4.380  15.386  0.00  0.00    +0.000 C 
ATOM     24  O   UNL     1      48.465   4.783  15.858  0.00  0.00    +0.000 OA
ENDBRANCH  14  24
ENDBRANCH  10  21
ENDBRANCH   9  12
ENDBRANCH   1   9
BRANCH   5  25
ATOM     25  CA  UNL     1      44.683   3.818  10.728  0.00  0.00    +0.000 C 
BRANCH  25  26
ATOM     26  C   UNL     1      45.416   3.417   9.444  0.00  0.00    +0.000 A 
ATOM     27  C   UNL     1      45.740   4.347   8.437  0.00  0.00    +0.000 A 
ATOM     28  C   UNL     1      46.320   3.939   7.232  0.00  0.00    +0.000 A 
ATOM     29  C   UNL     1      46.583   2.590   7.005  0.00  0.00    +0.000 A 
ATOM     30  C   UNL     1      46.276   1.658   7.991  0.00  0.00    +0.000 A 
ATOM     31 CL   UNL     1      46.574  -0.013   7.702  0.00  0.00    +0.000 Cl
ATOM     32  C   UNL     1      45.705   2.061   9.201  0.00  0.00    +0.000 A 
ENDBRANCH  25  26
BRANCH  25  33
ATOM     33  C   UNL     1      43.432   2.918  10.930  0.00  0.00    +0.000 C 
BRANCH  33  34
ATOM     34  O   UNL     1      43.443   2.214  12.179  0.00  0.00    +0.000 OA
ATOM     35  H   UNL     1      42.937   1.400  12.021  0.00  0.00    +0.000 HD
ENDBRANCH  33  34
ENDBRANCH  25  33
ENDBRANCH   5  25
TORSDOF 8
ENDMDL
MODEL 3
REMARK VINA RESULT:    -8.230      2.569      3.938
REMARK INTER + INTRA:         -12.399
REMARK INTER:                 -12.113
REMARK INTRA:                  -0.285
REMARK UNBOUND:                -0.560
REMARK  Name = 
REMARK  9 active torsions:
REMARK  status: ('A' for Active; 'I' for Inactive)
REMARK    1  A    between atoms: C_1  and  O_2
REMARK    2  A    between atoms: O_2  and  C_3
REMARK    3  A    between atoms: C_10  and  C_11
REMARK    4  A    between atoms: N_13  and  C_14
REMARK    5  A    between atoms: C_14  and  C_15
REMARK    6  A    between atoms: N_19  and  CA_20
REMARK    7  A    between atoms: CA_20  and  C_21
REMARK    8  A    between atoms: CA_20  and  C_23
REMARK    9  A    between atoms: C_21  and  O_22
REMARK                            x       y       z     vdW  Elec       q    Type
REMARK                         _______ _______ _______ _____ _____    ______ ____
ROOT
ATOM      1  C   UNL     1      47.063   5.533  14.014  0.00  0.00    +0.000 A 
ATOM      2  C   UNL     1      47.161   4.157  14.213  0.00  0.00    +0.000 A 
ATOM      3  C   UNL     1      46.352   3.288  13.473  0.00  0.00    +0.000 A 
ATOM      4  C   UNL     1      45.482   3.790  12.508  0.00  0.00    +0.000 A 
ATOM      5  N   UNL     1      44.644   2.914  11.828  0.00  0.00    +0.000 N 
ATOM      6  N   UNL     1      45.408   5.115  12.277  0.00  0.00    +0.000 NA
ATOM      7  C   UNL     1      46.176   5.948  13.030  0.00  0.00    +0.000 A 
ATOM      8  H   UNL     1      44.847   1.930  11.908  0.00  0.00    +0.000 HD
ENDROOT
BRANCH   1   9
ATOM      9  C   UNL     1      47.897   6.511  14.793  0.00  0.00    +0.000 C 
BRANCH   9  12
ATOM     10  C   UNL     1      49.340   5.972  16.718  0.00  0.00    +0.000 C 
ATOM     11  O   UNL     1      48.623   6.618  17.481  0.00  0.00    +0.000 OA
ATOM     12  N   UNL     1      49.048   5.874  15.386  0.00  0.00    +0.000 N 
ATOM     13  H   UNL     1      49.696   5.405  14.765  0.00  0.00    +0.000 HD
BRANCH  10  21
ATOM     14  C   UNL     1      50.162   2.646  17.040  0.00  0.00    +0.000 A 
ATOM     15  N   UNL     1      50.720   1.447  17.292  0.00  0.00    +0.000 NA
ATOM     16  C   UNL     1      51.939   1.422  17.838  0.00  0.00    +0.000 A 
ATOM     17  N   UNL     1      52.691   2.468  18.163  0.00  0.00    +0.000 NA
ATOM     18  C   UNL     1      52.097   3.647  17.894  0.00  0.00    +0.000 A 
ATOM     19  S   UNL     1      52.918   5.092  18.233  0.00  0.00    +0.000 S 
ATOM     20  C   UNL     1      51.616   6.023  17.664  0.00  0.00    +0.000 A 
ATOM     21  C   UNL     1      50.542   5.266  17.205  0.00  0.00    +0.000 A 
ATOM     22  C   UNL     1      50.844   3.842  17.331  0.00  0.00    +0.000 A 
BRANCH  14  24
ATOM     23  C   UNL     1      47.841   2.725  17.342  0.00  0.00    +0.000 C 
ATOM     24  O   UNL     1      48.929   2.674  16.423  0.00  0.00    +0.000 OA
ENDBRANCH  14  24
ENDBRANCH  10  21
ENDBRANCH   9  12
ENDBRANCH   1   9
BRANCH   5  25
ATOM     25  CA  UNL     1      44.002   3.346  10.578  0.00  0.00    +0.000 C 
BRANCH  25  26
ATOM     26  C   UNL     1      44.981   3.213   9.406  0.00  0.00    +0.000 A 
ATOM     27  C   UNL     1      45.338   4.305   8.592  0.00  0.00    +0.000 A 
ATOM     28  C   UNL     1      46.156   4.136   7.470  0.00  0.00    +0.000 A 
ATOM     29  C   UNL     1      46.627   2.869   7.134  0.00  0.00    +0.000 A 
ATOM     30  C   UNL     1      46.290   1.779   7.931  0.00  0.00    +0.000 A 
ATOM     31 CL   UNL     1      46.848   0.208   7.502  0.00  0.00    +0.000 Cl
ATOM     32  C   UNL     1      45.482   1.943   9.059  0.00  0.00    +0.000 A 
ENDBRANCH  25  26
BRANCH  25  33
ATOM     33  C   UNL     1      43.469   4.803  10.663  0.00  0.00    +0.000 C 
BRANCH  33  34
ATOM     34  O   UNL     1      42.324   4.931  11.518  0.00  0.00    +0.000 OA
ATOM     35  H   UNL     1      42.610   4.591  12.383  0.00  0.00    +0.000 HD
ENDBRANCH  33  34
ENDBRANCH  25  33
ENDBRANCH   5  25
TORSDOF 8
ENDMDL
MODEL 4
REMARK VINA RESULT:    -7.660      3.038      4.549
REMARK INTER + INTRA:         -11.578
REMARK INTER:                 -10.392
REMARK INTRA:                  -1.186
REMARK UNBOUND:                -0.560
REMARK  Name = 
REMARK  9 active torsions:
REMARK  status: ('A' for Active; 'I' for Inactive)
REMARK    1  A    between atoms: C_1  and  O_2
REMARK    2  A    between atoms: O_2  and  C_3
REMARK    3  A    between atoms: C_10  and  C_11
REMARK    4  A    between atoms: N_13  and  C_14
REMARK    5  A    between atoms: C_14  and  C_15
REMARK    6  A    between atoms: N_19  and  CA_20
REMARK    7  A    between atoms: CA_20  and  C_21
REMARK    8  A    between atoms: CA_20  and  C_23
REMARK    9  A    between atoms: C_21  and  O_22
REMARK                            x       y       z     vdW  Elec       q    Type
REMARK                         _______ _______ _______ _____ _____    ______ ____
ROOT
ATOM      1  C   UNL     1      48.766   7.413  14.272  0.00  0.00    +0.000 A 
ATOM      2  C   UNL     1      48.774   8.123  13.074  0.00  0.00    +0.000 A 
ATOM      3  C   UNL     1      47.932   7.732  12.027  0.00  0.00    +0.000 A 
ATOM      4  C   UNL     1      47.055   6.662  12.195  0.00  0.00    +0.000 A 
ATOM      5  N   UNL     1      46.272   6.251  11.122  0.00  0.00    +0.000 N 
ATOM      6  N   UNL     1      47.009   5.993  13.363  0.00  0.00    +0.000 NA
ATOM      7  C   UNL     1      47.859   6.365  14.358  0.00  0.00    +0.000 A 
ATOM      8  H   UNL     1      46.215   6.874  10.332  0.00  0.00    +0.000 HD
ENDROOT
BRANCH   1   9
ATOM      9  C   UNL     1      49.661   7.781  15.422  0.00  0.00    +0.000 C 
BRANCH   9  12
ATOM     10  C   UNL     1      50.813   6.461  17.157  0.00  0.00    +0.000 C 
ATOM     11  O   UNL     1      50.452   7.240  18.038  0.00  0.00    +0.000 OA
ATOM     12  N   UNL     1      50.463   6.660  15.850  0.00  0.00    +0.000 N 
ATOM     13  H   UNL     1      50.839   6.052  15.133  0.00  0.00    +0.000 HD
BRANCH  10  21
ATOM     14  C   UNL     1      50.200   3.077  17.048  0.00  0.00    +0.000 A 
ATOM     15  N   UNL     1      50.221   1.733  17.123  0.00  0.00    +0.000 NA
ATOM     16  C   UNL     1      51.336   1.144  17.566  0.00  0.00    +0.000 A 
ATOM     17  N   UNL     1      52.460   1.743  17.944  0.00  0.00    +0.000 NA
ATOM     18  C   UNL     1      52.398   3.086  17.853  0.00  0.00    +0.000 A 
ATOM     19  S   UNL     1      53.750   4.016  18.284  0.00  0.00    +0.000 S 
ATOM     20  C   UNL     1      52.932   5.460  17.922  0.00  0.00    +0.000 A 
ATOM     21  C   UNL     1      51.630   5.271  17.469  0.00  0.00    +0.000 A 
ATOM     22  C   UNL     1      51.322   3.843  17.414  0.00  0.00    +0.000 A 
BRANCH  14  24
ATOM     23  C   UNL     1      47.860   3.151  17.061  0.00  0.00    +0.000 C 
ATOM     24  O   UNL     1      49.073   3.683  16.536  0.00  0.00    +0.000 OA
ENDBRANCH  14  24
ENDBRANCH  10  21
ENDBRANCH   9  12
ENDBRANCH   1   9
BRANCH   5  25
ATOM     25  CA  UNL     1      45.102   5.396  11.363  0.00  0.00    +0.000 C 
BRANCH  25  26
ATOM     26  C   UNL     1      45.000   4.318  10.280  0.00  0.00    +0.000 A 
ATOM     27  C   UNL     1      44.334   3.095  10.491  0.00  0.00    +0.000 A 
ATOM     28  C   UNL     1      44.341   2.089   9.519  0.00  0.00    +0.000 A 
ATOM     29  C   UNL     1      45.019   2.282   8.318  0.00  0.00    +0.000 A 
ATOM     30  C   UNL     1      45.676   3.487   8.089  0.00  0.00    +0.000 A 
ATOM     31 CL   UNL     1      46.539   3.718   6.617  0.00  0.00    +0.000 Cl
ATOM     32  C   UNL     1      45.665   4.500   9.052  0.00  0.00    +0.000 A 
ENDBRANCH  25  26
BRANCH  25  33
ATOM     33  C   UNL     1      43.781   6.212  11.429  0.00  0.00    +0.000 C 
BRANCH  33  34
ATOM     34  O   UNL     1      42.942   5.832  12.528  0.00  0.00    +0.000 OA
ATOM     35  H   UNL     1      43.548   5.498  13.211  0.00  0.00    +0.000 HD
ENDBRANCH  33  34
ENDBRANCH  25  33
ENDBRANCH   5  25
TORSDOF 8
ENDMDL
MODEL 5
REMARK VINA RESULT:    -7.628      2.518      3.403
REMARK INTER + INTRA:         -11.532
REMARK INTER:                 -10.297
REMARK INTRA:                  -1.235
REMARK UNBOUND:                -0.560
REMARK  Name = 
REMARK  9 active torsions:
REMARK  status: ('A' for Active; 'I' for Inactive)
REMARK    1  A    between atoms: C_1  and  O_2
REMARK    2  A    between atoms: O_2  and  C_3
REMARK    3  A    between atoms: C_10  and  C_11
REMARK    4  A    between atoms: N_13  and  C_14
REMARK    5  A    between atoms: C_14  and  C_15
REMARK    6  A    between atoms: N_19  and  CA_20
REMARK    7  A    between atoms: CA_20  and  C_21
REMARK    8  A    between atoms: CA_20  and  C_23
REMARK    9  A    between atoms: C_21  and  O_22
REMARK                            x       y       z     vdW  Elec       q    Type
REMARK                         _______ _______ _______ _____ _____    ______ ____
ROOT
ATOM      1  C   UNL     1      47.997   7.972  13.142  0.00  0.00    +0.000 A 
ATOM      2  C   UNL     1      47.152   8.833  12.445  0.00  0.00    +0.000 A 
ATOM      3  C   UNL     1      46.049   8.319  11.755  0.00  0.00    +0.000 A 
ATOM      4  C   UNL     1      45.768   6.954  11.800  0.00  0.00    +0.000 A 
ATOM      5  N   UNL     1      44.704   6.456  11.058  0.00  0.00    +0.000 N 
ATOM      6  N   UNL     1      46.555   6.117  12.503  0.00  0.00    +0.000 NA
ATOM      7  C   UNL     1      47.643   6.630  13.139  0.00  0.00    +0.000 A 
ATOM      8  H   UNL     1      44.049   7.127  10.687  0.00  0.00    +0.000 HD
ENDROOT
BRANCH   1   9
ATOM      9  C   UNL     1      49.205   8.471  13.885  0.00  0.00    +0.000 C 
BRANCH   9  12
ATOM     10  C   UNL     1      50.444   7.409  15.733  0.00  0.00    +0.000 C 
ATOM     11  O   UNL     1      51.490   7.423  15.085  0.00  0.00    +0.000 OA
ATOM     12  N   UNL     1      49.282   7.906  15.211  0.00  0.00    +0.000 N 
ATOM     13  H   UNL     1      48.419   7.809  15.731  0.00  0.00    +0.000 HD
BRANCH  10  21
ATOM     14  C   UNL     1      48.734   4.799  17.183  0.00  0.00    +0.000 A 
ATOM     15  N   UNL     1      48.180   3.877  17.993  0.00  0.00    +0.000 NA
ATOM     16  C   UNL     1      48.509   3.897  19.287  0.00  0.00    +0.000 A 
ATOM     17  N   UNL     1      49.348   4.736  19.886  0.00  0.00    +0.000 NA
ATOM     18  C   UNL     1      49.880   5.640  19.041  0.00  0.00    +0.000 A 
ATOM     19  S   UNL     1      50.985   6.785  19.631  0.00  0.00    +0.000 S 
ATOM     20  C   UNL     1      51.160   7.480  18.091  0.00  0.00    +0.000 A 
ATOM     21  C   UNL     1      50.396   6.864  17.105  0.00  0.00    +0.000 A 
ATOM     22  C   UNL     1      49.643   5.751  17.679  0.00  0.00    +0.000 A 
BRANCH  14  24
ATOM     23  C   UNL     1      47.241   4.030  15.551  0.00  0.00    +0.000 C 
ATOM     24  O   UNL     1      48.441   4.743  15.837  0.00  0.00    +0.000 OA
ENDBRANCH  14  24
ENDBRANCH  10  21
ENDBRANCH   9  12
ENDBRANCH   1   9
BRANCH   5  25
ATOM     25  CA  UNL     1      44.164   5.124  11.367  0.00  0.00    +0.000 C 
BRANCH  25  26
ATOM     26  C   UNL     1      44.518   4.136  10.250  0.00  0.00    +0.000 A 
ATOM     27  C   UNL     1      44.135   2.781  10.290  0.00  0.00    +0.000 A 
ATOM     28  C   UNL     1      44.555   1.880   9.307  0.00  0.00    +0.000 A 
ATOM     29  C   UNL     1      45.373   2.312   8.266  0.00  0.00    +0.000 A 
ATOM     30  C   UNL     1      45.756   3.649   8.206  0.00  0.00    +0.000 A 
ATOM     31 CL   UNL     1      46.790   4.181   6.937  0.00  0.00    +0.000 Cl
ATOM     32  C   UNL     1      45.331   4.557   9.180  0.00  0.00    +0.000 A 
ENDBRANCH  25  26
BRANCH  25  33
ATOM     33  C   UNL     1      42.626   5.149  11.588  0.00  0.00    +0.000 C 
BRANCH  33  34
ATOM     34  O   UNL     1      42.104   6.475  11.747  0.00  0.00    +0.000 OA
ATOM     35  H   UNL     1      42.572   7.016  11.089  0.00  0.00    +0.000 HD
ENDBRANCH  33  34
ENDBRANCH  25  33
ENDBRANCH   5  25
TORSDOF 8
ENDMDL
MODEL 6
REMARK VINA RESULT:    -7.239      2.721      3.545
REMARK INTER + INTRA:         -10.973
REMARK INTER:                 -10.751
REMARK INTRA:                  -0.222
REMARK UNBOUND:                -0.560
REMARK  Name = 
REMARK  9 active torsions:
REMARK  status: ('A' for Active; 'I' for Inactive)
REMARK    1  A    between atoms: C_1  and  O_2
REMARK    2  A    between atoms: O_2  and  C_3
REMARK    3  A    between atoms: C_10  and  C_11
REMARK    4  A    between atoms: N_13  and  C_14
REMARK    5  A    between atoms: C_14  and  C_15
REMARK    6  A    between atoms: N_19  and  CA_20
REMARK    7  A    between atoms: CA_20  and  C_21
REMARK    8  A    between atoms: CA_20  and  C_23
REMARK    9  A    between atoms: C_21  and  O_22
REMARK                            x       y       z     vdW  Elec       q    Type
REMARK                         _______ _______ _______ _____ _____    ______ ____
ROOT
ATOM      1  C   UNL     1      46.891   7.018  13.248  0.00  0.00    +0.000 A 
ATOM      2  C   UNL     1      47.304   5.780  13.734  0.00  0.00    +0.000 A 
ATOM      3  C   UNL     1      46.661   4.613  13.305  0.00  0.00    +0.000 A 
ATOM      4  C   UNL     1      45.639   4.684  12.361  0.00  0.00    +0.000 A 
ATOM      5  N   UNL     1      44.971   3.520  11.995  0.00  0.00    +0.000 N 
ATOM      6  N   UNL     1      45.257   5.871  11.853  0.00  0.00    +0.000 NA
ATOM      7  C   UNL     1      45.870   6.998  12.307  0.00  0.00    +0.000 A 
ATOM      8  H   UNL     1      45.393   2.645  12.267  0.00  0.00    +0.000 HD
ENDROOT
BRANCH   1   9
ATOM      9  C   UNL     1      47.537   8.302  13.688  0.00  0.00    +0.000 C 
BRANCH   9  12
ATOM     10  C   UNL     1      49.976   7.988  13.876  0.00  0.00    +0.000 C 
ATOM     11  O   UNL     1      50.122   8.134  12.663  0.00  0.00    +0.000 OA
ATOM     12  N   UNL     1      48.737   8.057  14.452  0.00  0.00    +0.000 N 
ATOM     13  H   UNL     1      48.632   7.854  15.438  0.00  0.00    +0.000 HD
BRANCH  10  21
ATOM     14  C   UNL     1      50.426   6.033  16.671  0.00  0.00    +0.000 A 
ATOM     15  N   UNL     1      50.860   5.392  17.773  0.00  0.00    +0.000 NA
ATOM     16  C   UNL     1      52.114   5.613  18.177  0.00  0.00    +0.000 A 
ATOM     17  N   UNL     1      53.012   6.404  17.599  0.00  0.00    +0.000 NA
ATOM     18  C   UNL     1      52.539   7.024  16.501  0.00  0.00    +0.000 A 
ATOM     19  S   UNL     1      53.554   8.065  15.627  0.00  0.00    +0.000 S 
ATOM     20  C   UNL     1      52.322   8.405  14.507  0.00  0.00    +0.000 A 
ATOM     21  C   UNL     1      51.127   7.741  14.767  0.00  0.00    +0.000 A 
ATOM     22  C   UNL     1      51.270   6.901  15.955  0.00  0.00    +0.000 A 
BRANCH  14  24
ATOM     23  C   UNL     1      48.367   5.030  17.158  0.00  0.00    +0.000 C 
ATOM     24  O   UNL     1      49.152   5.762  16.220  0.00  0.00    +0.000 OA
ENDBRANCH  14  24
ENDBRANCH  10  21
ENDBRANCH   9  12
ENDBRANCH   1   9
BRANCH   5  25
ATOM     25  CA  UNL     1      44.169   3.500  10.764  0.00  0.00    +0.000 C 
BRANCH  25  26
ATOM     26  C   UNL     1      45.073   3.299   9.544  0.00  0.00    +0.000 A 
ATOM     27  C   UNL     1      45.427   4.356   8.683  0.00  0.00    +0.000 A 
ATOM     28  C   UNL     1      46.172   4.127   7.522  0.00  0.00    +0.000 A 
ATOM     29  C   UNL     1      46.574   2.834   7.193  0.00  0.00    +0.000 A 
ATOM     30  C   UNL     1      46.239   1.779   8.036  0.00  0.00    +0.000 A 
ATOM     31 CL   UNL     1      46.710   0.177   7.618  0.00  0.00    +0.000 Cl
ATOM     32  C   UNL     1      45.503   2.003   9.202  0.00  0.00    +0.000 A 
ENDBRANCH  25  26
BRANCH  25  33
ATOM     33  C   UNL     1      43.322   4.792  10.593  0.00  0.00    +0.000 C 
BRANCH  33  34
ATOM     34  O   UNL     1      42.286   4.917  11.576  0.00  0.00    +0.000 OA
ATOM     35  H   UNL     1      42.406   4.160  12.174  0.00  0.00    +0.000 HD
ENDBRANCH  33  34
ENDBRANCH  25  33
ENDBRANCH   5  25
TORSDOF 8
ENDMDL
MODEL 7
REMARK VINA RESULT:    -7.175      3.836      5.225
REMARK INTER + INTRA:         -10.882
REMARK INTER:                 -10.601
REMARK INTRA:                  -0.280
REMARK UNBOUND:                -0.560
REMARK  Name = 
REMARK  9 active torsions:
REMARK  status: ('A' for Active; 'I' for Inactive)
REMARK    1  A    between atoms: C_1  and  O_2
REMARK    2  A    between atoms: O_2  and  C_3
REMARK    3  A    between atoms: C_10  and  C_11
REMARK    4  A    between atoms: N_13  and  C_14
REMARK    5  A    between atoms: C_14  and  C_15
REMARK    6  A    between atoms: N_19  and  CA_20
REMARK    7  A    between atoms: CA_20  and  C_21
REMARK    8  A    between atoms: CA_20  and  C_23
REMARK    9  A    between atoms: C_21  and  O_22
REMARK                            x       y       z     vdW  Elec       q    Type
REMARK                         _______ _______ _______ _____ _____    ______ ____
ROOT
ATOM      1  C   UNL     1      47.219   5.646  13.716  0.00  0.00    +0.000 A 
ATOM      2  C   UNL     1      47.231   4.297  14.066  0.00  0.00    +0.000 A 
ATOM      3  C   UNL     1      46.348   3.408  13.443  0.00  0.00    +0.000 A 
ATOM      4  C   UNL     1      45.489   3.859  12.443  0.00  0.00    +0.000 A 
ATOM      5  N   UNL     1      44.577   2.973  11.881  0.00  0.00    +0.000 N 
ATOM      6  N   UNL     1      45.496   5.152  12.068  0.00  0.00    +0.000 NA
ATOM      7  C   UNL     1      46.336   6.009  12.708  0.00  0.00    +0.000 A 
ATOM      8  H   UNL     1      44.717   1.992  12.067  0.00  0.00    +0.000 HD
ENDROOT
BRANCH   1   9
ATOM      9  C   UNL     1      48.135   6.645  14.366  0.00  0.00    +0.000 C 
BRANCH   9  12
ATOM     10  C   UNL     1      49.894   8.148  13.513  0.00  0.00    +0.000 C 
ATOM     11  O   UNL     1      49.478   9.080  14.202  0.00  0.00    +0.000 OA
ATOM     12  N   UNL     1      49.286   6.923  13.541  0.00  0.00    +0.000 N 
ATOM     13  H   UNL     1      49.596   6.197  12.907  0.00  0.00    +0.000 HD
BRANCH  10  21
ATOM     14  C   UNL     1      53.249   8.621  14.114  0.00  0.00    +0.000 A 
ATOM     15  N   UNL     1      54.577   8.832  14.064  0.00  0.00    +0.000 NA
ATOM     16  C   UNL     1      55.152   8.949  12.864  0.00  0.00    +0.000 A 
ATOM     17  N   UNL     1      54.553   8.869  11.680  0.00  0.00    +0.000 NA
ATOM     18  C   UNL     1      53.226   8.656  11.774  0.00  0.00    +0.000 A 
ATOM     19  S   UNL     1      52.300   8.515  10.360  0.00  0.00    +0.000 S 
ATOM     20  C   UNL     1      50.876   8.284  11.257  0.00  0.00    +0.000 A 
ATOM     21  C   UNL     1      51.070   8.305  12.634  0.00  0.00    +0.000 A 
ATOM     22  C   UNL     1      52.484   8.513  12.938  0.00  0.00    +0.000 A 
BRANCH  14  24
ATOM     23  C   UNL     1      52.724   7.095  15.811  0.00  0.00    +0.000 C 
ATOM     24  O   UNL     1      52.663   8.442  15.350  0.00  0.00    +0.000 OA
ENDBRANCH  14  24
ENDBRANCH  10  21
ENDBRANCH   9  12
ENDBRANCH   1   9
BRANCH   5  25
ATOM     25  CA  UNL     1      43.933   3.307  10.603  0.00  0.00    +0.000 C 
BRANCH  25  26
ATOM     26  C   UNL     1      44.938   3.175   9.453  0.00  0.00    +0.000 A 
ATOM     27  C   UNL     1      45.333   4.274   8.665  0.00  0.00    +0.000 A 
ATOM     28  C   UNL     1      46.174   4.109   7.561  0.00  0.00    +0.000 A 
ATOM     29  C   UNL     1      46.633   2.840   7.216  0.00  0.00    +0.000 A 
ATOM     30  C   UNL     1      46.260   1.744   7.987  0.00  0.00    +0.000 A 
ATOM     31 CL   UNL     1      46.803   0.170   7.548  0.00  0.00    +0.000 Cl
ATOM     32  C   UNL     1      45.427   1.904   9.098  0.00  0.00    +0.000 A 
ENDBRANCH  25  26
BRANCH  25  33
ATOM     33  C   UNL     1      43.315   4.732  10.610  0.00  0.00    +0.000 C 
BRANCH  33  34
ATOM     34  O   UNL     1      42.360   4.924  11.662  0.00  0.00    +0.000 OA
ATOM     35  H   UNL     1      41.915   5.763  11.457  0.00  0.00    +0.000 HD
ENDBRANCH  33  34
ENDBRANCH  25  33
ENDBRANCH   5  25
TORSDOF 8
ENDMDL
MODEL 8
REMARK VINA RESULT:    -6.826      4.352      9.070
REMARK INTER + INTRA:         -10.379
REMARK INTER:                  -9.083
REMARK INTRA:                  -1.296
REMARK UNBOUND:                -0.560
REMARK  Name = 
REMARK  9 active torsions:
REMARK  status: ('A' for Active; 'I' for Inactive)
REMARK    1  A    between atoms: C_1  and  O_2
REMARK    2  A    between atoms: O_2  and  C_3
REMARK    3  A    between atoms: C_10  and  C_11
REMARK    4  A    between atoms: N_13  and  C_14
REMARK    5  A    between atoms: C_14  and  C_15
REMARK    6  A    between atoms: N_19  and  CA_20
REMARK    7  A    between atoms: CA_20  and  C_21
REMARK    8  A    between atoms: CA_20  and  C_23
REMARK    9  A    between atoms: C_21  and  O_22
REMARK                            x       y       z     vdW  Elec       q    Type
REMARK                         _______ _______ _______ _____ _____    ______ ____
ROOT
ATOM      1  C   UNL     1      48.838   8.126  15.352  0.00  0.00    +0.000 A 
ATOM      2  C   UNL     1      48.489   8.221  16.697  0.00  0.00    +0.000 A 
ATOM      3  C   UNL     1      49.179   7.466  17.652  0.00  0.00    +0.000 A 
ATOM      4  C   UNL     1      50.244   6.653  17.266  0.00  0.00    +0.000 A 
ATOM      5  N   UNL     1      50.876   5.865  18.220  0.00  0.00    +0.000 N 
ATOM      6  N   UNL     1      50.617   6.583  15.974  0.00  0.00    +0.000 NA
ATOM      7  C   UNL     1      49.912   7.297  15.055  0.00  0.00    +0.000 A 
ATOM      8  H   UNL     1      50.680   6.071  19.188  0.00  0.00    +0.000 HD
ENDROOT
BRANCH   1   9
ATOM      9  C   UNL     1      48.118   8.902  14.285  0.00  0.00    +0.000 C 
BRANCH   9  12
ATOM     10  C   UNL     1      47.008   7.370  12.703  0.00  0.00    +0.000 C 
ATOM     11  O   UNL     1      48.054   7.205  12.076  0.00  0.00    +0.000 OA
ATOM     12  N   UNL     1      46.962   8.188  13.798  0.00  0.00    +0.000 N 
ATOM     13  H   UNL     1      46.074   8.372  14.249  0.00  0.00    +0.000 HD
BRANCH  10  21
ATOM     14  C   UNL     1      45.922   4.113  12.924  0.00  0.00    +0.000 A 
ATOM     15  N   UNL     1      45.271   2.937  12.863  0.00  0.00    +0.000 NA
ATOM     16  C   UNL     1      44.061   2.914  12.296  0.00  0.00    +0.000 A 
ATOM     17  N   UNL     1      43.402   3.946  11.779  0.00  0.00    +0.000 NA
ATOM     18  C   UNL     1      44.086   5.103  11.862  0.00  0.00    +0.000 A 
ATOM     19  S   UNL     1      43.391   6.529  11.262  0.00  0.00    +0.000 S 
ATOM     20  C   UNL     1      44.757   7.438  11.702  0.00  0.00    +0.000 A 
ATOM     21  C   UNL     1      45.759   6.689  12.310  0.00  0.00    +0.000 A 
ATOM     22  C   UNL     1      45.343   5.292  12.417  0.00  0.00    +0.000 A 
BRANCH  14  24
ATOM     23  C   UNL     1      47.045   4.428  14.954  0.00  0.00    +0.000 C 
ATOM     24  O   UNL     1      47.144   4.149  13.560  0.00  0.00    +0.000 OA
ENDBRANCH  14  24
ENDBRANCH  10  21
ENDBRANCH   9  12
ENDBRANCH   1   9
BRANCH   5  25
ATOM     25  CA  UNL     1      52.200   5.298  17.932  0.00  0.00    +0.000 C 
BRANCH  25  26
ATOM     26  C   UNL     1      52.102   3.778  17.761  0.00  0.00    +0.000 A 
ATOM     27  C   UNL     1      50.905   3.135  17.392  0.00  0.00    +0.000 A 
ATOM     28  C   UNL     1      50.817   1.740  17.340  0.00  0.00    +0.000 A 
ATOM     29  C   UNL     1      51.924   0.958  17.662  0.00  0.00    +0.000 A 
ATOM     30  C   UNL     1      53.117   1.577  18.022  0.00  0.00    +0.000 A 
ATOM     31 CL   UNL     1      54.479   0.613  18.447  0.00  0.00    +0.000 Cl
ATOM     32  C   UNL     1      53.214   2.970  18.066  0.00  0.00    +0.000 A 
ENDBRANCH  25  26
BRANCH  25  33
ATOM     33  C   UNL     1      53.242   5.644  19.032  0.00  0.00    +0.000 C 
BRANCH  33  34
ATOM     34  O   UNL     1      54.360   6.387  18.530  0.00  0.00    +0.000 OA
ATOM     35  H   UNL     1      54.693   6.895  19.290  0.00  0.00    +0.000 HD
ENDBRANCH  33  34
ENDBRANCH  25  33
ENDBRANCH   5  25
TORSDOF 8
ENDMDL
MODEL 9
REMARK VINA RESULT:    -6.772      3.801      8.825
REMARK INTER + INTRA:         -10.300
REMARK INTER:                  -9.427
REMARK INTRA:                  -0.873
REMARK UNBOUND:                -0.560
REMARK  Name = 
REMARK  9 active torsions:
REMARK  status: ('A' for Active; 'I' for Inactive)
REMARK    1  A    between atoms: C_1  and  O_2
REMARK    2  A    between atoms: O_2  and  C_3
REMARK    3  A    between atoms: C_10  and  C_11
REMARK    4  A    between atoms: N_13  and  C_14
REMARK    5  A    between atoms: C_14  and  C_15
REMARK    6  A    between atoms: N_19  and  CA_20
REMARK    7  A    between atoms: CA_20  and  C_21
REMARK    8  A    between atoms: CA_20  and  C_23
REMARK    9  A    between atoms: C_21  and  O_22
REMARK                            x       y       z     vdW  Elec       q    Type
REMARK                         _______ _______ _______ _____ _____    ______ ____
ROOT
ATOM      1  C   UNL     1      48.530   7.910  13.240  0.00  0.00    +0.000 A 
ATOM      2  C   UNL     1      48.080   8.892  14.120  0.00  0.00    +0.000 A 
ATOM      3  C   UNL     1      48.258   8.726  15.498  0.00  0.00    +0.000 A 
ATOM      4  C   UNL     1      48.922   7.603  15.989  0.00  0.00    +0.000 A 
ATOM      5  N   UNL     1      49.033   7.427  17.363  0.00  0.00    +0.000 N 
ATOM      6  N   UNL     1      49.396   6.666  15.145  0.00  0.00    +0.000 NA
ATOM      7  C   UNL     1      49.184   6.827  13.811  0.00  0.00    +0.000 A 
ATOM      8  H   UNL     1      48.817   8.221  17.946  0.00  0.00    +0.000 HD
ENDROOT
BRANCH   1   9
ATOM      9  C   UNL     1      48.349   8.032  11.752  0.00  0.00    +0.000 C 
BRANCH   9  12
ATOM     10  C   UNL     1      46.240   6.861  11.244  0.00  0.00    +0.000 C 
ATOM     11  O   UNL     1      45.575   7.773  11.737  0.00  0.00    +0.000 OA
ATOM     12  N   UNL     1      47.606   6.918  11.215  0.00  0.00    +0.000 N 
ATOM     13  H   UNL     1      48.132   6.121  10.879  0.00  0.00    +0.000 HD
BRANCH  10  21
ATOM     14  C   UNL     1      44.467   4.229  12.574  0.00  0.00    +0.000 A 
ATOM     15  N   UNL     1      43.779   3.100  12.826  0.00  0.00    +0.000 NA
ATOM     16  C   UNL     1      43.483   2.300  11.797  0.00  0.00    +0.000 A 
ATOM     17  N   UNL     1      43.787   2.497  10.519  0.00  0.00    +0.000 NA
ATOM     18  C   UNL     1      44.472   3.638  10.310  0.00  0.00    +0.000 A 
ATOM     19  S   UNL     1      44.935   4.057   8.733  0.00  0.00    +0.000 S 
ATOM     20  C   UNL     1      45.681   5.483   9.279  0.00  0.00    +0.000 A 
ATOM     21  C   UNL     1      45.595   5.671  10.654  0.00  0.00    +0.000 A 
ATOM     22  C   UNL     1      44.854   4.569  11.265  0.00  0.00    +0.000 A 
BRANCH  14  24
ATOM     23  C   UNL     1      46.010   4.894  14.205  0.00  0.00    +0.000 C 
ATOM     24  O   UNL     1      44.722   5.085  13.625  0.00  0.00    +0.000 OA
ENDBRANCH  14  24
ENDBRANCH  10  21
ENDBRANCH   9  12
ENDBRANCH   1   9
BRANCH   5  25
ATOM     25  CA  UNL     1      50.021   6.479  17.896  0.00  0.00    +0.000 C 
BRANCH  25  26
ATOM     26  C   UNL     1      49.556   5.038  17.659  0.00  0.00    +0.000 A 
ATOM     27  C   UNL     1      48.196   4.672  17.662  0.00  0.00    +0.000 A 
ATOM     28  C   UNL     1      47.804   3.336  17.541  0.00  0.00    +0.000 A 
ATOM     29  C   UNL     1      48.765   2.334  17.422  0.00  0.00    +0.000 A 
ATOM     30  C   UNL     1      50.114   2.677  17.411  0.00  0.00    +0.000 A 
ATOM     31 CL   UNL     1      51.304   1.440  17.292  0.00  0.00    +0.000 Cl
ATOM     32  C   UNL     1      50.511   4.013  17.521  0.00  0.00    +0.000 A 
ENDBRANCH  25  26
BRANCH  25  33
ATOM     33  C   UNL     1      50.300   6.706  19.408  0.00  0.00    +0.000 C 
BRANCH  33  34
ATOM     34  O   UNL     1      51.370   7.630  19.647  0.00  0.00    +0.000 OA
ATOM     35  H   UNL     1      51.822   7.300  20.442  0.00  0.00    +0.000 HD
ENDBRANCH  33  34
ENDBRANCH  25  33
ENDBRANCH   5  25
TORSDOF 8
ENDMDL
