MODEL 1
REMARK VINA RESULT:    -7.987      0.000      0.000
REMARK INTER + INTRA:         -12.662
REMARK INTER:                 -11.722
REMARK INTRA:                  -0.940
REMARK UNBOUND:                -0.940
REMARK  Name = 
REMARK  9 active torsions:
REMARK  status: ('A' for Active; 'I' for Inactive)
REMARK    1  A    between atoms: C_1  and  C_2
REMARK    2  A    between atoms: C_2  and  C_3
REMARK    3  A    between atoms: C_3  and  N_4
REMARK    4  A    between atoms: C_3  and  C_26
REMARK    5  A    between atoms: N_4  and  C_5
REMARK    6  A    between atoms: C_5  and  C_6
REMARK    7  A    between atoms: C_9  and  C_10
REMARK    8  A    between atoms: C_10  and  N_11
REMARK    9  A    between atoms: C_12  and  C_14
REMARK                            x       y       z     vdW  Elec       q    Type
REMARK                         _______ _______ _______ _____ _____    ______ ____
ROOT
ATOM      1  C   UNL     1      44.190   6.610  11.756  0.00  0.00    +0.000 A 
ATOM      2  C   UNL     1      44.904   5.914  12.731  0.00  0.00    +0.000 A 
ATOM      3  C   UNL     1      45.978   6.540  13.355  0.00  0.00    +0.000 A 
ATOM      4  C   UNL     1      46.316   7.846  12.996  0.00  0.00    +0.000 A 
ATOM      5  C   UNL     1      45.560   8.453  11.999  0.00  0.00    +0.000 A 
ATOM      6  N   UNL     1      44.510   7.871  11.380  0.00  0.00    +0.000 NA
ENDROOT
BRANCH   1   7
ATOM      7  C   UNL     1      43.048   5.937  11.025  0.00  0.00    +0.000 C 
BRANCH   7   8
ATOM      8  N   UNL     1      43.503   5.120   9.890  0.00  0.00    +0.000 NA
ATOM      9  H   UNL     1      44.093   5.722   9.308  0.00  0.00    +0.000 HD
BRANCH   8  10
ATOM     10  C   UNL     1      44.345   3.977  10.320  0.00  0.00    +0.000 C 
BRANCH  10  11
ATOM     11  C   UNL     1      45.175   3.442   9.148  0.00  0.00    +0.000 A 
ATOM     12  C   UNL     1      45.412   2.074   9.003  0.00  0.00    +0.000 A 
ATOM     13  C   UNL     1      46.261   1.634   7.991  0.00  0.00    +0.000 A 
ATOM     14  C   UNL     1      46.843   2.565   7.141  0.00  0.00    +0.000 A 
ATOM     15  C   UNL     1      46.541   3.902   7.334  0.00  0.00    +0.000 A 
ATOM     16  N   UNL     1      45.727   4.360   8.312  0.00  0.00    +0.000 NA
ENDBRANCH  10  11
BRANCH  10  18
ATOM     17  C   UNL     1      43.693   2.687  12.442  0.00  0.00    +0.000 C 
ATOM     18  C   UNL     1      43.501   2.836  10.939  0.00  0.00    +0.000 C 
ENDBRANCH  10  18
ENDBRANCH   8  10
ENDBRANCH   7   8
ENDBRANCH   1   7
BRANCH   4  19
ATOM     19  C   UNL     1      47.486   8.558  13.601  0.00  0.00    +0.000 C 
BRANCH  19  20
ATOM     20  N   UNL     1      47.864   7.944  14.848  0.00  0.00    +0.000 N 
ATOM     21  C   UNL     1      48.947   7.110  14.931  0.00  0.00    +0.000 C 
ATOM     22  O   UNL     1      49.669   6.883  13.964  0.00  0.00    +0.000 OA
ATOM     23  H   UNL     1      47.170   7.935  15.590  0.00  0.00    +0.000 HD
BRANCH  21  24
ATOM     24  C   UNL     1      49.237   6.552  16.255  0.00  0.00    +0.000 A 
ATOM     25  C   UNL     1      50.046   7.260  17.136  0.00  0.00    +0.000 A 
ATOM     26  S   UNL     1      50.240   6.498  18.647  0.00  0.00    +0.000 S 
ATOM     27  C   UNL     1      49.294   5.173  18.163  0.00  0.00    +0.000 A 
ATOM     28  N   UNL     1      49.076   4.123  19.001  0.00  0.00    +0.000 NA
ATOM     29  C   UNL     1      48.357   3.175  18.496  0.00  0.00    +0.000 A 
ATOM     30  N   UNL     1      47.829   3.183  17.234  0.00  0.00    +0.000 N 
ATOM     31  C   UNL     1      48.000   4.230  16.360  0.00  0.00    +0.000 A 
ATOM     32  O   UNL     1      47.476   4.230  15.252  0.00  0.00    +0.000 OA
ATOM     33  C   UNL     1      48.813   5.317  16.873  0.00  0.00    +0.000 A 
ATOM     34  H   UNL     1      47.266   2.413  16.905  0.00  0.00    +0.000 HD
ENDBRANCH  21  24
ENDBRANCH  19  20
ENDBRANCH   4  19
TORSDOF 8
ENDMDL
MODEL 2
REMARK VINA RESULT:    -7.840      2.912      3.973
REMARK INTER + INTRA:         -12.447
REMARK INTER:                 -11.215
REMARK INTRA:                  -1.232
REMARK UNBOUND:                -0.940
REMARK  Name = 
REMARK  9 active torsions:
REMARK  status: ('A' for Active; 'I' for Inactive)
REMARK    1  A    between atoms: C_1  and  C_2
REMARK    2  A    between atoms: C_2  and  C_3
REMARK    3  A    between atoms: C_3  and  N_4
REMARK    4  A    between atoms: C_3  and  C_26
REMARK    5  A    between atoms: N_4  and  C_5
REMARK    6  A    between atoms: C_5  and  C_6
REMARK    7  A    between atoms: C_9  and  C_10
REMARK    8  A    between atoms: C_10  and  N_11
REMARK    9  A    between atoms: C_12  and  C_14
REMARK                            x       y       z     vdW  Elec       q    Type
REMARK                         _______ _______ _______ _____ _____    ______ ____
ROOT
ATOM      1  C   UNL     1      46.864   4.526  14.192  0.00  0.00    +0.000 A 
ATOM      2  C   UNL     1      47.525   5.735  13.977  0.00  0.00    +0.000 A 
ATOM      3  C   UNL     1      48.263   6.295  15.015  0.00  0.00    +0.000 A 
ATOM      4  C   UNL     1      48.328   5.636  16.244  0.00  0.00    +0.000 A 
ATOM      5  C   UNL     1      47.620   4.447  16.373  0.00  0.00    +0.000 A 
ATOM      6  N   UNL     1      46.900   3.878  15.382  0.00  0.00    +0.000 NA
ENDROOT
BRANCH   1   7
ATOM      7  C   UNL     1      46.014   3.918  13.097  0.00  0.00    +0.000 C 
BRANCH   7   8
ATOM      8  N   UNL     1      45.583   4.908  12.098  0.00  0.00    +0.000 NA
ATOM      9  H   UNL     1      46.395   5.106  11.507  0.00  0.00    +0.000 HD
BRANCH   8  10
ATOM     10  C   UNL     1      44.519   4.384  11.209  0.00  0.00    +0.000 C 
BRANCH  10  11
ATOM     11  C   UNL     1      45.122   3.773   9.939  0.00  0.00    +0.000 A 
ATOM     12  C   UNL     1      45.607   4.586   8.913  0.00  0.00    +0.000 A 
ATOM     13  C   UNL     1      46.047   3.999   7.730  0.00  0.00    +0.000 A 
ATOM     14  C   UNL     1      46.004   2.617   7.601  0.00  0.00    +0.000 A 
ATOM     15  C   UNL     1      45.532   1.878   8.672  0.00  0.00    +0.000 A 
ATOM     16  N   UNL     1      45.091   2.420   9.830  0.00  0.00    +0.000 NA
ENDBRANCH  10  11
BRANCH  10  18
ATOM     17  C   UNL     1      42.292   5.529  11.780  0.00  0.00    +0.000 C 
ATOM     18  C   UNL     1      43.485   5.475  10.835  0.00  0.00    +0.000 C 
ENDBRANCH  10  18
ENDBRANCH   8  10
ENDBRANCH   7   8
ENDBRANCH   1   7
BRANCH   4  19
ATOM     19  C   UNL     1      49.070   6.209  17.412  0.00  0.00    +0.000 C 
BRANCH  19  20
ATOM     20  N   UNL     1      50.096   5.300  17.855  0.00  0.00    +0.000 N 
ATOM     21  C   UNL     1      51.355   5.329  17.317  0.00  0.00    +0.000 C 
ATOM     22  O   UNL     1      51.680   6.154  16.467  0.00  0.00    +0.000 OA
ATOM     23  H   UNL     1      49.797   4.481  18.378  0.00  0.00    +0.000 HD
BRANCH  21  24
ATOM     24  C   UNL     1      52.315   4.361  17.855  0.00  0.00    +0.000 A 
ATOM     25  C   UNL     1      53.468   4.815  18.484  0.00  0.00    +0.000 A 
ATOM     26  S   UNL     1      54.448   3.564  19.098  0.00  0.00    +0.000 S 
ATOM     27  C   UNL     1      53.396   2.372  18.502  0.00  0.00    +0.000 A 
ATOM     28  N   UNL     1      53.668   1.049  18.670  0.00  0.00    +0.000 NA
ATOM     29  C   UNL     1      52.795   0.252  18.148  0.00  0.00    +0.000 A 
ATOM     30  N   UNL     1      51.670   0.654  17.482  0.00  0.00    +0.000 N 
ATOM     31  C   UNL     1      51.339   1.977  17.308  0.00  0.00    +0.000 A 
ATOM     32  O   UNL     1      50.301   2.308  16.747  0.00  0.00    +0.000 OA
ATOM     33  C   UNL     1      52.295   2.916  17.863  0.00  0.00    +0.000 A 
ATOM     34  H   UNL     1      51.021  -0.022  17.107  0.00  0.00    +0.000 HD
ENDBRANCH  21  24
ENDBRANCH  19  20
ENDBRANCH   4  19
TORSDOF 8
ENDMDL
MODEL 3
REMARK VINA RESULT:    -7.806      1.542      1.841
REMARK INTER + INTRA:         -12.396
REMARK INTER:                 -11.427
REMARK INTRA:                  -0.969
REMARK UNBOUND:                -0.940
REMARK  Name = 
REMARK  9 active torsions:
REMARK  status: ('A' for Active; 'I' for Inactive)
REMARK    1  A    between atoms: C_1  and  C_2
REMARK    2  A    between atoms: C_2  and  C_3
REMARK    3  A    between atoms: C_3  and  N_4
REMARK    4  A    between atoms: C_3  and  C_26
REMARK    5  A    between atoms: N_4  and  C_5
REMARK    6  A    between atoms: C_5  and  C_6
REMARK    7  A    between atoms: C_9  and  C_10
REMARK    8  A    between atoms: C_10  and  N_11
REMARK    9  A    between atoms: C_12  and  C_14
REMARK                            x       y       z     vdW  Elec       q    Type
REMARK                         _______ _______ _______ _____ _____    ______ ____
ROOT
ATOM      1  C   UNL     1      44.892   6.040  11.598  0.00  0.00    +0.000 A 
ATOM      2  C   UNL     1      45.957   6.608  10.900  0.00  0.00    +0.000 A 
ATOM      3  C   UNL     1      47.157   6.835  11.567  0.00  0.00    +0.000 A 
ATOM      4  C   UNL     1      47.270   6.488  12.914  0.00  0.00    +0.000 A 
ATOM      5  C   UNL     1      46.149   5.946  13.534  0.00  0.00    +0.000 A 
ATOM      6  N   UNL     1      44.974   5.710  12.910  0.00  0.00    +0.000 NA
ENDROOT
BRANCH   1   7
ATOM      7  C   UNL     1      43.560   5.827  10.911  0.00  0.00    +0.000 C 
BRANCH   7   8
ATOM      8  N   UNL     1      43.635   4.844   9.820  0.00  0.00    +0.000 NA
ATOM      9  H   UNL     1      44.073   5.316   9.023  0.00  0.00    +0.000 HD
BRANCH   8  10
ATOM     10  C   UNL     1      44.496   3.686  10.162  0.00  0.00    +0.000 C 
BRANCH  10  11
ATOM     11  C   UNL     1      45.302   3.227   8.943  0.00  0.00    +0.000 A 
ATOM     12  C   UNL     1      45.669   1.889   8.788  0.00  0.00    +0.000 A 
ATOM     13  C   UNL     1      46.494   1.528   7.726  0.00  0.00    +0.000 A 
ATOM     14  C   UNL     1      46.921   2.505   6.836  0.00  0.00    +0.000 A 
ATOM     15  C   UNL     1      46.495   3.806   7.043  0.00  0.00    +0.000 A 
ATOM     16  N   UNL     1      45.702   4.188   8.069  0.00  0.00    +0.000 NA
ENDBRANCH  10  11
BRANCH  10  18
ATOM     17  C   UNL     1      43.531   2.544  12.251  0.00  0.00    +0.000 C 
ATOM     18  C   UNL     1      43.677   2.503  10.735  0.00  0.00    +0.000 C 
ENDBRANCH  10  18
ENDBRANCH   8  10
ENDBRANCH   7   8
ENDBRANCH   1   7
BRANCH   4  19
ATOM     19  C   UNL     1      48.520   6.745  13.698  0.00  0.00    +0.000 C 
BRANCH  19  20
ATOM     20  N   UNL     1      48.225   6.844  15.104  0.00  0.00    +0.000 N 
ATOM     21  C   UNL     1      49.205   6.693  16.049  0.00  0.00    +0.000 C 
ATOM     22  O   UNL     1      50.381   6.511  15.743  0.00  0.00    +0.000 OA
ATOM     23  H   UNL     1      47.251   6.768  15.382  0.00  0.00    +0.000 HD
BRANCH  21  24
ATOM     24  C   UNL     1      48.786   6.823  17.447  0.00  0.00    +0.000 A 
ATOM     25  C   UNL     1      48.288   8.036  17.905  0.00  0.00    +0.000 A 
ATOM     26  S   UNL     1      47.798   8.003  19.536  0.00  0.00    +0.000 S 
ATOM     27  C   UNL     1      48.279   6.383  19.705  0.00  0.00    +0.000 A 
ATOM     28  N   UNL     1      48.152   5.734  20.894  0.00  0.00    +0.000 NA
ATOM     29  C   UNL     1      48.577   4.513  20.886  0.00  0.00    +0.000 A 
ATOM     30  N   UNL     1      49.109   3.878  19.797  0.00  0.00    +0.000 N 
ATOM     31  C   UNL     1      49.235   4.483  18.569  0.00  0.00    +0.000 A 
ATOM     32  O   UNL     1      49.673   3.875  17.599  0.00  0.00    +0.000 OA
ATOM     33  C   UNL     1      48.786   5.862  18.526  0.00  0.00    +0.000 A 
ATOM     34  H   UNL     1      49.413   2.918  19.855  0.00  0.00    +0.000 HD
ENDBRANCH  21  24
ENDBRANCH  19  20
ENDBRANCH   4  19
TORSDOF 8
ENDMDL
MODEL 4
REMARK VINA RESULT:    -7.288      2.892      8.195
REMARK INTER + INTRA:         -11.637
REMARK INTER:                  -9.980
REMARK INTRA:                  -1.657
REMARK UNBOUND:                -0.940
REMARK  Name = 
REMARK  9 active torsions:
REMARK  status: ('A' for Active; 'I' for Inactive)
REMARK    1  A    between atoms: C_1  and  C_2
REMARK    2  A    between atoms: C_2  and  C_3
REMARK    3  A    between atoms: C_3  and  N_4
REMARK    4  A    between atoms: C_3  and  C_26
REMARK    5  A    between atoms: N_4  and  C_5
REMARK    6  A    between atoms: C_5  and  C_6
REMARK    7  A    between atoms: C_9  and  C_10
REMARK    8  A    between atoms: C_10  and  N_11
REMARK    9  A    between atoms: C_12  and  C_14
REMARK                            x       y       z     vdW  Elec       q    Type
REMARK                         _______ _______ _______ _____ _____    ______ ____
ROOT
ATOM      1  C   UNL     1      48.858   8.101  15.931  0.00  0.00    +0.000 A 
ATOM      2  C   UNL     1      49.355   7.032  15.187  0.00  0.00    +0.000 A 
ATOM      3  C   UNL     1      48.991   6.915  13.848  0.00  0.00    +0.000 A 
ATOM      4  C   UNL     1      48.143   7.868  13.281  0.00  0.00    +0.000 A 
ATOM      5  C   UNL     1      47.681   8.887  14.106  0.00  0.00    +0.000 A 
ATOM      6  N   UNL     1      48.021   9.028  15.405  0.00  0.00    +0.000 NA
ENDROOT
BRANCH   1   7
ATOM      7  C   UNL     1      49.197   8.227  17.401  0.00  0.00    +0.000 C 
BRANCH   7   8
ATOM      8  N   UNL     1      48.154   7.666  18.273  0.00  0.00    +0.000 NA
ATOM      9  H   UNL     1      47.432   7.275  17.661  0.00  0.00    +0.000 HD
BRANCH   8  10
ATOM     10  C   UNL     1      48.659   6.552  19.111  0.00  0.00    +0.000 C 
BRANCH  10  11
ATOM     11  C   UNL     1      48.496   5.210  18.389  0.00  0.00    +0.000 A 
ATOM     12  C   UNL     1      49.597   4.387  18.147  0.00  0.00    +0.000 A 
ATOM     13  C   UNL     1      49.429   3.229  17.393  0.00  0.00    +0.000 A 
ATOM     14  C   UNL     1      48.167   2.912  16.909  0.00  0.00    +0.000 A 
ATOM     15  C   UNL     1      47.120   3.766  17.211  0.00  0.00    +0.000 A 
ATOM     16  N   UNL     1      47.254   4.901  17.933  0.00  0.00    +0.000 NA
ENDBRANCH  10  11
BRANCH  10  18
ATOM     17  C   UNL     1      47.406   7.848  20.941  0.00  0.00    +0.000 C 
ATOM     18  C   UNL     1      47.960   6.502  20.492  0.00  0.00    +0.000 C 
ENDBRANCH  10  18
ENDBRANCH   8  10
ENDBRANCH   7   8
ENDBRANCH   1   7
BRANCH   4  19
ATOM     19  C   UNL     1      47.683   7.773  11.860  0.00  0.00    +0.000 C 
BRANCH  19  20
ATOM     20  N   UNL     1      46.965   6.544  11.639  0.00  0.00    +0.000 N 
ATOM     21  C   UNL     1      45.606   6.476  11.788  0.00  0.00    +0.000 C 
ATOM     22  O   UNL     1      44.933   7.464  12.071  0.00  0.00    +0.000 OA
ATOM     23  H   UNL     1      47.508   5.685  11.628  0.00  0.00    +0.000 HD
BRANCH  21  24
ATOM     24  C   UNL     1      44.987   5.174  11.528  0.00  0.00    +0.000 A 
ATOM     25  C   UNL     1      44.271   4.540  12.536  0.00  0.00    +0.000 A 
ATOM     26  S   UNL     1      43.574   3.063  12.055  0.00  0.00    +0.000 S 
ATOM     27  C   UNL     1      44.245   3.189  10.500  0.00  0.00    +0.000 A 
ATOM     28  N   UNL     1      44.048   2.216   9.569  0.00  0.00    +0.000 NA
ATOM     29  C   UNL     1      44.633   2.431   8.437  0.00  0.00    +0.000 A 
ATOM     30  N   UNL     1      45.390   3.533   8.146  0.00  0.00    +0.000 N 
ATOM     31  C   UNL     1      45.597   4.554   9.043  0.00  0.00    +0.000 A 
ATOM     32  O   UNL     1      46.241   5.551   8.738  0.00  0.00    +0.000 OA
ATOM     33  C   UNL     1      44.973   4.356  10.337  0.00  0.00    +0.000 A 
ATOM     34  H   UNL     1      45.811   3.645   7.236  0.00  0.00    +0.000 HD
ENDBRANCH  21  24
ENDBRANCH  19  20
ENDBRANCH   4  19
TORSDOF 8
ENDMDL
MODEL 5
REMARK VINA RESULT:    -7.152      2.887      8.220
REMARK INTER + INTRA:         -11.437
REMARK INTER:                  -9.868
REMARK INTRA:                  -1.569
REMARK UNBOUND:                -0.940
REMARK  Name = 
REMARK  9 active torsions:
REMARK  status: ('A' for Active; 'I' for Inactive)
REMARK    1  A    between atoms: C_1  and  C_2
REMARK    2  A    between atoms: C_2  and  C_3
REMARK    3  A    between atoms: C_3  and  N_4
REMARK    4  A    between atoms: C_3  and  C_26
REMARK    5  A    between atoms: N_4  and  C_5
REMARK    6  A    between atoms: C_5  and  C_6
REMARK    7  A    between atoms: C_9  and  C_10
REMARK    8  A    between atoms: C_10  and  N_11
REMARK    9  A    between atoms: C_12  and  C_14
REMARK                            x       y       z     vdW  Elec       q    Type
REMARK                         _______ _______ _______ _____ _____    ______ ____
ROOT
ATOM      1  C   UNL     1      49.876   8.106  15.557  0.00  0.00    +0.000 A 
ATOM      2  C   UNL     1      48.540   8.503  15.557  0.00  0.00    +0.000 A 
ATOM      3  C   UNL     1      47.820   8.450  14.367  0.00  0.00    +0.000 A 
ATOM      4  C   UNL     1      48.447   8.000  13.205  0.00  0.00    +0.000 A 
ATOM      5  C   UNL     1      49.788   7.645  13.295  0.00  0.00    +0.000 A 
ATOM      6  N   UNL     1      50.510   7.682  14.436  0.00  0.00    +0.000 NA
ENDROOT
BRANCH   1   7
ATOM      7  C   UNL     1      50.698   8.200  16.824  0.00  0.00    +0.000 C 
BRANCH   7   8
ATOM      8  N   UNL     1      50.371   7.141  17.791  0.00  0.00    +0.000 NA
ATOM      9  H   UNL     1      49.355   7.153  17.915  0.00  0.00    +0.000 HD
BRANCH   8  10
ATOM     10  C   UNL     1      50.729   5.792  17.291  0.00  0.00    +0.000 C 
BRANCH  10  11
ATOM     11  C   UNL     1      49.497   4.881  17.254  0.00  0.00    +0.000 A 
ATOM     12  C   UNL     1      48.236   5.364  17.609  0.00  0.00    +0.000 A 
ATOM     13  C   UNL     1      47.161   4.482  17.669  0.00  0.00    +0.000 A 
ATOM     14  C   UNL     1      47.364   3.143  17.362  0.00  0.00    +0.000 A 
ATOM     15  C   UNL     1      48.638   2.745  16.995  0.00  0.00    +0.000 A 
ATOM     16  N   UNL     1      49.703   3.576  16.936  0.00  0.00    +0.000 NA
ENDBRANCH  10  11
BRANCH  10  18
ATOM     17  C   UNL     1      53.214   5.170  17.464  0.00  0.00    +0.000 C 
ATOM     18  C   UNL     1      51.849   5.137  18.137  0.00  0.00    +0.000 C 
ENDBRANCH  10  18
ENDBRANCH   8  10
ENDBRANCH   7   8
ENDBRANCH   1   7
BRANCH   4  19
ATOM     19  C   UNL     1      47.738   7.960  11.886  0.00  0.00    +0.000 C 
BRANCH  19  20
ATOM     20  N   UNL     1      47.010   6.726  11.739  0.00  0.00    +0.000 N 
ATOM     21  C   UNL     1      45.642   6.695  11.792  0.00  0.00    +0.000 C 
ATOM     22  O   UNL     1      44.974   7.718  11.922  0.00  0.00    +0.000 OA
ATOM     23  H   UNL     1      47.532   5.862  11.856  0.00  0.00    +0.000 HD
BRANCH  21  24
ATOM     24  C   UNL     1      45.014   5.383  11.621  0.00  0.00    +0.000 A 
ATOM     25  C   UNL     1      44.322   4.809  12.680  0.00  0.00    +0.000 A 
ATOM     26  S   UNL     1      43.609   3.309  12.299  0.00  0.00    +0.000 S 
ATOM     27  C   UNL     1      44.240   3.348  10.723  0.00  0.00    +0.000 A 
ATOM     28  N   UNL     1      44.017   2.325   9.853  0.00  0.00    +0.000 NA
ATOM     29  C   UNL     1      44.573   2.475   8.696  0.00  0.00    +0.000 A 
ATOM     30  N   UNL     1      45.324   3.557   8.324  0.00  0.00    +0.000 N 
ATOM     31  C   UNL     1      45.557   4.625   9.158  0.00  0.00    +0.000 A 
ATOM     32  O   UNL     1      46.195   5.601   8.782  0.00  0.00    +0.000 OA
ATOM     33  C   UNL     1      44.966   4.501  10.477  0.00  0.00    +0.000 A 
ATOM     34  H   UNL     1      45.722   3.617   7.399  0.00  0.00    +0.000 HD
ENDBRANCH  21  24
ENDBRANCH  19  20
ENDBRANCH   4  19
TORSDOF 8
ENDMDL
MODEL 6
REMARK VINA RESULT:    -6.927      4.192      5.093
REMARK INTER + INTRA:         -11.107
REMARK INTER:                  -9.972
REMARK INTRA:                  -1.135
REMARK UNBOUND:                -0.940
REMARK  Name = 
REMARK  9 active torsions:
REMARK  status: ('A' for Active; 'I' for Inactive)
REMARK    1  A    between atoms: C_1  and  C_2
REMARK    2  A    between atoms: C_2  and  C_3
REMARK    3  A    between atoms: C_3  and  N_4
REMARK    4  A    between atoms: C_3  and  C_26
REMARK    5  A    between atoms: N_4  and  C_5
REMARK    6  A    between atoms: C_5  and  C_6
REMARK    7  A    between atoms: C_9  and  C_10
REMARK    8  A    between atoms: C_10  and  N_11
REMARK    9  A    between atoms: C_12  and  C_14
REMARK                            x       y       z     vdW  Elec       q    Type
REMARK                         _______ _______ _______ _____ _____    ______ ____
ROOT
ATOM      1  C   UNL     1      44.186   6.951  11.568  0.00  0.00    +0.000 A 
ATOM      2  C   UNL     1      45.276   6.621  12.374  0.00  0.00    +0.000 A 
ATOM      3  C   UNL     1      46.174   7.621  12.737  0.00  0.00    +0.000 A 
ATOM      4  C   UNL     1      45.965   8.926  12.291  0.00  0.00    +0.000 A 
ATOM      5  C   UNL     1      44.864   9.158  11.474  0.00  0.00    +0.000 A 
ATOM      6  N   UNL     1      43.974   8.209  11.110  0.00  0.00    +0.000 NA
ENDROOT
BRANCH   1   7
ATOM      7  C   UNL     1      43.221   5.877  11.118  0.00  0.00    +0.000 C 
BRANCH   7   8
ATOM      8  N   UNL     1      43.703   5.138   9.941  0.00  0.00    +0.000 NA
ATOM      9  H   UNL     1      44.323   5.770   9.426  0.00  0.00    +0.000 HD
BRANCH   8  10
ATOM     10  C   UNL     1      44.509   3.950  10.313  0.00  0.00    +0.000 C 
BRANCH  10  11
ATOM     11  C   UNL     1      45.292   3.423   9.105  0.00  0.00    +0.000 A 
ATOM     12  C   UNL     1      45.562   2.061   8.965  0.00  0.00    +0.000 A 
ATOM     13  C   UNL     1      46.368   1.632   7.914  0.00  0.00    +0.000 A 
ATOM     14  C   UNL     1      46.874   2.567   7.021  0.00  0.00    +0.000 A 
ATOM     15  C   UNL     1      46.541   3.897   7.212  0.00  0.00    +0.000 A 
ATOM     16  N   UNL     1      45.768   4.345   8.228  0.00  0.00    +0.000 NA
ENDBRANCH  10  11
BRANCH  10  18
ATOM     17  C   UNL     1      43.629   2.810  12.438  0.00  0.00    +0.000 C 
ATOM     18  C   UNL     1      43.637   2.822  10.915  0.00  0.00    +0.000 C 
ENDBRANCH  10  18
ENDBRANCH   8  10
ENDBRANCH   7   8
ENDBRANCH   1   7
BRANCH   4  19
ATOM     19  C   UNL     1      46.918  10.036  12.612  0.00  0.00    +0.000 C 
BRANCH  19  20
ATOM     20  N   UNL     1      48.111   9.927  11.812  0.00  0.00    +0.000 N 
ATOM     21  C   UNL     1      49.255  10.603  12.144  0.00  0.00    +0.000 C 
ATOM     22  O   UNL     1      49.331  11.294  13.156  0.00  0.00    +0.000 OA
ATOM     23  H   UNL     1      48.009   9.554  10.873  0.00  0.00    +0.000 HD
BRANCH  21  24
ATOM     24  C   UNL     1      50.406  10.406  11.260  0.00  0.00    +0.000 A 
ATOM     25  C   UNL     1      50.976  11.500  10.619  0.00  0.00    +0.000 A 
ATOM     26  S   UNL     1      52.335  11.106   9.671  0.00  0.00    +0.000 S 
ATOM     27  C   UNL     1      52.183   9.455  10.040  0.00  0.00    +0.000 A 
ATOM     28  N   UNL     1      53.040   8.537   9.517  0.00  0.00    +0.000 NA
ATOM     29  C   UNL     1      52.796   7.316   9.864  0.00  0.00    +0.000 A 
ATOM     30  N   UNL     1      51.778   6.929  10.692  0.00  0.00    +0.000 N 
ATOM     31  C   UNL     1      50.902   7.820  11.264  0.00  0.00    +0.000 A 
ATOM     32  O   UNL     1      50.028   7.448  12.039  0.00  0.00    +0.000 OA
ATOM     33  C   UNL     1      51.123   9.205  10.896  0.00  0.00    +0.000 A 
ATOM     34  H   UNL     1      51.649   5.957  10.932  0.00  0.00    +0.000 HD
ENDBRANCH  21  24
ENDBRANCH  19  20
ENDBRANCH   4  19
TORSDOF 8
ENDMDL
MODEL 7
REMARK VINA RESULT:    -6.793      3.243      8.681
REMARK INTER + INTRA:         -10.910
REMARK INTER:                  -9.842
REMARK INTRA:                  -1.068
REMARK UNBOUND:                -0.940
REMARK  Name = 
REMARK  9 active torsions:
REMARK  status: ('A' for Active; 'I' for Inactive)
REMARK    1  A    between atoms: C_1  and  C_2
REMARK    2  A    between atoms: C_2  and  C_3
REMARK    3  A    between atoms: C_3  and  N_4
REMARK    4  A    between atoms: C_3  and  C_26
REMARK    5  A    between atoms: N_4  and  C_5
REMARK    6  A    between atoms: C_5  and  C_6
REMARK    7  A    between atoms: C_9  and  C_10
REMARK    8  A    between atoms: C_10  and  N_11
REMARK    9  A    between atoms: C_12  and  C_14
REMARK                            x       y       z     vdW  Elec       q    Type
REMARK                         _______ _______ _______ _____ _____    ______ ____
ROOT
ATOM      1  C   UNL     1      50.278   7.399  15.088  0.00  0.00    +0.000 A 
ATOM      2  C   UNL     1      50.764   7.999  13.927  0.00  0.00    +0.000 A 
ATOM      3  C   UNL     1      49.906   8.167  12.845  0.00  0.00    +0.000 A 
ATOM      4  C   UNL     1      48.583   7.735  12.944  0.00  0.00    +0.000 A 
ATOM      5  C   UNL     1      48.193   7.129  14.133  0.00  0.00    +0.000 A 
ATOM      6  N   UNL     1      49.002   6.958  15.201  0.00  0.00    +0.000 NA
ENDROOT
BRANCH   1   7
ATOM      7  C   UNL     1      51.202   7.159  16.263  0.00  0.00    +0.000 C 
BRANCH   7   8
ATOM      8  N   UNL     1      50.715   6.099  17.160  0.00  0.00    +0.000 NA
ATOM      9  H   UNL     1      50.288   5.381  16.567  0.00  0.00    +0.000 HD
BRANCH   8  10
ATOM     10  C   UNL     1      51.815   5.444  17.907  0.00  0.00    +0.000 C 
BRANCH  10  11
ATOM     11  C   UNL     1      51.714   3.918  17.799  0.00  0.00    +0.000 A 
ATOM     12  C   UNL     1      52.790   3.101  18.149  0.00  0.00    +0.000 A 
ATOM     13  C   UNL     1      52.701   1.729  17.935  0.00  0.00    +0.000 A 
ATOM     14  C   UNL     1      51.537   1.201  17.390  0.00  0.00    +0.000 A 
ATOM     15  C   UNL     1      50.504   2.073  17.092  0.00  0.00    +0.000 A 
ATOM     16  N   UNL     1      50.565   3.411  17.281  0.00  0.00    +0.000 NA
ENDBRANCH  10  11
BRANCH  10  18
ATOM     17  C   UNL     1      50.837   5.122  20.259  0.00  0.00    +0.000 C 
ATOM     18  C   UNL     1      51.842   5.872  19.395  0.00  0.00    +0.000 C 
ENDBRANCH  10  18
ENDBRANCH   8  10
ENDBRANCH   7   8
ENDBRANCH   1   7
BRANCH   4  19
ATOM     19  C   UNL     1      47.623   7.850  11.800  0.00  0.00    +0.000 C 
BRANCH  19  20
ATOM     20  N   UNL     1      46.919   6.608  11.603  0.00  0.00    +0.000 N 
ATOM     21  C   UNL     1      45.555   6.540  11.699  0.00  0.00    +0.000 C 
ATOM     22  O   UNL     1      44.868   7.536  11.913  0.00  0.00    +0.000 OA
ATOM     23  H   UNL     1      47.465   5.752  11.649  0.00  0.00    +0.000 HD
BRANCH  21  24
ATOM     24  C   UNL     1      44.952   5.225  11.469  0.00  0.00    +0.000 A 
ATOM     25  C   UNL     1      44.210   4.624  12.478  0.00  0.00    +0.000 A 
ATOM     26  S   UNL     1      43.536   3.125  12.031  0.00  0.00    +0.000 S 
ATOM     27  C   UNL     1      44.251   3.200  10.493  0.00  0.00    +0.000 A 
ATOM     28  N   UNL     1      44.088   2.192   9.593  0.00  0.00    +0.000 NA
ATOM     29  C   UNL     1      44.704   2.370   8.471  0.00  0.00    +0.000 A 
ATOM     30  N   UNL     1      45.463   3.465   8.161  0.00  0.00    +0.000 N 
ATOM     31  C   UNL     1      45.638   4.520   9.026  0.00  0.00    +0.000 A 
ATOM     32  O   UNL     1      46.285   5.509   8.704  0.00  0.00    +0.000 OA
ATOM     33  C   UNL     1      44.977   4.365  10.309  0.00  0.00    +0.000 A 
ATOM     34  H   UNL     1      45.910   3.547   7.261  0.00  0.00    +0.000 HD
ENDBRANCH  21  24
ENDBRANCH  19  20
ENDBRANCH   4  19
TORSDOF 8
ENDMDL
MODEL 8
REMARK VINA RESULT:    -6.713      1.408      1.802
REMARK INTER + INTRA:         -10.793
REMARK INTER:                  -9.759
REMARK INTRA:                  -1.034
REMARK UNBOUND:                -0.940
REMARK  Name = 
REMARK  9 active torsions:
REMARK  status: ('A' for Active; 'I' for Inactive)
REMARK    1  A    between atoms: C_1  and  C_2
REMARK    2  A    between atoms: C_2  and  C_3
REMARK    3  A    between atoms: C_3  and  N_4
REMARK    4  A    between atoms: C_3  and  C_26
REMARK    5  A    between atoms: N_4  and  C_5
REMARK    6  A    between atoms: C_5  and  C_6
REMARK    7  A    between atoms: C_9  and  C_10
REMARK    8  A    between atoms: C_10  and  N_11
REMARK    9  A    between atoms: C_12  and  C_14
REMARK                            x       y       z     vdW  Elec       q    Type
REMARK                         _______ _______ _______ _____ _____    ______ ____
ROOT
ATOM      1  C   UNL     1      45.695   7.862  11.756  0.00  0.00    +0.000 A 
ATOM      2  C   UNL     1      45.710   8.613  12.931  0.00  0.00    +0.000 A 
ATOM      3  C   UNL     1      46.900   8.730  13.642  0.00  0.00    +0.000 A 
ATOM      4  C   UNL     1      48.050   8.098  13.164  0.00  0.00    +0.000 A 
ATOM      5  C   UNL     1      47.935   7.354  11.996  0.00  0.00    +0.000 A 
ATOM      6  N   UNL     1      46.794   7.228  11.283  0.00  0.00    +0.000 NA
ENDROOT
BRANCH   1   7
ATOM      7  C   UNL     1      44.403   7.677  10.989  0.00  0.00    +0.000 C 
BRANCH   7   8
ATOM      8  N   UNL     1      43.819   6.340  11.175  0.00  0.00    +0.000 NA
ATOM      9  H   UNL     1      43.343   6.099  10.301  0.00  0.00    +0.000 HD
BRANCH   8  10
ATOM     10  C   UNL     1      44.852   5.302  11.406  0.00  0.00    +0.000 C 
BRANCH  10  11
ATOM     11  C   UNL     1      44.981   4.382  10.186  0.00  0.00    +0.000 A 
ATOM     12  C   UNL     1      44.569   3.049  10.246  0.00  0.00    +0.000 A 
ATOM     13  C   UNL     1      44.803   2.216   9.156  0.00  0.00    +0.000 A 
ATOM     14  C   UNL     1      45.428   2.732   8.028  0.00  0.00    +0.000 A 
ATOM     15  C   UNL     1      45.785   4.069   8.036  0.00  0.00    +0.000 A 
ATOM     16  N   UNL     1      45.579   4.901   9.082  0.00  0.00    +0.000 NA
ENDBRANCH  10  11
BRANCH  10  18
ATOM     17  C   UNL     1      43.147   4.653  13.214  0.00  0.00    +0.000 C 
ATOM     18  C   UNL     1      44.559   4.464  12.675  0.00  0.00    +0.000 C 
ENDBRANCH  10  18
ENDBRANCH   8  10
ENDBRANCH   7   8
ENDBRANCH   1   7
BRANCH   4  19
ATOM     19  C   UNL     1      49.350   8.152  13.906  0.00  0.00    +0.000 C 
BRANCH  19  20
ATOM     20  N   UNL     1      49.386   7.149  14.939  0.00  0.00    +0.000 N 
ATOM     21  C   UNL     1      49.167   7.472  16.252  0.00  0.00    +0.000 C 
ATOM     22  O   UNL     1      48.888   8.615  16.603  0.00  0.00    +0.000 OA
ATOM     23  H   UNL     1      49.827   6.263  14.712  0.00  0.00    +0.000 HD
BRANCH  21  24
ATOM     24  C   UNL     1      49.221   6.365  17.211  0.00  0.00    +0.000 A 
ATOM     25  C   UNL     1      50.030   6.469  18.335  0.00  0.00    +0.000 A 
ATOM     26  S   UNL     1      49.937   5.121  19.372  0.00  0.00    +0.000 S 
ATOM     27  C   UNL     1      48.853   4.328  18.334  0.00  0.00    +0.000 A 
ATOM     28  N   UNL     1      48.382   3.085  18.626  0.00  0.00    +0.000 NA
ATOM     29  C   UNL     1      47.582   2.592  17.739  0.00  0.00    +0.000 A 
ATOM     30  N   UNL     1      47.201   3.229  16.590  0.00  0.00    +0.000 N 
ATOM     31  C   UNL     1      47.629   4.494  16.262  0.00  0.00    +0.000 A 
ATOM     32  O   UNL     1      47.235   5.059  15.249  0.00  0.00    +0.000 OA
ATOM     33  C   UNL     1      48.543   5.089  17.219  0.00  0.00    +0.000 A 
ATOM     34  H   UNL     1      46.563   2.792  15.943  0.00  0.00    +0.000 HD
ENDBRANCH  21  24
ENDBRANCH  19  20
ENDBRANCH   4  19
TORSDOF 8
ENDMDL
MODEL 9
REMARK VINA RESULT:    -6.655      3.006      7.799
REMARK INTER + INTRA:         -10.708
REMARK INTER:                  -9.205
REMARK INTRA:                  -1.503
REMARK UNBOUND:                -0.940
REMARK  Name = 
REMARK  9 active torsions:
REMARK  status: ('A' for Active; 'I' for Inactive)
REMARK    1  A    between atoms: C_1  and  C_2
REMARK    2  A    between atoms: C_2  and  C_3
REMARK    3  A    between atoms: C_3  and  N_4
REMARK    4  A    between atoms: C_3  and  C_26
REMARK    5  A    between atoms: N_4  and  C_5
REMARK    6  A    between atoms: C_5  and  C_6
REMARK    7  A    between atoms: C_9  and  C_10
REMARK    8  A    between atoms: C_10  and  N_11
REMARK    9  A    between atoms: C_12  and  C_14
REMARK                            x       y       z     vdW  Elec       q    Type
REMARK                         _______ _______ _______ _____ _____    ______ ____
ROOT
ATOM      1  C   UNL     1      49.314   7.941  15.906  0.00  0.00    +0.000 A 
ATOM      2  C   UNL     1      49.814   7.095  14.917  0.00  0.00    +0.000 A 
ATOM      3  C   UNL     1      49.400   7.276  13.601  0.00  0.00    +0.000 A 
ATOM      4  C   UNL     1      48.499   8.298  13.299  0.00  0.00    +0.000 A 
ATOM      5  C   UNL     1      48.038   9.079  14.353  0.00  0.00    +0.000 A 
ATOM      6  N   UNL     1      48.426   8.929  15.638  0.00  0.00    +0.000 NA
ENDROOT
BRANCH   1   7
ATOM      7  C   UNL     1      49.708   7.737  17.353  0.00  0.00    +0.000 C 
BRANCH   7   8
ATOM      8  N   UNL     1      48.718   6.950  18.105  0.00  0.00    +0.000 NA
ATOM      9  H   UNL     1      48.054   6.576  17.421  0.00  0.00    +0.000 HD
BRANCH   8  10
ATOM     10  C   UNL     1      49.328   5.788  18.794  0.00  0.00    +0.000 C 
BRANCH  10  11
ATOM     11  C   UNL     1      49.209   4.523  17.938  0.00  0.00    +0.000 A 
ATOM     12  C   UNL     1      48.058   4.268  17.190  0.00  0.00    +0.000 A 
ATOM     13  C   UNL     1      47.941   3.058  16.512  0.00  0.00    +0.000 A 
ATOM     14  C   UNL     1      48.978   2.137  16.583  0.00  0.00    +0.000 A 
ATOM     15  C   UNL     1      50.097   2.473  17.325  0.00  0.00    +0.000 A 
ATOM     16  N   UNL     1      50.236   3.636  18.001  0.00  0.00    +0.000 NA
ENDBRANCH  10  11
BRANCH  10  18
ATOM     17  C   UNL     1      47.290   6.105  20.325  0.00  0.00    +0.000 C 
ATOM     18  C   UNL     1      48.701   5.547  20.190  0.00  0.00    +0.000 C 
ENDBRANCH  10  18
ENDBRANCH   8  10
ENDBRANCH   7   8
ENDBRANCH   1   7
BRANCH   4  19
ATOM     19  C   UNL     1      47.984   8.517  11.910  0.00  0.00    +0.000 C 
BRANCH  19  20
ATOM     20  N   UNL     1      47.393   7.310  11.393  0.00  0.00    +0.000 N 
ATOM     21  C   UNL     1      46.035   7.134  11.371  0.00  0.00    +0.000 C 
ATOM     22  O   UNL     1      45.260   8.009  11.748  0.00  0.00    +0.000 OA
ATOM     23  H   UNL     1      48.000   6.502  11.289  0.00  0.00    +0.000 HD
BRANCH  21  24
ATOM     24  C   UNL     1      45.552   5.869  10.813  0.00  0.00    +0.000 A 
ATOM     25  C   UNL     1      45.823   5.554   9.487  0.00  0.00    +0.000 A 
ATOM     26  S   UNL     1      45.237   4.027   9.013  0.00  0.00    +0.000 S 
ATOM     27  C   UNL     1      44.557   3.751  10.544  0.00  0.00    +0.000 A 
ATOM     28  N   UNL     1      43.870   2.607  10.811  0.00  0.00    +0.000 NA
ATOM     29  C   UNL     1      43.388   2.538  12.008  0.00  0.00    +0.000 A 
ATOM     30  N   UNL     1      43.536   3.503  12.966  0.00  0.00    +0.000 N 
ATOM     31  C   UNL     1      44.241   4.664  12.753  0.00  0.00    +0.000 A 
ATOM     32  O   UNL     1      44.396   5.490  13.645  0.00  0.00    +0.000 OA
ATOM     33  C   UNL     1      44.792   4.799  11.418  0.00  0.00    +0.000 A 
ATOM     34  H   UNL     1      43.142   3.382  13.887  0.00  0.00    +0.000 HD
ENDBRANCH  21  24
ENDBRANCH  19  20
ENDBRANCH   4  19
TORSDOF 8
ENDMDL
