MODEL 1
REMARK VINA RESULT:    -8.237      0.000      0.000
REMARK INTER + INTRA:          -9.711
REMARK INTER:                 -10.645
REMARK INTRA:                   0.934
REMARK UNBOUND:                 0.934
REMARK  Name = 
REMARK  5 active torsions:
REMARK  status: ('A' for Active; 'I' for Inactive)
REMARK    1  A    between atoms: C_2  and  C_4
REMARK    2  A    between atoms: C_7  and  S_8
REMARK    3  A    between atoms: S_8  and  C_9
REMARK    4  A    between atoms: C_9  and  C_10
REMARK    5  A    between atoms: C_15  and  N_16
REMARK                            x       y       z     vdW  Elec       q    Type
REMARK                         _______ _______ _______ _____ _____    ______ ____
ROOT
ATOM      1  S   UNL     1      43.547   4.855  10.291  0.00  0.00    +0.000 S 
ENDROOT
BRANCH   1   5
ATOM      2  C   UNL     1      46.480   2.405   7.870  0.00  0.00    +0.000 A 
ATOM      3  C   UNL     1      46.498   3.794   7.758  0.00  0.00    +0.000 A 
ATOM      4  C   UNL     1      45.637   4.550   8.558  0.00  0.00    +0.000 A 
ATOM      5  C   UNL     1      44.784   3.899   9.450  0.00  0.00    +0.000 A 
ATOM      6  N   UNL     1      44.757   2.557   9.564  0.00  0.00    +0.000 NA
ATOM      7  C   UNL     1      45.597   1.840   8.778  0.00  0.00    +0.000 A 
BRANCH   2   9
ATOM      8  N   UNL     1      48.399   2.039   6.419  0.00  0.00    +0.000 N 
ATOM      9  C   UNL     1      47.304   1.507   7.040  0.00  0.00    +0.000 C 
ATOM     10  O   UNL     1      47.037   0.318   6.926  0.00  0.00    +0.000 OA
ATOM     11  H   UNL     1      48.996   1.384   5.928  0.00  0.00    +0.000 HD
ATOM     12  H   UNL     1      48.792   2.934   6.668  0.00  0.00    +0.000 HD
ENDBRANCH   2   9
ENDBRANCH   1   5
BRANCH   1  13
ATOM     13  C   UNL     1      44.015   4.914  11.991  0.00  0.00    +0.000 C 
ATOM     14  C   UNL     1      43.710   3.729  12.900  0.00  0.00    +0.000 C 
ATOM     15  C   UNL     1      43.072   5.057  13.166  0.00  0.00    +0.000 C 
BRANCH  13  16
ATOM     16  C   UNL     1      45.389   5.599  12.090  0.00  0.00    +0.000 A 
ATOM     17  C   UNL     1      45.620   6.818  11.416  0.00  0.00    +0.000 A 
ATOM     18  C   UNL     1      46.796   7.559  11.596  0.00  0.00    +0.000 A 
ATOM     19  C   UNL     1      47.784   7.109  12.466  0.00  0.00    +0.000 A 
ATOM     20  C   UNL     1      47.615   5.900  13.131  0.00  0.00    +0.000 A 
ATOM     21  C   UNL     1      46.440   5.159  12.927  0.00  0.00    +0.000 A 
BRANCH  21  22
ATOM     22  N   UNL     1      46.328   3.905  13.655  0.00  0.00    +0.000 N 
ATOM     23  O   UNL     1      46.313   2.862  12.988  0.00  0.00    +0.000 OA
ATOM     24  O   UNL     1      46.346   3.968  14.891  0.00  0.00    +0.000 OA
ENDBRANCH  21  22
ENDBRANCH  13  16
ENDBRANCH   1  13
TORSDOF 5
ENDMDL
MODEL 2
REMARK VINA RESULT:    -7.222      2.605      6.238
REMARK INTER + INTRA:          -8.400
REMARK INTER:                  -8.904
REMARK INTRA:                   0.504
REMARK UNBOUND:                 0.934
REMARK  Name = 
REMARK  5 active torsions:
REMARK  status: ('A' for Active; 'I' for Inactive)
REMARK    1  A    between atoms: C_2  and  C_4
REMARK    2  A    between atoms: C_7  and  S_8
REMARK    3  A    between atoms: S_8  and  C_9
REMARK    4  A    between atoms: C_9  and  C_10
REMARK    5  A    between atoms: C_15  and  N_16
REMARK                            x       y       z     vdW  Elec       q    Type
REMARK                         _______ _______ _______ _____ _____    ______ ____
ROOT
ATOM      1  S   UNL     1      46.755   6.345  11.694  0.00  0.00    +0.000 S 
ENDROOT
BRANCH   1   5
ATOM      2  C   UNL     1      47.882   5.055  15.881  0.00  0.00    +0.000 A 
ATOM      3  C   UNL     1      48.366   6.266  15.388  0.00  0.00    +0.000 A 
ATOM      4  C   UNL     1      47.960   6.693  14.121  0.00  0.00    +0.000 A 
ATOM      5  C   UNL     1      47.081   5.901  13.381  0.00  0.00    +0.000 A 
ATOM      6  N   UNL     1      46.610   4.728  13.847  0.00  0.00    +0.000 NA
ATOM      7  C   UNL     1      47.017   4.329  15.077  0.00  0.00    +0.000 A 
BRANCH   2   9
ATOM      8  N   UNL     1      47.324   4.354  18.143  0.00  0.00    +0.000 N 
ATOM      9  C   UNL     1      48.284   4.482  17.179  0.00  0.00    +0.000 C 
ATOM     10  O   UNL     1      49.431   4.108  17.384  0.00  0.00    +0.000 OA
ATOM     11  H   UNL     1      47.606   3.877  18.992  0.00  0.00    +0.000 HD
ATOM     12  H   UNL     1      46.337   4.420  17.949  0.00  0.00    +0.000 HD
ENDBRANCH   2   9
ENDBRANCH   1   5
BRANCH   1  13
ATOM     13  C   UNL     1      45.106   5.829  11.339  0.00  0.00    +0.000 C 
ATOM     14  C   UNL     1      43.977   6.853  11.334  0.00  0.00    +0.000 C 
ATOM     15  C   UNL     1      43.970   5.741  12.336  0.00  0.00    +0.000 C 
BRANCH  13  16
ATOM     16  C   UNL     1      45.161   4.770  10.224  0.00  0.00    +0.000 A 
ATOM     17  C   UNL     1      45.748   5.086   8.980  0.00  0.00    +0.000 A 
ATOM     18  C   UNL     1      45.962   4.118   7.989  0.00  0.00    +0.000 A 
ATOM     19  C   UNL     1      45.601   2.793   8.212  0.00  0.00    +0.000 A 
ATOM     20  C   UNL     1      44.993   2.437   9.410  0.00  0.00    +0.000 A 
ATOM     21  C   UNL     1      44.769   3.422  10.386  0.00  0.00    +0.000 A 
BRANCH  21  22
ATOM     22  N   UNL     1      44.131   2.981  11.617  0.00  0.00    +0.000 N 
ATOM     23  O   UNL     1      42.900   2.841  11.598  0.00  0.00    +0.000 OA
ATOM     24  O   UNL     1      44.873   2.693  12.564  0.00  0.00    +0.000 OA
ENDBRANCH  21  22
ENDBRANCH  13  16
ENDBRANCH   1  13
TORSDOF 5
ENDMDL
MODEL 3
REMARK VINA RESULT:    -6.769      2.846      6.788
REMARK INTER + INTRA:          -7.814
REMARK INTER:                  -7.567
REMARK INTRA:                  -0.247
REMARK UNBOUND:                 0.934
REMARK  Name = 
REMARK  5 active torsions:
REMARK  status: ('A' for Active; 'I' for Inactive)
REMARK    1  A    between atoms: C_2  and  C_4
REMARK    2  A    between atoms: C_7  and  S_8
REMARK    3  A    between atoms: S_8  and  C_9
REMARK    4  A    between atoms: C_9  and  C_10
REMARK    5  A    between atoms: C_15  and  N_16
REMARK                            x       y       z     vdW  Elec       q    Type
REMARK                         _______ _______ _______ _____ _____    ______ ____
ROOT
ATOM      1  S   UNL     1      47.151   6.539  11.528  0.00  0.00    +0.000 S 
ENDROOT
BRANCH   1   5
ATOM      2  C   UNL     1      48.586   7.741  15.646  0.00  0.00    +0.000 A 
ATOM      3  C   UNL     1      48.055   8.713  14.799  0.00  0.00    +0.000 A 
ATOM      4  C   UNL     1      47.550   8.325  13.555  0.00  0.00    +0.000 A 
ATOM      5  C   UNL     1      47.588   6.979  13.191  0.00  0.00    +0.000 A 
ATOM      6  N   UNL     1      48.101   6.032  14.000  0.00  0.00    +0.000 NA
ATOM      7  C   UNL     1      48.589   6.427  15.203  0.00  0.00    +0.000 A 
BRANCH   2   9
ATOM      8  N   UNL     1      49.643   6.991  17.705  0.00  0.00    +0.000 N 
ATOM      9  C   UNL     1      49.194   8.042  16.955  0.00  0.00    +0.000 C 
ATOM     10  O   UNL     1      49.317   9.192  17.354  0.00  0.00    +0.000 OA
ATOM     11  H   UNL     1      50.135   7.231  18.559  0.00  0.00    +0.000 HD
ATOM     12  H   UNL     1      49.784   6.067  17.328  0.00  0.00    +0.000 HD
ENDBRANCH   2   9
ENDBRANCH   1   5
BRANCH   1  13
ATOM     13  C   UNL     1      45.432   6.141  11.539  0.00  0.00    +0.000 C 
ATOM     14  C   UNL     1      44.398   7.260  11.586  0.00  0.00    +0.000 C 
ATOM     15  C   UNL     1      44.496   6.287  12.719  0.00  0.00    +0.000 C 
BRANCH  13  16
ATOM     16  C   UNL     1      45.206   4.951  10.590  0.00  0.00    +0.000 A 
ATOM     17  C   UNL     1      45.299   5.134   9.194  0.00  0.00    +0.000 A 
ATOM     18  C   UNL     1      45.255   4.060   8.296  0.00  0.00    +0.000 A 
ATOM     19  C   UNL     1      45.122   2.757   8.765  0.00  0.00    +0.000 A 
ATOM     20  C   UNL     1      44.998   2.527  10.130  0.00  0.00    +0.000 A 
ATOM     21  C   UNL     1      45.026   3.616  11.017  0.00  0.00    +0.000 A 
BRANCH  21  22
ATOM     22  N   UNL     1      44.892   3.304  12.431  0.00  0.00    +0.000 N 
ATOM     23  O   UNL     1      43.750   3.090  12.859  0.00  0.00    +0.000 OA
ATOM     24  O   UNL     1      45.938   3.188  13.084  0.00  0.00    +0.000 OA
ENDBRANCH  21  22
ENDBRANCH  13  16
ENDBRANCH   1  13
TORSDOF 5
ENDMDL
MODEL 4
REMARK VINA RESULT:    -6.428      3.122      5.053
REMARK INTER + INTRA:          -7.373
REMARK INTER:                  -7.085
REMARK INTRA:                  -0.288
REMARK UNBOUND:                 0.934
REMARK  Name = 
REMARK  5 active torsions:
REMARK  status: ('A' for Active; 'I' for Inactive)
REMARK    1  A    between atoms: C_2  and  C_4
REMARK    2  A    between atoms: C_7  and  S_8
REMARK    3  A    between atoms: S_8  and  C_9
REMARK    4  A    between atoms: C_9  and  C_10
REMARK    5  A    between atoms: C_15  and  N_16
REMARK                            x       y       z     vdW  Elec       q    Type
REMARK                         _______ _______ _______ _____ _____    ______ ____
ROOT
ATOM      1  S   UNL     1      46.447   7.988  13.040  0.00  0.00    +0.000 S 
ENDROOT
BRANCH   1   5
ATOM      2  C   UNL     1      44.687   4.146  11.427  0.00  0.00    +0.000 A 
ATOM      3  C   UNL     1      45.162   5.105  10.533  0.00  0.00    +0.000 A 
ATOM      4  C   UNL     1      45.767   6.259  11.037  0.00  0.00    +0.000 A 
ATOM      5  C   UNL     1      45.882   6.425  12.418  0.00  0.00    +0.000 A 
ATOM      6  N   UNL     1      45.425   5.506  13.290  0.00  0.00    +0.000 NA
ATOM      7  C   UNL     1      44.838   4.392  12.783  0.00  0.00    +0.000 A 
BRANCH   2   9
ATOM      8  N   UNL     1      44.497   2.218   9.954  0.00  0.00    +0.000 N 
ATOM      9  C   UNL     1      43.986   2.917  11.010  0.00  0.00    +0.000 C 
ATOM     10  O   UNL     1      42.992   2.518  11.602  0.00  0.00    +0.000 OA
ATOM     11  H   UNL     1      44.049   1.333   9.745  0.00  0.00    +0.000 HD
ATOM     12  H   UNL     1      45.428   2.367   9.594  0.00  0.00    +0.000 HD
ENDBRANCH   2   9
ENDBRANCH   1   5
BRANCH   1  13
ATOM     13  C   UNL     1      48.210   7.930  13.047  0.00  0.00    +0.000 C 
ATOM     14  C   UNL     1      48.975   8.058  11.735  0.00  0.00    +0.000 C 
ATOM     15  C   UNL     1      49.061   6.791  12.528  0.00  0.00    +0.000 C 
BRANCH  13  16
ATOM     16  C   UNL     1      48.713   8.691  14.285  0.00  0.00    +0.000 A 
ATOM     17  C   UNL     1      48.748  10.102  14.280  0.00  0.00    +0.000 A 
ATOM     18  C   UNL     1      49.050  10.845  15.429  0.00  0.00    +0.000 A 
ATOM     19  C   UNL     1      49.322  10.200  16.631  0.00  0.00    +0.000 A 
ATOM     20  C   UNL     1      49.329   8.811  16.680  0.00  0.00    +0.000 A 
ATOM     21  C   UNL     1      49.042   8.080  15.516  0.00  0.00    +0.000 A 
BRANCH  21  22
ATOM     22  N   UNL     1      49.065   6.631  15.639  0.00  0.00    +0.000 N 
ATOM     23  O   UNL     1      50.170   6.092  15.790  0.00  0.00    +0.000 OA
ATOM     24  O   UNL     1      47.971   6.051  15.672  0.00  0.00    +0.000 OA
ENDBRANCH  21  22
ENDBRANCH  13  16
ENDBRANCH   1  13
TORSDOF 5
ENDMDL
MODEL 5
REMARK VINA RESULT:    -6.300      4.479      6.147
REMARK INTER + INTRA:          -7.208
REMARK INTER:                  -7.168
REMARK INTRA:                  -0.040
REMARK UNBOUND:                 0.934
REMARK  Name = 
REMARK  5 active torsions:
REMARK  status: ('A' for Active; 'I' for Inactive)
REMARK    1  A    between atoms: C_2  and  C_4
REMARK    2  A    between atoms: C_7  and  S_8
REMARK    3  A    between atoms: S_8  and  C_9
REMARK    4  A    between atoms: C_9  and  C_10
REMARK    5  A    between atoms: C_15  and  N_16
REMARK                            x       y       z     vdW  Elec       q    Type
REMARK                         _______ _______ _______ _____ _____    ______ ____
ROOT
ATOM      1  S   UNL     1      47.999   5.488  15.057  0.00  0.00    +0.000 S 
ENDROOT
BRANCH   1   5
ATOM      2  C   UNL     1      44.779   4.199  12.153  0.00  0.00    +0.000 A 
ATOM      3  C   UNL     1      45.770   3.290  12.518  0.00  0.00    +0.000 A 
ATOM      4  C   UNL     1      46.722   3.670  13.467  0.00  0.00    +0.000 A 
ATOM      5  C   UNL     1      46.658   4.947  14.027  0.00  0.00    +0.000 A 
ATOM      6  N   UNL     1      45.707   5.834  13.680  0.00  0.00    +0.000 NA
ATOM      7  C   UNL     1      44.792   5.448  12.755  0.00  0.00    +0.000 A 
BRANCH   2   9
ATOM      8  N   UNL     1      43.704   4.759  10.043  0.00  0.00    +0.000 N 
ATOM      9  C   UNL     1      43.757   3.927  11.125  0.00  0.00    +0.000 C 
ATOM     10  O   UNL     1      42.995   2.974  11.219  0.00  0.00    +0.000 OA
ATOM     11  H   UNL     1      43.053   4.498   9.311  0.00  0.00    +0.000 HD
ATOM     12  H   UNL     1      44.447   5.397   9.803  0.00  0.00    +0.000 HD
ENDBRANCH   2   9
ENDBRANCH   1   5
BRANCH   1  13
ATOM     13  C   UNL     1      47.877   4.587  16.569  0.00  0.00    +0.000 C 
ATOM     14  C   UNL     1      48.271   3.115  16.606  0.00  0.00    +0.000 C 
ATOM     15  C   UNL     1      46.855   3.516  16.884  0.00  0.00    +0.000 C 
BRANCH  13  16
ATOM     16  C   UNL     1      48.321   5.510  17.718  0.00  0.00    +0.000 A 
ATOM     17  C   UNL     1      47.384   5.935  18.684  0.00  0.00    +0.000 A 
ATOM     18  C   UNL     1      47.765   6.646  19.830  0.00  0.00    +0.000 A 
ATOM     19  C   UNL     1      49.103   6.952  20.055  0.00  0.00    +0.000 A 
ATOM     20  C   UNL     1      50.061   6.579  19.119  0.00  0.00    +0.000 A 
ATOM     21  C   UNL     1      49.662   5.884  17.966  0.00  0.00    +0.000 A 
BRANCH  21  22
ATOM     22  N   UNL     1      50.714   5.524  17.029  0.00  0.00    +0.000 N 
ATOM     23  O   UNL     1      51.215   4.397  17.145  0.00  0.00    +0.000 OA
ATOM     24  O   UNL     1      50.970   6.336  16.130  0.00  0.00    +0.000 OA
ENDBRANCH  21  22
ENDBRANCH  13  16
ENDBRANCH   1  13
TORSDOF 5
ENDMDL
MODEL 6
REMARK VINA RESULT:    -6.243      4.048      6.084
REMARK INTER + INTRA:          -7.134
REMARK INTER:                  -6.615
REMARK INTRA:                  -0.519
REMARK UNBOUND:                 0.934
REMARK  Name = 
REMARK  5 active torsions:
REMARK  status: ('A' for Active; 'I' for Inactive)
REMARK    1  A    between atoms: C_2  and  C_4
REMARK    2  A    between atoms: C_7  and  S_8
REMARK    3  A    between atoms: S_8  and  C_9
REMARK    4  A    between atoms: C_9  and  C_10
REMARK    5  A    between atoms: C_15  and  N_16
REMARK                            x       y       z     vdW  Elec       q    Type
REMARK                         _______ _______ _______ _____ _____    ______ ____
ROOT
ATOM      1  S   UNL     1      48.649   6.701  12.785  0.00  0.00    +0.000 S 
ENDROOT
BRANCH   1   5
ATOM      2  C   UNL     1      44.439   5.257  11.973  0.00  0.00    +0.000 A 
ATOM      3  C   UNL     1      45.002   5.042  13.230  0.00  0.00    +0.000 A 
ATOM      4  C   UNL     1      46.276   5.550  13.497  0.00  0.00    +0.000 A 
ATOM      5  C   UNL     1      46.952   6.260  12.505  0.00  0.00    +0.000 A 
ATOM      6  N   UNL     1      46.418   6.471  11.286  0.00  0.00    +0.000 NA
ATOM      7  C   UNL     1      45.182   5.968  11.043  0.00  0.00    +0.000 A 
BRANCH   2   9
ATOM      8  N   UNL     1      42.038   5.539  11.691  0.00  0.00    +0.000 N 
ATOM      9  C   UNL     1      43.127   4.723  11.563  0.00  0.00    +0.000 C 
ATOM     10  O   UNL     1      43.013   3.597  11.098  0.00  0.00    +0.000 OA
ATOM     11  H   UNL     1      41.166   5.180  11.321  0.00  0.00    +0.000 HD
ATOM     12  H   UNL     1      42.111   6.534  11.836  0.00  0.00    +0.000 HD
ENDBRANCH   2   9
ENDBRANCH   1   5
BRANCH   1  13
ATOM     13  C   UNL     1      48.645   8.306  13.516  0.00  0.00    +0.000 C 
ATOM     14  C   UNL     1      49.577   8.607  14.684  0.00  0.00    +0.000 C 
ATOM     15  C   UNL     1      48.093   8.658  14.881  0.00  0.00    +0.000 C 
BRANCH  13  16
ATOM     16  C   UNL     1      48.492   9.348  12.393  0.00  0.00    +0.000 A 
ATOM     17  C   UNL     1      47.260  10.010  12.209  0.00  0.00    +0.000 A 
ATOM     18  C   UNL     1      47.112  11.072  11.307  0.00  0.00    +0.000 A 
ATOM     19  C   UNL     1      48.198  11.516  10.559  0.00  0.00    +0.000 A 
ATOM     20  C   UNL     1      49.426  10.877  10.684  0.00  0.00    +0.000 A 
ATOM     21  C   UNL     1      49.554   9.802  11.579  0.00  0.00    +0.000 A 
BRANCH  21  22
ATOM     22  N   UNL     1      50.867   9.180  11.661  0.00  0.00    +0.000 N 
ATOM     23  O   UNL     1      51.074   8.196  10.939  0.00  0.00    +0.000 OA
ATOM     24  O   UNL     1      51.708   9.734  12.381  0.00  0.00    +0.000 OA
ENDBRANCH  21  22
ENDBRANCH  13  16
ENDBRANCH   1  13
TORSDOF 5
ENDMDL
MODEL 7
REMARK VINA RESULT:    -6.076      3.607      5.404
REMARK INTER + INTRA:          -6.918
REMARK INTER:                  -6.786
REMARK INTRA:                  -0.132
REMARK UNBOUND:                 0.934
REMARK  Name = 
REMARK  5 active torsions:
REMARK  status: ('A' for Active; 'I' for Inactive)
REMARK    1  A    between atoms: C_2  and  C_4
REMARK    2  A    between atoms: C_7  and  S_8
REMARK    3  A    between atoms: S_8  and  C_9
REMARK    4  A    between atoms: C_9  and  C_10
REMARK    5  A    between atoms: C_15  and  N_16
REMARK                            x       y       z     vdW  Elec       q    Type
REMARK                         _______ _______ _______ _____ _____    ______ ____
ROOT
ATOM      1  S   UNL     1      48.057   6.194  14.293  0.00  0.00    +0.000 S 
ENDROOT
BRANCH   1   5
ATOM      2  C   UNL     1      45.020   4.647  11.318  0.00  0.00    +0.000 A 
ATOM      3  C   UNL     1      45.735   5.806  11.021  0.00  0.00    +0.000 A 
ATOM      4  C   UNL     1      46.720   6.242  11.911  0.00  0.00    +0.000 A 
ATOM      5  C   UNL     1      46.966   5.508  13.072  0.00  0.00    +0.000 A 
ATOM      6  N   UNL     1      46.280   4.388  13.370  0.00  0.00    +0.000 NA
ATOM      7  C   UNL     1      45.325   3.982  12.496  0.00  0.00    +0.000 A 
BRANCH   2   9
ATOM      8  N   UNL     1      43.901   4.487   9.163  0.00  0.00    +0.000 N 
ATOM      9  C   UNL     1      43.924   4.125  10.481  0.00  0.00    +0.000 C 
ATOM     10  O   UNL     1      43.074   3.372  10.938  0.00  0.00    +0.000 OA
ATOM     11  H   UNL     1      43.190   4.045   8.592  0.00  0.00    +0.000 HD
ATOM     12  H   UNL     1      44.692   4.897   8.692  0.00  0.00    +0.000 HD
ENDBRANCH   2   9
ENDBRANCH   1   5
BRANCH   1  13
ATOM     13  C   UNL     1      48.318   7.883  13.854  0.00  0.00    +0.000 C 
ATOM     14  C   UNL     1      47.862   8.988  14.800  0.00  0.00    +0.000 C 
ATOM     15  C   UNL     1      47.244   8.867  13.441  0.00  0.00    +0.000 C 
BRANCH  13  16
ATOM     16  C   UNL     1      49.693   7.999  13.175  0.00  0.00    +0.000 A 
ATOM     17  C   UNL     1      49.781   8.077  11.769  0.00  0.00    +0.000 A 
ATOM     18  C   UNL     1      50.990   8.338  11.110  0.00  0.00    +0.000 A 
ATOM     19  C   UNL     1      52.159   8.537  11.839  0.00  0.00    +0.000 A 
ATOM     20  C   UNL     1      52.129   8.442  13.225  0.00  0.00    +0.000 A 
ATOM     21  C   UNL     1      50.913   8.162  13.870  0.00  0.00    +0.000 A 
BRANCH  21  22
ATOM     22  N   UNL     1      50.953   8.078  15.322  0.00  0.00    +0.000 N 
ATOM     23  O   UNL     1      51.053   6.949  15.821  0.00  0.00    +0.000 OA
ATOM     24  O   UNL     1      50.974   9.146  15.947  0.00  0.00    +0.000 OA
ENDBRANCH  21  22
ENDBRANCH  13  16
ENDBRANCH   1  13
TORSDOF 5
ENDMDL
MODEL 8
REMARK VINA RESULT:    -6.044      4.341      6.733
REMARK INTER + INTRA:          -6.877
REMARK INTER:                  -6.687
REMARK INTRA:                  -0.191
REMARK UNBOUND:                 0.934
REMARK  Name = 
REMARK  5 active torsions:
REMARK  status: ('A' for Active; 'I' for Inactive)
REMARK    1  A    between atoms: C_2  and  C_4
REMARK    2  A    between atoms: C_7  and  S_8
REMARK    3  A    between atoms: S_8  and  C_9
REMARK    4  A    between atoms: C_9  and  C_10
REMARK    5  A    between atoms: C_15  and  N_16
REMARK                            x       y       z     vdW  Elec       q    Type
REMARK                         _______ _______ _______ _____ _____    ______ ____
ROOT
ATOM      1  S   UNL     1      49.207   7.171  12.883  0.00  0.00    +0.000 S 
ENDROOT
BRANCH   1   5
ATOM      2  C   UNL     1      45.102   5.271  12.923  0.00  0.00    +0.000 A 
ATOM      3  C   UNL     1      45.331   6.379  12.109  0.00  0.00    +0.000 A 
ATOM      4  C   UNL     1      46.619   6.920  12.048  0.00  0.00    +0.000 A 
ATOM      5  C   UNL     1      47.641   6.340  12.799  0.00  0.00    +0.000 A 
ATOM      6  N   UNL     1      47.429   5.271  13.592  0.00  0.00    +0.000 NA
ATOM      7  C   UNL     1      46.173   4.761  13.640  0.00  0.00    +0.000 A 
BRANCH   2   9
ATOM      8  N   UNL     1      42.680   5.467  13.060  0.00  0.00    +0.000 N 
ATOM      9  C   UNL     1      43.776   4.652  13.106  0.00  0.00    +0.000 C 
ATOM     10  O   UNL     1      43.652   3.446  13.270  0.00  0.00    +0.000 OA
ATOM     11  H   UNL     1      41.779   5.005  13.100  0.00  0.00    +0.000 HD
ATOM     12  H   UNL     1      42.708   6.407  12.695  0.00  0.00    +0.000 HD
ENDBRANCH   2   9
ENDBRANCH   1   5
BRANCH   1  13
ATOM     13  C   UNL     1      49.209   8.111  14.376  0.00  0.00    +0.000 C 
ATOM     14  C   UNL     1      47.960   8.885  14.782  0.00  0.00    +0.000 C 
ATOM     15  C   UNL     1      49.226   9.622  14.473  0.00  0.00    +0.000 C 
BRANCH  13  16
ATOM     16  C   UNL     1      49.979   7.318  15.445  0.00  0.00    +0.000 A 
ATOM     17  C   UNL     1      49.311   6.349  16.223  0.00  0.00    +0.000 A 
ATOM     18  C   UNL     1      49.994   5.494  17.099  0.00  0.00    +0.000 A 
ATOM     19  C   UNL     1      51.377   5.574  17.223  0.00  0.00    +0.000 A 
ATOM     20  C   UNL     1      52.078   6.531  16.498  0.00  0.00    +0.000 A 
ATOM     21  C   UNL     1      51.377   7.393  15.638  0.00  0.00    +0.000 A 
BRANCH  21  22
ATOM     22  N   UNL     1      52.172   8.369  14.910  0.00  0.00    +0.000 N 
ATOM     23  O   UNL     1      52.479   9.410  15.507  0.00  0.00    +0.000 OA
ATOM     24  O   UNL     1      52.558   8.049  13.778  0.00  0.00    +0.000 OA
ENDBRANCH  21  22
ENDBRANCH  13  16
ENDBRANCH   1  13
TORSDOF 5
ENDMDL
MODEL 9
REMARK VINA RESULT:    -5.895      4.681      7.097
REMARK INTER + INTRA:          -6.684
REMARK INTER:                  -6.403
REMARK INTRA:                  -0.282
REMARK UNBOUND:                 0.934
REMARK  Name = 
REMARK  5 active torsions:
REMARK  status: ('A' for Active; 'I' for Inactive)
REMARK    1  A    between atoms: C_2  and  C_4
REMARK    2  A    between atoms: C_7  and  S_8
REMARK    3  A    between atoms: S_8  and  C_9
REMARK    4  A    between atoms: C_9  and  C_10
REMARK    5  A    between atoms: C_15  and  N_16
REMARK                            x       y       z     vdW  Elec       q    Type
REMARK                         _______ _______ _______ _____ _____    ______ ____
ROOT
ATOM      1  S   UNL     1      50.073   7.218  15.414  0.00  0.00    +0.000 S 
ENDROOT
BRANCH   1   5
ATOM      2  C   UNL     1      46.484   7.014  12.668  0.00  0.00    +0.000 A 
ATOM      3  C   UNL     1      46.745   8.195  13.361  0.00  0.00    +0.000 A 
ATOM      4  C   UNL     1      47.892   8.276  14.154  0.00  0.00    +0.000 A 
ATOM      5  C   UNL     1      48.748   7.177  14.233  0.00  0.00    +0.000 A 
ATOM      6  N   UNL     1      48.505   6.030  13.570  0.00  0.00    +0.000 NA
ATOM      7  C   UNL     1      47.385   5.969  12.806  0.00  0.00    +0.000 A 
BRANCH   2   9
ATOM      8  N   UNL     1      44.362   7.808  11.781  0.00  0.00    +0.000 N 
ATOM      9  C   UNL     1      45.280   6.797  11.845  0.00  0.00    +0.000 C 
ATOM     10  O   UNL     1      45.112   5.760  11.219  0.00  0.00    +0.000 OA
ATOM     11  H   UNL     1      43.588   7.668  11.141  0.00  0.00    +0.000 HD
ATOM     12  H   UNL     1      44.561   8.752  12.075  0.00  0.00    +0.000 HD
ENDBRANCH   2   9
ENDBRANCH   1   5
BRANCH   1  13
ATOM     13  C   UNL     1      49.365   6.860  16.989  0.00  0.00    +0.000 C 
ATOM     14  C   UNL     1      48.337   7.812  17.590  0.00  0.00    +0.000 C 
ATOM     15  C   UNL     1      49.649   7.601  18.279  0.00  0.00    +0.000 C 
BRANCH  13  16
ATOM     16  C   UNL     1      49.121   5.343  17.076  0.00  0.00    +0.000 A 
ATOM     17  C   UNL     1      47.900   4.798  16.625  0.00  0.00    +0.000 A 
ATOM     18  C   UNL     1      47.687   3.416  16.538  0.00  0.00    +0.000 A 
ATOM     19  C   UNL     1      48.695   2.526  16.894  0.00  0.00    +0.000 A 
ATOM     20  C   UNL     1      49.906   3.014  17.372  0.00  0.00    +0.000 A 
ATOM     21  C   UNL     1      50.098   4.401  17.470  0.00  0.00    +0.000 A 
BRANCH  21  22
ATOM     22  N   UNL     1      51.388   4.843  17.976  0.00  0.00    +0.000 N 
ATOM     23  O   UNL     1      51.528   4.894  19.205  0.00  0.00    +0.000 OA
ATOM     24  O   UNL     1      52.279   5.049  17.141  0.00  0.00    +0.000 OA
ENDBRANCH  21  22
ENDBRANCH  13  16
ENDBRANCH   1  13
TORSDOF 5
ENDMDL
