MODEL 1
REMARK VINA RESULT:    -8.516      0.000      0.000
REMARK INTER + INTRA:         -12.411
REMARK INTER:                 -11.752
REMARK INTRA:                  -0.659
REMARK UNBOUND:                -0.659
REMARK  Name = 
REMARK  7 active torsions:
REMARK  status: ('A' for Active; 'I' for Inactive)
REMARK    1  A    between atoms: N_1  and  C_2
REMARK    2  A    between atoms: C_2  and  C_3
REMARK    3  A    between atoms: C_3  and  N_4
REMARK    4  A    between atoms: C_3  and  C_17
REMARK    5  A    between atoms: C_5  and  C_7
REMARK    6  A    between atoms: C_20  and  C_21
REMARK    7  A    between atoms: C_21  and  N_22
REMARK                            x       y       z     vdW  Elec       q    Type
REMARK                         _______ _______ _______ _____ _____    ______ ____
ROOT
ATOM      1  C   UNL     1      46.497   7.986  13.175  0.00  0.00    +0.000 C 
ENDROOT
BRANCH   1   2
ATOM      2  C   UNL     1      46.000   6.850  12.285  0.00  0.00    +0.000 A 
ATOM      3  C   UNL     1      44.928   6.049  12.700  0.00  0.00    +0.000 A 
ATOM      4  C   UNL     1      44.333   5.142  11.819  0.00  0.00    +0.000 A 
ATOM      5  C   UNL     1      44.814   4.990  10.512  0.00  0.00    +0.000 A 
ATOM      6  C   UNL     1      45.929   5.737  10.114  0.00  0.00    +0.000 A 
ATOM      7  C   UNL     1      46.515   6.654  10.991  0.00  0.00    +0.000 A 
BRANCH   5   8
ATOM      8  C   UNL     1      44.101   4.089   9.527  0.00  0.00    +0.000 C 
BRANCH   8   9
ATOM      9  N   UNL     1      44.775   2.796   9.479  0.00  0.00    +0.000 N 
ATOM     10  C   UNL     1      45.577   2.610   8.342  0.00  0.00    +0.000 A 
ATOM     11  C   UNL     1      46.261   1.403   8.202  0.00  0.00    +0.000 A 
ATOM     12  C   UNL     1      47.087   1.201   7.097  0.00  0.00    +0.000 A 
ATOM     13  C   UNL     1      47.212   2.212   6.156  0.00  0.00    +0.000 A 
ATOM     14  C   UNL     1      46.509   3.382   6.368  0.00  0.00    +0.000 A 
ATOM     15  N   UNL     1      45.707   3.599   7.435  0.00  0.00    +0.000 NA
ATOM     16  H   UNL     1      44.122   2.024   9.572  0.00  0.00    +0.000 HD
ENDBRANCH   8   9
ENDBRANCH   5   8
ENDBRANCH   1   2
BRANCH   1  17
ATOM     17  N   UNL     1      47.174   7.453  14.346  0.00  0.00    +0.000 N 
ATOM     18  C   UNL     1      48.370   6.784  14.293  0.00  0.00    +0.000 C 
ATOM     19  O   UNL     1      49.014   6.660  13.255  0.00  0.00    +0.000 OA
ATOM     20  H   UNL     1      46.633   7.433  15.201  0.00  0.00    +0.000 HD
BRANCH  18  21
ATOM     21  C   UNL     1      48.859   6.240  15.567  0.00  0.00    +0.000 A 
ATOM     22  C   UNL     1      49.968   6.792  16.189  0.00  0.00    +0.000 A 
ATOM     23  S   UNL     1      50.364   6.040  17.669  0.00  0.00    +0.000 S 
ATOM     24  C   UNL     1      49.106   4.908  17.496  0.00  0.00    +0.000 A 
ATOM     25  N   UNL     1      48.910   3.924  18.418  0.00  0.00    +0.000 NA
ATOM     26  C   UNL     1      47.948   3.112  18.136  0.00  0.00    +0.000 A 
ATOM     27  N   UNL     1      47.152   3.198  17.025  0.00  0.00    +0.000 N 
ATOM     28  C   UNL     1      47.288   4.194  16.092  0.00  0.00    +0.000 A 
ATOM     29  O   UNL     1      46.516   4.276  15.143  0.00  0.00    +0.000 OA
ATOM     30  C   UNL     1      48.374   5.121  16.344  0.00  0.00    +0.000 A 
ATOM     31  H   UNL     1      46.402   2.542  16.867  0.00  0.00    +0.000 HD
ENDBRANCH  18  21
ENDBRANCH   1  17
BRANCH   1  32
ATOM     32  C   UNL     1      47.403   8.965  12.361  0.00  0.00    +0.000 C 
BRANCH  32  33
ATOM     33  N   UNL     1      47.538  10.297  12.967  0.00  0.00    +0.000 NA
ATOM     34  H   UNL     1      47.609  10.205  13.978  0.00  0.00    +0.000 HD
ATOM     35  H   UNL     1      46.697  10.841  12.778  0.00  0.00    +0.000 HD
ENDBRANCH  32  33
ENDBRANCH   1  32
TORSDOF 7
ENDMDL
MODEL 2
REMARK VINA RESULT:    -8.302      1.871      2.637
REMARK INTER + INTRA:         -12.116
REMARK INTER:                 -11.179
REMARK INTRA:                  -0.937
REMARK UNBOUND:                -0.659
REMARK  Name = 
REMARK  7 active torsions:
REMARK  status: ('A' for Active; 'I' for Inactive)
REMARK    1  A    between atoms: N_1  and  C_2
REMARK    2  A    between atoms: C_2  and  C_3
REMARK    3  A    between atoms: C_3  and  N_4
REMARK    4  A    between atoms: C_3  and  C_17
REMARK    5  A    between atoms: C_5  and  C_7
REMARK    6  A    between atoms: C_20  and  C_21
REMARK    7  A    between atoms: C_21  and  N_22
REMARK                            x       y       z     vdW  Elec       q    Type
REMARK                         _______ _______ _______ _____ _____    ______ ____
ROOT
ATOM      1  C   UNL     1      47.396   6.649  13.420  0.00  0.00    +0.000 C 
ENDROOT
BRANCH   1   2
ATOM      2  C   UNL     1      46.402   5.824  12.605  0.00  0.00    +0.000 A 
ATOM      3  C   UNL     1      45.931   6.306  11.377  0.00  0.00    +0.000 A 
ATOM      4  C   UNL     1      45.185   5.483  10.528  0.00  0.00    +0.000 A 
ATOM      5  C   UNL     1      44.865   4.170  10.900  0.00  0.00    +0.000 A 
ATOM      6  C   UNL     1      45.274   3.708  12.156  0.00  0.00    +0.000 A 
ATOM      7  C   UNL     1      46.031   4.526  12.998  0.00  0.00    +0.000 A 
BRANCH   5   8
ATOM      8  C   UNL     1      44.153   3.247   9.935  0.00  0.00    +0.000 C 
BRANCH   8   9
ATOM      9  N   UNL     1      45.013   2.109   9.632  0.00  0.00    +0.000 N 
ATOM     10  C   UNL     1      45.722   2.232   8.427  0.00  0.00    +0.000 A 
ATOM     11  C   UNL     1      46.570   1.192   8.046  0.00  0.00    +0.000 A 
ATOM     12  C   UNL     1      47.309   1.300   6.868  0.00  0.00    +0.000 A 
ATOM     13  C   UNL     1      47.185   2.446   6.097  0.00  0.00    +0.000 A 
ATOM     14  C   UNL     1      46.331   3.435   6.544  0.00  0.00    +0.000 A 
ATOM     15  N   UNL     1      45.609   3.352   7.685  0.00  0.00    +0.000 NA
ATOM     16  H   UNL     1      44.500   1.233   9.643  0.00  0.00    +0.000 HD
ENDBRANCH   8   9
ENDBRANCH   5   8
ENDBRANCH   1   2
BRANCH   1  17
ATOM     17  N   UNL     1      47.864   5.888  14.568  0.00  0.00    +0.000 N 
ATOM     18  C   UNL     1      48.378   6.464  15.702  0.00  0.00    +0.000 C 
ATOM     19  O   UNL     1      48.400   7.678  15.876  0.00  0.00    +0.000 OA
ATOM     20  H   UNL     1      47.969   4.891  14.426  0.00  0.00    +0.000 HD
BRANCH  18  21
ATOM     21  C   UNL     1      48.883   5.534  16.721  0.00  0.00    +0.000 A 
ATOM     22  C   UNL     1      48.006   4.743  17.449  0.00  0.00    +0.000 A 
ATOM     23  S   UNL     1      48.785   3.712  18.564  0.00  0.00    +0.000 S 
ATOM     24  C   UNL     1      50.316   4.335  18.159  0.00  0.00    +0.000 A 
ATOM     25  N   UNL     1      51.442   3.905  18.793  0.00  0.00    +0.000 NA
ATOM     26  C   UNL     1      52.526   4.495  18.414  0.00  0.00    +0.000 A 
ATOM     27  N   UNL     1      52.592   5.466  17.451  0.00  0.00    +0.000 N 
ATOM     28  C   UNL     1      51.489   5.901  16.760  0.00  0.00    +0.000 A 
ATOM     29  O   UNL     1      51.597   6.726  15.859  0.00  0.00    +0.000 OA
ATOM     30  C   UNL     1      50.238   5.291  17.164  0.00  0.00    +0.000 A 
ATOM     31  H   UNL     1      53.473   5.879  17.184  0.00  0.00    +0.000 HD
ENDBRANCH  18  21
ENDBRANCH   1  17
BRANCH   1  32
ATOM     32  C   UNL     1      48.571   7.143  12.517  0.00  0.00    +0.000 C 
BRANCH  32  33
ATOM     33  N   UNL     1      49.898   6.997  13.130  0.00  0.00    +0.000 NA
ATOM     34  H   UNL     1      50.129   7.844  13.646  0.00  0.00    +0.000 HD
ATOM     35  H   UNL     1      50.600   6.898  12.397  0.00  0.00    +0.000 HD
ENDBRANCH  32  33
ENDBRANCH   1  32
TORSDOF 7
ENDMDL
MODEL 3
REMARK VINA RESULT:    -8.275      2.671      3.984
REMARK INTER + INTRA:         -12.079
REMARK INTER:                 -10.990
REMARK INTRA:                  -1.089
REMARK UNBOUND:                -0.659
REMARK  Name = 
REMARK  7 active torsions:
REMARK  status: ('A' for Active; 'I' for Inactive)
REMARK    1  A    between atoms: N_1  and  C_2
REMARK    2  A    between atoms: C_2  and  C_3
REMARK    3  A    between atoms: C_3  and  N_4
REMARK    4  A    between atoms: C_3  and  C_17
REMARK    5  A    between atoms: C_5  and  C_7
REMARK    6  A    between atoms: C_20  and  C_21
REMARK    7  A    between atoms: C_21  and  N_22
REMARK                            x       y       z     vdW  Elec       q    Type
REMARK                         _______ _______ _______ _____ _____    ______ ____
ROOT
ATOM      1  C   UNL     1      47.555   5.086  14.325  0.00  0.00    +0.000 C 
ENDROOT
BRANCH   1   2
ATOM      2  C   UNL     1      46.526   4.901  13.211  0.00  0.00    +0.000 A 
ATOM      3  C   UNL     1      46.354   5.898  12.242  0.00  0.00    +0.000 A 
ATOM      4  C   UNL     1      45.569   5.662  11.109  0.00  0.00    +0.000 A 
ATOM      5  C   UNL     1      44.912   4.436  10.934  0.00  0.00    +0.000 A 
ATOM      6  C   UNL     1      45.024   3.463  11.934  0.00  0.00    +0.000 A 
ATOM      7  C   UNL     1      45.820   3.695  13.059  0.00  0.00    +0.000 A 
BRANCH   5   8
ATOM      8  C   UNL     1      44.154   4.143   9.658  0.00  0.00    +0.000 C 
BRANCH   8   9
ATOM      9  N   UNL     1      44.989   4.484   8.511  0.00  0.00    +0.000 N 
ATOM     10  C   UNL     1      45.746   3.411   8.015  0.00  0.00    +0.000 A 
ATOM     11  C   UNL     1      46.580   3.637   6.921  0.00  0.00    +0.000 A 
ATOM     12  C   UNL     1      47.322   2.582   6.389  0.00  0.00    +0.000 A 
ATOM     13  C   UNL     1      47.212   1.325   6.963  0.00  0.00    +0.000 A 
ATOM     14  C   UNL     1      46.359   1.178   8.039  0.00  0.00    +0.000 A 
ATOM     15  N   UNL     1      45.628   2.186   8.567  0.00  0.00    +0.000 NA
ATOM     16  H   UNL     1      45.596   5.275   8.706  0.00  0.00    +0.000 HD
ENDBRANCH   8   9
ENDBRANCH   5   8
ENDBRANCH   1   2
BRANCH   1  17
ATOM     17  N   UNL     1      47.752   6.500  14.603  0.00  0.00    +0.000 N 
ATOM     18  C   UNL     1      48.864   7.003  15.227  0.00  0.00    +0.000 C 
ATOM     19  O   UNL     1      49.831   6.306  15.521  0.00  0.00    +0.000 OA
ATOM     20  H   UNL     1      46.941   7.093  14.480  0.00  0.00    +0.000 HD
BRANCH  18  21
ATOM     21  C   UNL     1      48.848   8.446  15.503  0.00  0.00    +0.000 A 
ATOM     22  C   UNL     1      49.216   9.355  14.522  0.00  0.00    +0.000 A 
ATOM     23  S   UNL     1      49.107  10.982  15.025  0.00  0.00    +0.000 S 
ATOM     24  C   UNL     1      48.628  10.525  16.593  0.00  0.00    +0.000 A 
ATOM     25  N   UNL     1      48.408  11.455  17.562  0.00  0.00    +0.000 NA
ATOM     26  C   UNL     1      48.092  10.963  18.713  0.00  0.00    +0.000 A 
ATOM     27  N   UNL     1      47.963   9.627  18.983  0.00  0.00    +0.000 N 
ATOM     28  C   UNL     1      48.136   8.658  18.028  0.00  0.00    +0.000 A 
ATOM     29  O   UNL     1      47.949   7.475  18.291  0.00  0.00    +0.000 OA
ATOM     30  C   UNL     1      48.520   9.153  16.720  0.00  0.00    +0.000 A 
ATOM     31  H   UNL     1      47.696   9.302  19.900  0.00  0.00    +0.000 HD
ENDBRANCH  18  21
ENDBRANCH   1  17
BRANCH   1  32
ATOM     32  C   UNL     1      47.134   4.285  15.598  0.00  0.00    +0.000 C 
BRANCH  32  33
ATOM     33  N   UNL     1      48.246   3.586  16.259  0.00  0.00    +0.000 NA
ATOM     34  H   UNL     1      49.086   4.158  16.207  0.00  0.00    +0.000 HD
ATOM     35  H   UNL     1      48.446   2.721  15.757  0.00  0.00    +0.000 HD
ENDBRANCH  32  33
ENDBRANCH   1  32
TORSDOF 7
ENDMDL
MODEL 4
REMARK VINA RESULT:    -8.230      2.075      2.509
REMARK INTER + INTRA:         -12.017
REMARK INTER:                 -11.238
REMARK INTRA:                  -0.779
REMARK UNBOUND:                -0.659
REMARK  Name = 
REMARK  7 active torsions:
REMARK  status: ('A' for Active; 'I' for Inactive)
REMARK    1  A    between atoms: N_1  and  C_2
REMARK    2  A    between atoms: C_2  and  C_3
REMARK    3  A    between atoms: C_3  and  N_4
REMARK    4  A    between atoms: C_3  and  C_17
REMARK    5  A    between atoms: C_5  and  C_7
REMARK    6  A    between atoms: C_20  and  C_21
REMARK    7  A    between atoms: C_21  and  N_22
REMARK                            x       y       z     vdW  Elec       q    Type
REMARK                         _______ _______ _______ _____ _____    ______ ____
ROOT
ATOM      1  C   UNL     1      47.535   6.560  13.532  0.00  0.00    +0.000 C 
ENDROOT
BRANCH   1   2
ATOM      2  C   UNL     1      46.511   5.803  12.690  0.00  0.00    +0.000 A 
ATOM      3  C   UNL     1      46.075   6.333  11.468  0.00  0.00    +0.000 A 
ATOM      4  C   UNL     1      45.299   5.566  10.595  0.00  0.00    +0.000 A 
ATOM      5  C   UNL     1      44.912   4.262  10.935  0.00  0.00    +0.000 A 
ATOM      6  C   UNL     1      45.286   3.753  12.184  0.00  0.00    +0.000 A 
ATOM      7  C   UNL     1      46.073   4.515  13.051  0.00  0.00    +0.000 A 
BRANCH   5   8
ATOM      8  C   UNL     1      44.166   3.396   9.943  0.00  0.00    +0.000 C 
BRANCH   8   9
ATOM      9  N   UNL     1      44.961   2.210   9.644  0.00  0.00    +0.000 N 
ATOM     10  C   UNL     1      45.710   2.306   8.461  0.00  0.00    +0.000 A 
ATOM     11  C   UNL     1      46.501   1.220   8.086  0.00  0.00    +0.000 A 
ATOM     12  C   UNL     1      47.278   1.298   6.930  0.00  0.00    +0.000 A 
ATOM     13  C   UNL     1      47.248   2.461   6.176  0.00  0.00    +0.000 A 
ATOM     14  C   UNL     1      46.446   3.496   6.616  0.00  0.00    +0.000 A 
ATOM     15  N   UNL     1      45.689   3.442   7.736  0.00  0.00    +0.000 NA
ATOM     16  H   UNL     1      44.393   1.368   9.627  0.00  0.00    +0.000 HD
ENDBRANCH   8   9
ENDBRANCH   5   8
ENDBRANCH   1   2
BRANCH   1  17
ATOM     17  N   UNL     1      47.656   5.954  14.848  0.00  0.00    +0.000 N 
ATOM     18  C   UNL     1      48.463   6.449  15.840  0.00  0.00    +0.000 C 
ATOM     19  O   UNL     1      49.081   7.504  15.727  0.00  0.00    +0.000 OA
ATOM     20  H   UNL     1      47.255   5.030  14.950  0.00  0.00    +0.000 HD
BRANCH  18  21
ATOM     21  C   UNL     1      48.525   5.654  17.073  0.00  0.00    +0.000 A 
ATOM     22  C   UNL     1      48.834   4.302  17.025  0.00  0.00    +0.000 A 
ATOM     23  S   UNL     1      48.883   3.558  18.560  0.00  0.00    +0.000 S 
ATOM     24  C   UNL     1      48.428   5.002  19.337  0.00  0.00    +0.000 A 
ATOM     25  N   UNL     1      48.242   5.049  20.686  0.00  0.00    +0.000 NA
ATOM     26  C   UNL     1      47.857   6.197  21.132  0.00  0.00    +0.000 A 
ATOM     27  N   UNL     1      47.652   7.309  20.359  0.00  0.00    +0.000 N 
ATOM     28  C   UNL     1      47.866   7.317  19.003  0.00  0.00    +0.000 A 
ATOM     29  O   UNL     1      47.735   8.349  18.354  0.00  0.00    +0.000 OA
ATOM     30  C   UNL     1      48.274   6.044  18.443  0.00  0.00    +0.000 A 
ATOM     31  H   UNL     1      47.367   8.186  20.768  0.00  0.00    +0.000 HD
ENDBRANCH  18  21
ENDBRANCH   1  17
BRANCH   1  32
ATOM     32  C   UNL     1      48.906   6.640  12.787  0.00  0.00    +0.000 C 
BRANCH  32  33
ATOM     33  N   UNL     1      49.444   8.003  12.670  0.00  0.00    +0.000 NA
ATOM     34  H   UNL     1      49.829   8.294  13.567  0.00  0.00    +0.000 HD
ATOM     35  H   UNL     1      48.685   8.648  12.452  0.00  0.00    +0.000 HD
ENDBRANCH  32  33
ENDBRANCH   1  32
TORSDOF 7
ENDMDL
MODEL 5
REMARK VINA RESULT:    -7.636      1.938      2.351
REMARK INTER + INTRA:         -11.197
REMARK INTER:                 -10.354
REMARK INTRA:                  -0.843
REMARK UNBOUND:                -0.659
REMARK  Name = 
REMARK  7 active torsions:
REMARK  status: ('A' for Active; 'I' for Inactive)
REMARK    1  A    between atoms: N_1  and  C_2
REMARK    2  A    between atoms: C_2  and  C_3
REMARK    3  A    between atoms: C_3  and  N_4
REMARK    4  A    between atoms: C_3  and  C_17
REMARK    5  A    between atoms: C_5  and  C_7
REMARK    6  A    between atoms: C_20  and  C_21
REMARK    7  A    between atoms: C_21  and  N_22
REMARK                            x       y       z     vdW  Elec       q    Type
REMARK                         _______ _______ _______ _____ _____    ______ ____
ROOT
ATOM      1  C   UNL     1      46.494   7.782  13.392  0.00  0.00    +0.000 C 
ENDROOT
BRANCH   1   2
ATOM      2  C   UNL     1      46.034   6.665  12.458  0.00  0.00    +0.000 A 
ATOM      3  C   UNL     1      45.107   5.713  12.904  0.00  0.00    +0.000 A 
ATOM      4  C   UNL     1      44.527   4.811  12.008  0.00  0.00    +0.000 A 
ATOM      5  C   UNL     1      44.881   4.816  10.652  0.00  0.00    +0.000 A 
ATOM      6  C   UNL     1      45.859   5.718  10.216  0.00  0.00    +0.000 A 
ATOM      7  C   UNL     1      46.429   6.629  11.109  0.00  0.00    +0.000 A 
BRANCH   5   8
ATOM      8  C   UNL     1      44.172   3.914   9.666  0.00  0.00    +0.000 C 
BRANCH   8   9
ATOM      9  N   UNL     1      44.894   2.650   9.562  0.00  0.00    +0.000 N 
ATOM     10  C   UNL     1      45.641   2.513   8.382  0.00  0.00    +0.000 A 
ATOM     11  C   UNL     1      46.364   1.337   8.187  0.00  0.00    +0.000 A 
ATOM     12  C   UNL     1      47.138   1.185   7.037  0.00  0.00    +0.000 A 
ATOM     13  C   UNL     1      47.173   2.213   6.108  0.00  0.00    +0.000 A 
ATOM     14  C   UNL     1      46.436   3.350   6.375  0.00  0.00    +0.000 A 
ATOM     15  N   UNL     1      45.683   3.519   7.485  0.00  0.00    +0.000 NA
ATOM     16  H   UNL     1      44.277   1.851   9.676  0.00  0.00    +0.000 HD
ENDBRANCH   8   9
ENDBRANCH   5   8
ENDBRANCH   1   2
BRANCH   1  17
ATOM     17  N   UNL     1      47.875   7.569  13.795  0.00  0.00    +0.000 N 
ATOM     18  C   UNL     1      48.453   8.182  14.877  0.00  0.00    +0.000 C 
ATOM     19  O   UNL     1      47.821   8.895  15.651  0.00  0.00    +0.000 OA
ATOM     20  H   UNL     1      48.461   7.081  13.129  0.00  0.00    +0.000 HD
BRANCH  18  21
ATOM     21  C   UNL     1      49.884   7.914  15.078  0.00  0.00    +0.000 A 
ATOM     22  C   UNL     1      50.839   8.607  14.349  0.00  0.00    +0.000 A 
ATOM     23  S   UNL     1      52.442   8.174  14.743  0.00  0.00    +0.000 S 
ATOM     24  C   UNL     1      51.913   6.997  15.853  0.00  0.00    +0.000 A 
ATOM     25  N   UNL     1      52.800   6.211  16.524  0.00  0.00    +0.000 NA
ATOM     26  C   UNL     1      52.256   5.335  17.300  0.00  0.00    +0.000 A 
ATOM     27  N   UNL     1      50.907   5.178  17.478  0.00  0.00    +0.000 N 
ATOM     28  C   UNL     1      49.980   5.973  16.853  0.00  0.00    +0.000 A 
ATOM     29  O   UNL     1      48.783   5.845  17.087  0.00  0.00    +0.000 OA
ATOM     30  C   UNL     1      50.535   6.959  15.947  0.00  0.00    +0.000 A 
ATOM     31  H   UNL     1      50.540   4.485  18.113  0.00  0.00    +0.000 HD
ENDBRANCH  18  21
ENDBRANCH   1  17
BRANCH   1  32
ATOM     32  C   UNL     1      46.280   9.178  12.724  0.00  0.00    +0.000 C 
BRANCH  32  33
ATOM     33  N   UNL     1      44.888   9.650  12.760  0.00  0.00    +0.000 NA
ATOM     34  H   UNL     1      44.748  10.349  12.034  0.00  0.00    +0.000 HD
ATOM     35  H   UNL     1      44.711  10.112  13.652  0.00  0.00    +0.000 HD
ENDBRANCH  32  33
ENDBRANCH   1  32
TORSDOF 7
ENDMDL
MODEL 6
REMARK VINA RESULT:    -7.602      3.584      6.275
REMARK INTER + INTRA:         -11.149
REMARK INTER:                  -9.793
REMARK INTRA:                  -1.357
REMARK UNBOUND:                -0.659
REMARK  Name = 
REMARK  7 active torsions:
REMARK  status: ('A' for Active; 'I' for Inactive)
REMARK    1  A    between atoms: N_1  and  C_2
REMARK    2  A    between atoms: C_2  and  C_3
REMARK    3  A    between atoms: C_3  and  N_4
REMARK    4  A    between atoms: C_3  and  C_17
REMARK    5  A    between atoms: C_5  and  C_7
REMARK    6  A    between atoms: C_20  and  C_21
REMARK    7  A    between atoms: C_21  and  N_22
REMARK                            x       y       z     vdW  Elec       q    Type
REMARK                         _______ _______ _______ _____ _____    ______ ____
ROOT
ATOM      1  C   UNL     1      45.739   5.111  13.057  0.00  0.00    +0.000 C 
ENDROOT
BRANCH   1   2
ATOM      2  C   UNL     1      45.565   6.530  12.519  0.00  0.00    +0.000 A 
ATOM      3  C   UNL     1      44.704   6.772  11.441  0.00  0.00    +0.000 A 
ATOM      4  C   UNL     1      44.379   8.079  11.068  0.00  0.00    +0.000 A 
ATOM      5  C   UNL     1      44.931   9.176  11.743  0.00  0.00    +0.000 A 
ATOM      6  C   UNL     1      45.847   8.940  12.776  0.00  0.00    +0.000 A 
ATOM      7  C   UNL     1      46.160   7.633  13.157  0.00  0.00    +0.000 A 
BRANCH   5   8
ATOM      8  C   UNL     1      44.494  10.586  11.411  0.00  0.00    +0.000 C 
BRANCH   8   9
ATOM      9  N   UNL     1      43.433  10.540  10.410  0.00  0.00    +0.000 N 
ATOM     10  C   UNL     1      42.160  10.851  10.911  0.00  0.00    +0.000 A 
ATOM     11  C   UNL     1      41.077  10.829  10.032  0.00  0.00    +0.000 A 
ATOM     12  C   UNL     1      39.805  11.162  10.496  0.00  0.00    +0.000 A 
ATOM     13  C   UNL     1      39.643  11.510  11.829  0.00  0.00    +0.000 A 
ATOM     14  C   UNL     1      40.764  11.515  12.635  0.00  0.00    +0.000 A 
ATOM     15  N   UNL     1      42.007  11.200  12.204  0.00  0.00    +0.000 NA
ATOM     16  H   UNL     1      43.407   9.646   9.927  0.00  0.00    +0.000 HD
ENDBRANCH   8   9
ENDBRANCH   5   8
ENDBRANCH   1   2
BRANCH   1  17
ATOM     17  N   UNL     1      46.446   5.134  14.327  0.00  0.00    +0.000 N 
ATOM     18  C   UNL     1      47.160   4.071  14.817  0.00  0.00    +0.000 C 
ATOM     19  O   UNL     1      47.336   3.039  14.176  0.00  0.00    +0.000 OA
ATOM     20  H   UNL     1      46.240   5.916  14.936  0.00  0.00    +0.000 HD
BRANCH  18  21
ATOM     21  C   UNL     1      47.734   4.247  16.158  0.00  0.00    +0.000 A 
ATOM     22  C   UNL     1      47.380   3.395  17.194  0.00  0.00    +0.000 A 
ATOM     23  S   UNL     1      48.171   3.745  18.665  0.00  0.00    +0.000 S 
ATOM     24  C   UNL     1      48.964   5.088  17.985  0.00  0.00    +0.000 A 
ATOM     25  N   UNL     1      49.781   5.879  18.735  0.00  0.00    +0.000 NA
ATOM     26  C   UNL     1      50.281   6.885  18.100  0.00  0.00    +0.000 A 
ATOM     27  N   UNL     1      50.050   7.170  16.780  0.00  0.00    +0.000 N 
ATOM     28  C   UNL     1      49.266   6.379  15.978  0.00  0.00    +0.000 A 
ATOM     29  O   UNL     1      49.135   6.630  14.785  0.00  0.00    +0.000 OA
ATOM     30  C   UNL     1      48.657   5.247  16.647  0.00  0.00    +0.000 A 
ATOM     31  H   UNL     1      50.484   7.963  16.332  0.00  0.00    +0.000 HD
ENDBRANCH  18  21
ENDBRANCH   1  17
BRANCH   1  32
ATOM     32  C   UNL     1      44.356   4.391  13.161  0.00  0.00    +0.000 C 
BRANCH  32  33
ATOM     33  N   UNL     1      44.378   2.988  12.722  0.00  0.00    +0.000 NA
ATOM     34  H   UNL     1      44.929   2.909  11.869  0.00  0.00    +0.000 HD
ATOM     35  H   UNL     1      43.431   2.692  12.490  0.00  0.00    +0.000 HD
ENDBRANCH  32  33
ENDBRANCH   1  32
TORSDOF 7
ENDMDL
MODEL 7
REMARK VINA RESULT:    -7.366      2.281      3.491
REMARK INTER + INTRA:         -10.824
REMARK INTER:                  -9.961
REMARK INTRA:                  -0.863
REMARK UNBOUND:                -0.659
REMARK  Name = 
REMARK  7 active torsions:
REMARK  status: ('A' for Active; 'I' for Inactive)
REMARK    1  A    between atoms: N_1  and  C_2
REMARK    2  A    between atoms: C_2  and  C_3
REMARK    3  A    between atoms: C_3  and  N_4
REMARK    4  A    between atoms: C_3  and  C_17
REMARK    5  A    between atoms: C_5  and  C_7
REMARK    6  A    between atoms: C_20  and  C_21
REMARK    7  A    between atoms: C_21  and  N_22
REMARK                            x       y       z     vdW  Elec       q    Type
REMARK                         _______ _______ _______ _____ _____    ______ ____
ROOT
ATOM      1  C   UNL     1      45.678   7.819  13.149  0.00  0.00    +0.000 C 
ENDROOT
BRANCH   1   2
ATOM      2  C   UNL     1      45.408   6.654  12.200  0.00  0.00    +0.000 A 
ATOM      3  C   UNL     1      44.372   5.751  12.473  0.00  0.00    +0.000 A 
ATOM      4  C   UNL     1      43.983   4.805  11.520  0.00  0.00    +0.000 A 
ATOM      5  C   UNL     1      44.639   4.718  10.285  0.00  0.00    +0.000 A 
ATOM      6  C   UNL     1      45.721   5.571  10.036  0.00  0.00    +0.000 A 
ATOM      7  C   UNL     1      46.101   6.526  10.982  0.00  0.00    +0.000 A 
BRANCH   5   8
ATOM      8  C   UNL     1      44.146   3.768   9.215  0.00  0.00    +0.000 C 
BRANCH   8   9
ATOM      9  N   UNL     1      45.005   2.589   9.182  0.00  0.00    +0.000 N 
ATOM     10  C   UNL     1      45.831   2.514   8.050  0.00  0.00    +0.000 A 
ATOM     11  C   UNL     1      46.687   1.421   7.923  0.00  0.00    +0.000 A 
ATOM     12  C   UNL     1      47.539   1.335   6.823  0.00  0.00    +0.000 A 
ATOM     13  C   UNL     1      47.518   2.345   5.874  0.00  0.00    +0.000 A 
ATOM     14  C   UNL     1      46.648   3.399   6.072  0.00  0.00    +0.000 A 
ATOM     15  N   UNL     1      45.817   3.504   7.134  0.00  0.00    +0.000 NA
ATOM     16  H   UNL     1      44.473   1.730   9.280  0.00  0.00    +0.000 HD
ENDBRANCH   8   9
ENDBRANCH   5   8
ENDBRANCH   1   2
BRANCH   1  17
ATOM     17  N   UNL     1      47.097   7.902  13.459  0.00  0.00    +0.000 N 
ATOM     18  C   UNL     1      47.800   6.897  14.073  0.00  0.00    +0.000 C 
ATOM     19  O   UNL     1      47.304   5.804  14.329  0.00  0.00    +0.000 OA
ATOM     20  H   UNL     1      47.518   8.818  13.368  0.00  0.00    +0.000 HD
BRANCH  18  21
ATOM     21  C   UNL     1      49.204   7.195  14.386  0.00  0.00    +0.000 A 
ATOM     22  C   UNL     1      49.713   6.938  15.650  0.00  0.00    +0.000 A 
ATOM     23  S   UNL     1      51.368   7.327  15.810  0.00  0.00    +0.000 S 
ATOM     24  C   UNL     1      51.443   7.913  14.214  0.00  0.00    +0.000 A 
ATOM     25  N   UNL     1      52.591   8.447  13.712  0.00  0.00    +0.000 NA
ATOM     26  C   UNL     1      52.490   8.890  12.504  0.00  0.00    +0.000 A 
ATOM     27  N   UNL     1      51.352   8.839  11.744  0.00  0.00    +0.000 N 
ATOM     28  C   UNL     1      50.186   8.274  12.195  0.00  0.00    +0.000 A 
ATOM     29  O   UNL     1      49.206   8.188  11.463  0.00  0.00    +0.000 OA
ATOM     30  C   UNL     1      50.233   7.783  13.558  0.00  0.00    +0.000 A 
ATOM     31  H   UNL     1      51.338   9.187  10.797  0.00  0.00    +0.000 HD
ENDBRANCH  18  21
ENDBRANCH   1  17
BRANCH   1  32
ATOM     32  C   UNL     1      45.123   9.152  12.553  0.00  0.00    +0.000 C 
BRANCH  32  33
ATOM     33  N   UNL     1      46.117  10.233  12.477  0.00  0.00    +0.000 NA
ATOM     34  H   UNL     1      46.113  10.760  13.347  0.00  0.00    +0.000 HD
ATOM     35  H   UNL     1      45.853  10.882  11.737  0.00  0.00    +0.000 HD
ENDBRANCH  32  33
ENDBRANCH   1  32
TORSDOF 7
ENDMDL
MODEL 8
REMARK VINA RESULT:    -7.328      2.924      4.142
REMARK INTER + INTRA:         -10.772
REMARK INTER:                  -9.480
REMARK INTRA:                  -1.292
REMARK UNBOUND:                -0.659
REMARK  Name = 
REMARK  7 active torsions:
REMARK  status: ('A' for Active; 'I' for Inactive)
REMARK    1  A    between atoms: N_1  and  C_2
REMARK    2  A    between atoms: C_2  and  C_3
REMARK    3  A    between atoms: C_3  and  N_4
REMARK    4  A    between atoms: C_3  and  C_17
REMARK    5  A    between atoms: C_5  and  C_7
REMARK    6  A    between atoms: C_20  and  C_21
REMARK    7  A    between atoms: C_21  and  N_22
REMARK                            x       y       z     vdW  Elec       q    Type
REMARK                         _______ _______ _______ _____ _____    ______ ____
ROOT
ATOM      1  C   UNL     1      47.977   4.964  15.837  0.00  0.00    +0.000 C 
ENDROOT
BRANCH   1   2
ATOM      2  C   UNL     1      47.231   5.063  14.509  0.00  0.00    +0.000 A 
ATOM      3  C   UNL     1      46.269   4.102  14.170  0.00  0.00    +0.000 A 
ATOM      4  C   UNL     1      45.439   4.285  13.060  0.00  0.00    +0.000 A 
ATOM      5  C   UNL     1      45.570   5.417  12.245  0.00  0.00    +0.000 A 
ATOM      6  C   UNL     1      46.576   6.346  12.539  0.00  0.00    +0.000 A 
ATOM      7  C   UNL     1      47.397   6.169  13.655  0.00  0.00    +0.000 A 
BRANCH   5   8
ATOM      8  C   UNL     1      44.600   5.668  11.111  0.00  0.00    +0.000 C 
BRANCH   8   9
ATOM      9  N   UNL     1      45.335   5.737   9.853  0.00  0.00    +0.000 N 
ATOM     10  C   UNL     1      45.505   4.496   9.220  0.00  0.00    +0.000 A 
ATOM     11  C   UNL     1      46.199   4.456   8.011  0.00  0.00    +0.000 A 
ATOM     12  C   UNL     1      46.358   3.241   7.345  0.00  0.00    +0.000 A 
ATOM     13  C   UNL     1      45.818   2.092   7.903  0.00  0.00    +0.000 A 
ATOM     14  C   UNL     1      45.138   2.212   9.099  0.00  0.00    +0.000 A 
ATOM     15  N   UNL     1      44.969   3.382   9.757  0.00  0.00    +0.000 NA
ATOM     16  H   UNL     1      46.235   6.194   9.964  0.00  0.00    +0.000 HD
ENDBRANCH   8   9
ENDBRANCH   5   8
ENDBRANCH   1   2
BRANCH   1  17
ATOM     17  N   UNL     1      48.279   6.291  16.348  0.00  0.00    +0.000 N 
ATOM     18  C   UNL     1      49.554   6.762  16.534  0.00  0.00    +0.000 C 
ATOM     19  O   UNL     1      50.549   6.128  16.195  0.00  0.00    +0.000 OA
ATOM     20  H   UNL     1      47.500   6.803  16.742  0.00  0.00    +0.000 HD
BRANCH  18  21
ATOM     21  C   UNL     1      49.664   8.094  17.143  0.00  0.00    +0.000 A 
ATOM     22  C   UNL     1      50.204   9.153  16.428  0.00  0.00    +0.000 A 
ATOM     23  S   UNL     1      50.223  10.622  17.296  0.00  0.00    +0.000 S 
ATOM     24  C   UNL     1      49.571   9.878  18.681  0.00  0.00    +0.000 A 
ATOM     25  N   UNL     1      49.369  10.581  19.830  0.00  0.00    +0.000 NA
ATOM     26  C   UNL     1      48.911   9.880  20.811  0.00  0.00    +0.000 A 
ATOM     27  N   UNL     1      48.622   8.542  20.749  0.00  0.00    +0.000 N 
ATOM     28  C   UNL     1      48.773   7.805  19.602  0.00  0.00    +0.000 A 
ATOM     29  O   UNL     1      48.443   6.624  19.567  0.00  0.00    +0.000 OA
ATOM     30  C   UNL     1      49.312   8.537  18.473  0.00  0.00    +0.000 A 
ATOM     31  H   UNL     1      48.248   8.050  21.547  0.00  0.00    +0.000 HD
ENDBRANCH  18  21
ENDBRANCH   1  17
BRANCH   1  32
ATOM     32  C   UNL     1      47.166   4.106  16.859  0.00  0.00    +0.000 C 
BRANCH  32  33
ATOM     33  N   UNL     1      46.708   4.855  18.039  0.00  0.00    +0.000 NA
ATOM     34  H   UNL     1      46.133   4.251  18.622  0.00  0.00    +0.000 HD
ATOM     35  H   UNL     1      46.115   5.627  17.739  0.00  0.00    +0.000 HD
ENDBRANCH  32  33
ENDBRANCH   1  32
TORSDOF 7
ENDMDL
MODEL 9
REMARK VINA RESULT:    -7.175      2.043      2.420
REMARK INTER + INTRA:         -10.560
REMARK INTER:                  -9.631
REMARK INTRA:                  -0.929
REMARK UNBOUND:                -0.659
REMARK  Name = 
REMARK  7 active torsions:
REMARK  status: ('A' for Active; 'I' for Inactive)
REMARK    1  A    between atoms: N_1  and  C_2
REMARK    2  A    between atoms: C_2  and  C_3
REMARK    3  A    between atoms: C_3  and  N_4
REMARK    4  A    between atoms: C_3  and  C_17
REMARK    5  A    between atoms: C_5  and  C_7
REMARK    6  A    between atoms: C_20  and  C_21
REMARK    7  A    between atoms: C_21  and  N_22
REMARK                            x       y       z     vdW  Elec       q    Type
REMARK                         _______ _______ _______ _____ _____    ______ ____
ROOT
ATOM      1  C   UNL     1      47.874   8.194  13.703  0.00  0.00    +0.000 C 
ENDROOT
BRANCH   1   2
ATOM      2  C   UNL     1      46.876   7.363  12.900  0.00  0.00    +0.000 A 
ATOM      3  C   UNL     1      46.677   6.012  13.210  0.00  0.00    +0.000 A 
ATOM      4  C   UNL     1      45.631   5.293  12.624  0.00  0.00    +0.000 A 
ATOM      5  C   UNL     1      44.778   5.898  11.691  0.00  0.00    +0.000 A 
ATOM      6  C   UNL     1      45.017   7.228  11.325  0.00  0.00    +0.000 A 
ATOM      7  C   UNL     1      46.054   7.950  11.921  0.00  0.00    +0.000 A 
BRANCH   5   8
ATOM      8  C   UNL     1      43.582   5.152  11.141  0.00  0.00    +0.000 C 
BRANCH   8   9
ATOM      9  N   UNL     1      43.925   3.743  10.978  0.00  0.00    +0.000 N 
ATOM     10  C   UNL     1      44.654   3.463   9.812  0.00  0.00    +0.000 A 
ATOM     11  C   UNL     1      45.027   2.143   9.563  0.00  0.00    +0.000 A 
ATOM     12  C   UNL     1      45.777   1.839   8.427  0.00  0.00    +0.000 A 
ATOM     13  C   UNL     1      46.139   2.864   7.565  0.00  0.00    +0.000 A 
ATOM     14  C   UNL     1      45.739   4.147   7.883  0.00  0.00    +0.000 A 
ATOM     15  N   UNL     1      45.015   4.462   8.981  0.00  0.00    +0.000 NA
ATOM     16  H   UNL     1      43.105   3.146  11.025  0.00  0.00    +0.000 HD
ENDBRANCH   8   9
ENDBRANCH   5   8
ENDBRANCH   1   2
BRANCH   1  17
ATOM     17  N   UNL     1      47.837   7.813  15.106  0.00  0.00    +0.000 N 
ATOM     18  C   UNL     1      48.295   8.612  16.122  0.00  0.00    +0.000 C 
ATOM     19  O   UNL     1      48.691   9.759  15.935  0.00  0.00    +0.000 OA
ATOM     20  H   UNL     1      47.623   6.842  15.296  0.00  0.00    +0.000 HD
BRANCH  18  21
ATOM     21  C   UNL     1      48.258   8.024  17.467  0.00  0.00    +0.000 A 
ATOM     22  C   UNL     1      47.892   8.792  18.563  0.00  0.00    +0.000 A 
ATOM     23  S   UNL     1      47.885   7.924  20.032  0.00  0.00    +0.000 S 
ATOM     24  C   UNL     1      48.436   6.508  19.265  0.00  0.00    +0.000 A 
ATOM     25  N   UNL     1      48.688   5.374  19.975  0.00  0.00    +0.000 NA
ATOM     26  C   UNL     1      49.141   4.392  19.270  0.00  0.00    +0.000 A 
ATOM     27  N   UNL     1      49.354   4.433  17.918  0.00  0.00    +0.000 N 
ATOM     28  C   UNL     1      49.077   5.541  17.157  0.00  0.00    +0.000 A 
ATOM     29  O   UNL     1      49.220   5.520  15.940  0.00  0.00    +0.000 OA
ATOM     30  C   UNL     1      48.590   6.685  17.903  0.00  0.00    +0.000 A 
ATOM     31  H   UNL     1      49.695   3.626  17.416  0.00  0.00    +0.000 HD
ENDBRANCH  18  21
ENDBRANCH   1  17
BRANCH   1  32
ATOM     32  C   UNL     1      49.306   8.071  13.093  0.00  0.00    +0.000 C 
BRANCH  32  33
ATOM     33  N   UNL     1      50.146   7.052  13.739  0.00  0.00    +0.000 NA
ATOM     34  H   UNL     1      49.576   6.243  13.975  0.00  0.00    +0.000 HD
ATOM     35  H   UNL     1      50.511   7.422  14.616  0.00  0.00    +0.000 HD
ENDBRANCH  32  33
ENDBRANCH   1  32
TORSDOF 7
ENDMDL
