MODEL 1
REMARK VINA RESULT:    -8.442      0.000      0.000
REMARK INTER + INTRA:         -13.612
REMARK INTER:                 -12.637
REMARK INTRA:                  -0.975
REMARK UNBOUND:                -0.975
REMARK  Name = 
REMARK  9 active torsions:
REMARK  status: ('A' for Active; 'I' for Inactive)
REMARK    1  A    between atoms: N_1  and  C_2
REMARK    2  A    between atoms: C_2  and  C_3
REMARK    3  A    between atoms: C_2  and  C_26
REMARK    4  A    between atoms: C_3  and  N_4
REMARK    5  A    between atoms: N_4  and  C_5
REMARK    6  A    between atoms: C_5  and  C_6
REMARK    7  A    between atoms: C_9  and  C_10
REMARK    8  A    between atoms: C_10  and  N_11
REMARK    9  A    between atoms: C_12  and  C_14
REMARK                            x       y       z     vdW  Elec       q    Type
REMARK                         _______ _______ _______ _____ _____    ______ ____
ROOT
ATOM      1  C   UNL     1      45.401   6.666  12.140  0.00  0.00    +0.000 C 
ATOM      2  C   UNL     1      45.445   5.613  13.264  0.00  0.00    +0.000 C 
ATOM      3  C   UNL     1      46.781   4.874  13.321  0.00  0.00    +0.000 C 
ATOM      4  C   UNL     1      47.967   5.829  13.518  0.00  0.00    +0.000 C 
ATOM      5  C   UNL     1      47.958   6.889  12.403  0.00  0.00    +0.000 C 
ATOM      6  C   UNL     1      46.614   7.607  12.249  0.00  0.00    +0.000 C 
ENDROOT
BRANCH   1   7
ATOM      7  C   UNL     1      45.258   6.053  10.722  0.00  0.00    +0.000 C 
BRANCH   7   8
ATOM      8  N   UNL     1      44.274   4.972  10.777  0.00  0.00    +0.000 NA
ATOM      9  H   UNL     1      44.657   4.222  11.368  0.00  0.00    +0.000 HD
BRANCH   8  10
ATOM     10  C   UNL     1      44.041   4.311   9.475  0.00  0.00    +0.000 C 
BRANCH  10  11
ATOM     11  C   UNL     1      44.486   2.808   9.558  0.00  0.00    +0.000 C 
BRANCH  11  12
ATOM     12  C   UNL     1      45.574   2.459   8.530  0.00  0.00    +0.000 A 
ATOM     13  C   UNL     1      46.018   3.429   7.632  0.00  0.00    +0.000 A 
ATOM     14  C   UNL     1      46.937   3.071   6.647  0.00  0.00    +0.000 A 
ATOM     15  C   UNL     1      47.392   1.760   6.578  0.00  0.00    +0.000 A 
ATOM     16  C   UNL     1      46.910   0.856   7.505  0.00  0.00    +0.000 A 
ATOM     17  N   UNL     1      46.021   1.174   8.470  0.00  0.00    +0.000 NA
ENDBRANCH  11  12
BRANCH  11  18
ATOM     18  N   UNL     1      44.966   2.522  10.936  0.00  0.00    +0.000 NA
ATOM     19  H   UNL     1      45.432   1.616  10.920  0.00  0.00    +0.000 HD
ATOM     20  H   UNL     1      44.112   2.331  11.472  0.00  0.00    +0.000 HD
ENDBRANCH  11  18
ENDBRANCH  10  11
ENDBRANCH   8  10
ENDBRANCH   7   8
ENDBRANCH   1   7
BRANCH   4  21
ATOM     21  C   UNL     1      47.985   6.493  14.910  0.00  0.00    +0.000 C 
BRANCH  21  22
ATOM     22  N   UNL     1      49.045   5.986  15.756  0.00  0.00    +0.000 N 
ATOM     23  C   UNL     1      48.859   4.964  16.651  0.00  0.00    +0.000 C 
ATOM     24  O   UNL     1      47.775   4.403  16.789  0.00  0.00    +0.000 OA
ATOM     25  H   UNL     1      49.919   6.504  15.765  0.00  0.00    +0.000 HD
BRANCH  23  26
ATOM     26  C   UNL     1      50.041   4.531  17.406  0.00  0.00    +0.000 A 
ATOM     27  C   UNL     1      50.707   5.444  18.214  0.00  0.00    +0.000 A 
ATOM     28  S   UNL     1      52.061   4.791  19.017  0.00  0.00    +0.000 S 
ATOM     29  C   UNL     1      51.832   3.274  18.283  0.00  0.00    +0.000 A 
ATOM     30  N   UNL     1      52.696   2.249  18.516  0.00  0.00    +0.000 NA
ATOM     31  C   UNL     1      52.431   1.165  17.864  0.00  0.00    +0.000 A 
ATOM     32  N   UNL     1      51.365   1.009  17.018  0.00  0.00    +0.000 N 
ATOM     33  C   UNL     1      50.418   1.988  16.822  0.00  0.00    +0.000 A 
ATOM     34  O   UNL     1      49.399   1.760  16.181  0.00  0.00    +0.000 OA
ATOM     35  C   UNL     1      50.710   3.251  17.474  0.00  0.00    +0.000 A 
ATOM     36  H   UNL     1      51.186   0.122  16.574  0.00  0.00    +0.000 HD
ENDBRANCH  23  26
ENDBRANCH  21  22
ENDBRANCH   4  21
TORSDOF 9
ENDMDL
MODEL 2
REMARK VINA RESULT:    -8.124      0.829      1.089
REMARK INTER + INTRA:         -13.135
REMARK INTER:                 -12.127
REMARK INTRA:                  -1.009
REMARK UNBOUND:                -0.975
REMARK  Name = 
REMARK  9 active torsions:
REMARK  status: ('A' for Active; 'I' for Inactive)
REMARK    1  A    between atoms: N_1  and  C_2
REMARK    2  A    between atoms: C_2  and  C_3
REMARK    3  A    between atoms: C_2  and  C_26
REMARK    4  A    between atoms: C_3  and  N_4
REMARK    5  A    between atoms: N_4  and  C_5
REMARK    6  A    between atoms: C_5  and  C_6
REMARK    7  A    between atoms: C_9  and  C_10
REMARK    8  A    between atoms: C_10  and  N_11
REMARK    9  A    between atoms: C_12  and  C_14
REMARK                            x       y       z     vdW  Elec       q    Type
REMARK                         _______ _______ _______ _____ _____    ______ ____
ROOT
ATOM      1  C   UNL     1      45.620   6.712  12.727  0.00  0.00    +0.000 C 
ATOM      2  C   UNL     1      46.239   5.525  13.493  0.00  0.00    +0.000 C 
ATOM      3  C   UNL     1      47.759   5.472  13.358  0.00  0.00    +0.000 C 
ATOM      4  C   UNL     1      48.434   6.759  13.852  0.00  0.00    +0.000 C 
ATOM      5  C   UNL     1      47.846   7.965  13.099  0.00  0.00    +0.000 C 
ATOM      6  C   UNL     1      46.316   8.024  13.134  0.00  0.00    +0.000 C 
ENDROOT
BRANCH   1   7
ATOM      7  C   UNL     1      45.596   6.512  11.189  0.00  0.00    +0.000 C 
BRANCH   7   8
ATOM      8  N   UNL     1      45.419   5.088  10.905  0.00  0.00    +0.000 NA
ATOM      9  H   UNL     1      46.214   4.776  10.332  0.00  0.00    +0.000 HD
BRANCH   8  10
ATOM     10  C   UNL     1      44.240   4.790  10.064  0.00  0.00    +0.000 C 
BRANCH  10  11
ATOM     11  C   UNL     1      44.252   3.274   9.656  0.00  0.00    +0.000 C 
BRANCH  11  12
ATOM     12  C   UNL     1      45.306   2.962   8.582  0.00  0.00    +0.000 A 
ATOM     13  C   UNL     1      45.827   1.674   8.473  0.00  0.00    +0.000 A 
ATOM     14  C   UNL     1      46.848   1.430   7.555  0.00  0.00    +0.000 A 
ATOM     15  C   UNL     1      47.325   2.472   6.769  0.00  0.00    +0.000 A 
ATOM     16  C   UNL     1      46.757   3.720   6.930  0.00  0.00    +0.000 A 
ATOM     17  N   UNL     1      45.768   3.985   7.810  0.00  0.00    +0.000 NA
ENDBRANCH  11  12
BRANCH  11  18
ATOM     18  N   UNL     1      44.490   2.448  10.869  0.00  0.00    +0.000 NA
ATOM     19  H   UNL     1      45.421   2.670  11.219  0.00  0.00    +0.000 HD
ATOM     20  H   UNL     1      44.602   1.492  10.511  0.00  0.00    +0.000 HD
ENDBRANCH  11  18
ENDBRANCH  10  11
ENDBRANCH   8  10
ENDBRANCH   7   8
ENDBRANCH   1   7
BRANCH   4  21
ATOM     21  C   UNL     1      48.322   6.954  15.378  0.00  0.00    +0.000 C 
BRANCH  21  22
ATOM     22  N   UNL     1      49.383   6.290  16.105  0.00  0.00    +0.000 N 
ATOM     23  C   UNL     1      49.170   5.189  16.894  0.00  0.00    +0.000 C 
ATOM     24  O   UNL     1      48.057   4.686  17.030  0.00  0.00    +0.000 OA
ATOM     25  H   UNL     1      50.291   6.747  16.121  0.00  0.00    +0.000 HD
BRANCH  23  26
ATOM     26  C   UNL     1      50.354   4.600  17.532  0.00  0.00    +0.000 A 
ATOM     27  C   UNL     1      51.191   5.407  18.292  0.00  0.00    +0.000 A 
ATOM     28  S   UNL     1      52.523   4.579  18.959  0.00  0.00    +0.000 S 
ATOM     29  C   UNL     1      52.053   3.120  18.222  0.00  0.00    +0.000 A 
ATOM     30  N   UNL     1      52.808   1.995  18.358  0.00  0.00    +0.000 NA
ATOM     31  C   UNL     1      52.360   0.968  17.713  0.00  0.00    +0.000 A 
ATOM     32  N   UNL     1      51.214   0.961  16.964  0.00  0.00    +0.000 N 
ATOM     33  C   UNL     1      50.375   2.048  16.872  0.00  0.00    +0.000 A 
ATOM     34  O   UNL     1      49.284   1.958  16.321  0.00  0.00    +0.000 OA
ATOM     35  C   UNL     1      50.870   3.250  17.517  0.00  0.00    +0.000 A 
ATOM     36  H   UNL     1      50.893   0.113  16.523  0.00  0.00    +0.000 HD
ENDBRANCH  23  26
ENDBRANCH  21  22
ENDBRANCH   4  21
TORSDOF 9
ENDMDL
MODEL 3
REMARK VINA RESULT:    -7.565      1.583      2.360
REMARK INTER + INTRA:         -12.299
REMARK INTER:                 -11.273
REMARK INTRA:                  -1.025
REMARK UNBOUND:                -0.975
REMARK  Name = 
REMARK  9 active torsions:
REMARK  status: ('A' for Active; 'I' for Inactive)
REMARK    1  A    between atoms: N_1  and  C_2
REMARK    2  A    between atoms: C_2  and  C_3
REMARK    3  A    between atoms: C_2  and  C_26
REMARK    4  A    between atoms: C_3  and  N_4
REMARK    5  A    between atoms: N_4  and  C_5
REMARK    6  A    between atoms: C_5  and  C_6
REMARK    7  A    between atoms: C_9  and  C_10
REMARK    8  A    between atoms: C_10  and  N_11
REMARK    9  A    between atoms: C_12  and  C_14
REMARK                            x       y       z     vdW  Elec       q    Type
REMARK                         _______ _______ _______ _____ _____    ______ ____
ROOT
ATOM      1  C   UNL     1      45.166   6.080  12.458  0.00  0.00    +0.000 C 
ATOM      2  C   UNL     1      44.778   4.787  13.203  0.00  0.00    +0.000 C 
ATOM      3  C   UNL     1      45.926   3.782  13.265  0.00  0.00    +0.000 C 
ATOM      4  C   UNL     1      47.175   4.363  13.943  0.00  0.00    +0.000 C 
ATOM      5  C   UNL     1      47.596   5.652  13.215  0.00  0.00    +0.000 C 
ATOM      6  C   UNL     1      46.459   6.665  13.054  0.00  0.00    +0.000 C 
ENDROOT
BRANCH   1   7
ATOM      7  C   UNL     1      45.254   5.905  10.919  0.00  0.00    +0.000 C 
BRANCH   7   8
ATOM      8  N   UNL     1      44.198   4.987  10.491  0.00  0.00    +0.000 NA
ATOM      9  H   UNL     1      44.297   4.115  11.029  0.00  0.00    +0.000 HD
BRANCH   8  10
ATOM     10  C   UNL     1      44.323   4.550   9.085  0.00  0.00    +0.000 C 
BRANCH  10  11
ATOM     11  C   UNL     1      44.438   2.986   9.026  0.00  0.00    +0.000 C 
BRANCH  11  12
ATOM     12  C   UNL     1      45.644   2.516   8.197  0.00  0.00    +0.000 A 
ATOM     13  C   UNL     1      46.219   3.372   7.259  0.00  0.00    +0.000 A 
ATOM     14  C   UNL     1      47.253   2.898   6.452  0.00  0.00    +0.000 A 
ATOM     15  C   UNL     1      47.689   1.587   6.597  0.00  0.00    +0.000 A 
ATOM     16  C   UNL     1      47.075   0.800   7.551  0.00  0.00    +0.000 A 
ATOM     17  N   UNL     1      46.073   1.231   8.346  0.00  0.00    +0.000 NA
ENDBRANCH  11  12
BRANCH  11  18
ATOM     18  N   UNL     1      44.524   2.454  10.411  0.00  0.00    +0.000 NA
ATOM     19  H   UNL     1      43.633   2.638  10.870  0.00  0.00    +0.000 HD
ATOM     20  H   UNL     1      45.166   3.094  10.893  0.00  0.00    +0.000 HD
ENDBRANCH  11  18
ENDBRANCH  10  11
ENDBRANCH   8  10
ENDBRANCH   7   8
ENDBRANCH   1   7
BRANCH   4  21
ATOM     21  C   UNL     1      46.981   4.620  15.451  0.00  0.00    +0.000 C 
BRANCH  21  22
ATOM     22  N   UNL     1      48.230   4.604  16.184  0.00  0.00    +0.000 N 
ATOM     23  C   UNL     1      48.590   3.577  17.019  0.00  0.00    +0.000 C 
ATOM     24  O   UNL     1      47.875   2.593  17.193  0.00  0.00    +0.000 OA
ATOM     25  H   UNL     1      48.789   5.452  16.167  0.00  0.00    +0.000 HD
BRANCH  23  26
ATOM     26  C   UNL     1      49.907   3.683  17.658  0.00  0.00    +0.000 A 
ATOM     27  C   UNL     1      50.874   2.723  17.391  0.00  0.00    +0.000 A 
ATOM     28  S   UNL     1      52.345   2.980  18.212  0.00  0.00    +0.000 S 
ATOM     29  C   UNL     1      51.730   4.363  18.989  0.00  0.00    +0.000 A 
ATOM     30  N   UNL     1      52.485   5.052  19.888  0.00  0.00    +0.000 NA
ATOM     31  C   UNL     1      51.883   6.056  20.435  0.00  0.00    +0.000 A 
ATOM     32  N   UNL     1      50.602   6.445  20.147  0.00  0.00    +0.000 N 
ATOM     33  C   UNL     1      49.835   5.832  19.183  0.00  0.00    +0.000 A 
ATOM     34  O   UNL     1      48.754   6.301  18.845  0.00  0.00    +0.000 OA
ATOM     35  C   UNL     1      50.437   4.652  18.591  0.00  0.00    +0.000 A 
ATOM     36  H   UNL     1      50.205   7.267  20.575  0.00  0.00    +0.000 HD
ENDBRANCH  23  26
ENDBRANCH  21  22
ENDBRANCH   4  21
TORSDOF 9
ENDMDL
MODEL 4
REMARK VINA RESULT:    -7.169      2.163      2.614
REMARK INTER + INTRA:         -11.707
REMARK INTER:                 -11.795
REMARK INTRA:                   0.089
REMARK UNBOUND:                -0.975
REMARK  Name = 
REMARK  9 active torsions:
REMARK  status: ('A' for Active; 'I' for Inactive)
REMARK    1  A    between atoms: N_1  and  C_2
REMARK    2  A    between atoms: C_2  and  C_3
REMARK    3  A    between atoms: C_2  and  C_26
REMARK    4  A    between atoms: C_3  and  N_4
REMARK    5  A    between atoms: N_4  and  C_5
REMARK    6  A    between atoms: C_5  and  C_6
REMARK    7  A    between atoms: C_9  and  C_10
REMARK    8  A    between atoms: C_10  and  N_11
REMARK    9  A    between atoms: C_12  and  C_14
REMARK                            x       y       z     vdW  Elec       q    Type
REMARK                         _______ _______ _______ _____ _____    ______ ____
ROOT
ATOM      1  C   UNL     1      43.780   6.169  12.218  0.00  0.00    +0.000 C 
ATOM      2  C   UNL     1      44.736   5.589  13.279  0.00  0.00    +0.000 C 
ATOM      3  C   UNL     1      46.070   5.145  12.682  0.00  0.00    +0.000 C 
ATOM      4  C   UNL     1      46.798   6.290  11.963  0.00  0.00    +0.000 C 
ATOM      5  C   UNL     1      45.873   6.885  10.888  0.00  0.00    +0.000 C 
ATOM      6  C   UNL     1      44.489   7.275  11.415  0.00  0.00    +0.000 C 
ENDROOT
BRANCH   1   7
ATOM      7  C   UNL     1      43.147   5.091  11.300  0.00  0.00    +0.000 C 
BRANCH   7   8
ATOM      8  N   UNL     1      44.200   4.179  10.853  0.00  0.00    +0.000 NA
ATOM      9  H   UNL     1      45.085   4.482  11.280  0.00  0.00    +0.000 HD
BRANCH   8  10
ATOM     10  C   UNL     1      44.468   4.244   9.401  0.00  0.00    +0.000 C 
BRANCH  10  11
ATOM     11  C   UNL     1      44.476   2.794   8.800  0.00  0.00    +0.000 C 
BRANCH  11  12
ATOM     12  C   UNL     1      45.644   2.566   7.828  0.00  0.00    +0.000 A 
ATOM     13  C   UNL     1      46.470   1.454   7.982  0.00  0.00    +0.000 A 
ATOM     14  C   UNL     1      47.578   1.312   7.148  0.00  0.00    +0.000 A 
ATOM     15  C   UNL     1      47.839   2.277   6.184  0.00  0.00    +0.000 A 
ATOM     16  C   UNL     1      46.974   3.349   6.088  0.00  0.00    +0.000 A 
ATOM     17  N   UNL     1      45.893   3.513   6.880  0.00  0.00    +0.000 NA
ENDBRANCH  11  12
BRANCH  11  18
ATOM     18  N   UNL     1      44.530   1.809   9.912  0.00  0.00    +0.000 NA
ATOM     19  H   UNL     1      44.426   0.879   9.510  0.00  0.00    +0.000 HD
ATOM     20  H   UNL     1      43.644   1.940  10.416  0.00  0.00    +0.000 HD
ENDBRANCH  11  18
ENDBRANCH  10  11
ENDBRANCH   8  10
ENDBRANCH   7   8
ENDBRANCH   1   7
BRANCH   4  21
ATOM     21  C   UNL     1      47.302   7.386  12.924  0.00  0.00    +0.000 C 
BRANCH  21  22
ATOM     22  N   UNL     1      47.518   6.893  14.269  0.00  0.00    +0.000 N 
ATOM     23  C   UNL     1      48.766   6.753  14.819  0.00  0.00    +0.000 C 
ATOM     24  O   UNL     1      49.789   7.047  14.206  0.00  0.00    +0.000 OA
ATOM     25  H   UNL     1      46.711   6.521  14.761  0.00  0.00    +0.000 HD
BRANCH  23  26
ATOM     26  C   UNL     1      48.821   6.283  16.209  0.00  0.00    +0.000 A 
ATOM     27  C   UNL     1      49.333   7.120  17.192  0.00  0.00    +0.000 A 
ATOM     28  S   UNL     1      49.336   6.429  18.750  0.00  0.00    +0.000 S 
ATOM     29  C   UNL     1      48.691   4.970  18.162  0.00  0.00    +0.000 A 
ATOM     30  N   UNL     1      48.482   3.913  18.994  0.00  0.00    +0.000 NA
ATOM     31  C   UNL     1      48.028   2.853  18.412  0.00  0.00    +0.000 A 
ATOM     32  N   UNL     1      47.744   2.763  17.075  0.00  0.00    +0.000 N 
ATOM     33  C   UNL     1      47.855   3.830  16.215  0.00  0.00    +0.000 A 
ATOM     34  O   UNL     1      47.447   3.756  15.062  0.00  0.00    +0.000 OA
ATOM     35  C   UNL     1      48.431   5.025  16.804  0.00  0.00    +0.000 A 
ATOM     36  H   UNL     1      47.347   1.920  16.689  0.00  0.00    +0.000 HD
ENDBRANCH  23  26
ENDBRANCH  21  22
ENDBRANCH   4  21
TORSDOF 9
ENDMDL
MODEL 5
REMARK VINA RESULT:    -7.116      2.569      3.016
REMARK INTER + INTRA:         -11.627
REMARK INTER:                 -11.348
REMARK INTRA:                  -0.278
REMARK UNBOUND:                -0.975
REMARK  Name = 
REMARK  9 active torsions:
REMARK  status: ('A' for Active; 'I' for Inactive)
REMARK    1  A    between atoms: N_1  and  C_2
REMARK    2  A    between atoms: C_2  and  C_3
REMARK    3  A    between atoms: C_2  and  C_26
REMARK    4  A    between atoms: C_3  and  N_4
REMARK    5  A    between atoms: N_4  and  C_5
REMARK    6  A    between atoms: C_5  and  C_6
REMARK    7  A    between atoms: C_9  and  C_10
REMARK    8  A    between atoms: C_10  and  N_11
REMARK    9  A    between atoms: C_12  and  C_14
REMARK                            x       y       z     vdW  Elec       q    Type
REMARK                         _______ _______ _______ _____ _____    ______ ____
ROOT
ATOM      1  C   UNL     1      45.212   7.201  12.776  0.00  0.00    +0.000 C 
ATOM      2  C   UNL     1      46.388   6.297  13.196  0.00  0.00    +0.000 C 
ATOM      3  C   UNL     1      47.670   6.612  12.429  0.00  0.00    +0.000 C 
ATOM      4  C   UNL     1      48.109   8.073  12.603  0.00  0.00    +0.000 C 
ATOM      5  C   UNL     1      46.959   9.004  12.180  0.00  0.00    +0.000 C 
ATOM      6  C   UNL     1      45.626   8.681  12.861  0.00  0.00    +0.000 C 
ENDROOT
BRANCH   1   7
ATOM      7  C   UNL     1      44.614   6.836  11.392  0.00  0.00    +0.000 C 
BRANCH   7   8
ATOM      8  N   UNL     1      44.720   5.389  11.203  0.00  0.00    +0.000 NA
ATOM      9  H   UNL     1      45.390   5.026  11.894  0.00  0.00    +0.000 HD
BRANCH   8  10
ATOM     10  C   UNL     1      45.308   4.999   9.904  0.00  0.00    +0.000 C 
BRANCH  10  11
ATOM     11  C   UNL     1      44.722   3.614   9.454  0.00  0.00    +0.000 C 
BRANCH  11  12
ATOM     12  C   UNL     1      45.544   2.965   8.329  0.00  0.00    +0.000 A 
ATOM     13  C   UNL     1      46.004   1.657   8.470  0.00  0.00    +0.000 A 
ATOM     14  C   UNL     1      46.825   1.116   7.482  0.00  0.00    +0.000 A 
ATOM     15  C   UNL     1      47.169   1.887   6.379  0.00  0.00    +0.000 A 
ATOM     16  C   UNL     1      46.671   3.174   6.306  0.00  0.00    +0.000 A 
ATOM     17  N   UNL     1      45.874   3.723   7.246  0.00  0.00    +0.000 NA
ENDBRANCH  11  12
BRANCH  11  18
ATOM     18  N   UNL     1      44.656   2.711  10.633  0.00  0.00    +0.000 NA
ATOM     19  H   UNL     1      43.756   2.233  10.608  0.00  0.00    +0.000 HD
ATOM     20  H   UNL     1      44.557   3.343  11.436  0.00  0.00    +0.000 HD
ENDBRANCH  11  18
ENDBRANCH  10  11
ENDBRANCH   8  10
ENDBRANCH   7   8
ENDBRANCH   1   7
BRANCH   4  21
ATOM     21  C   UNL     1      48.584   8.398  14.034  0.00  0.00    +0.000 C 
BRANCH  21  22
ATOM     22  N   UNL     1      48.268   7.346  14.978  0.00  0.00    +0.000 N 
ATOM     23  C   UNL     1      49.228   6.581  15.589  0.00  0.00    +0.000 C 
ATOM     24  O   UNL     1      50.428   6.744  15.379  0.00  0.00    +0.000 OA
ATOM     25  H   UNL     1      47.289   7.095  15.082  0.00  0.00    +0.000 HD
BRANCH  23  26
ATOM     26  C   UNL     1      48.754   5.583  16.556  0.00  0.00    +0.000 A 
ATOM     27  C   UNL     1      47.826   4.631  16.155  0.00  0.00    +0.000 A 
ATOM     28  S   UNL     1      47.371   3.551  17.392  0.00  0.00    +0.000 S 
ATOM     29  C   UNL     1      48.365   4.343  18.522  0.00  0.00    +0.000 A 
ATOM     30  N   UNL     1      48.407   3.936  19.820  0.00  0.00    +0.000 NA
ATOM     31  C   UNL     1      49.170   4.649  20.581  0.00  0.00    +0.000 A 
ATOM     32  N   UNL     1      49.912   5.718  20.154  0.00  0.00    +0.000 N 
ATOM     33  C   UNL     1      49.969   6.108  18.836  0.00  0.00    +0.000 A 
ATOM     34  O   UNL     1      50.760   6.968  18.467  0.00  0.00    +0.000 OA
ATOM     35  C   UNL     1      49.073   5.386  17.952  0.00  0.00    +0.000 A 
ATOM     36  H   UNL     1      50.526   6.205  20.789  0.00  0.00    +0.000 HD
ENDBRANCH  23  26
ENDBRANCH  21  22
ENDBRANCH   4  21
TORSDOF 9
ENDMDL
MODEL 6
REMARK VINA RESULT:    -7.071      3.431      8.858
REMARK INTER + INTRA:         -11.560
REMARK INTER:                 -10.122
REMARK INTRA:                  -1.438
REMARK UNBOUND:                -0.975
REMARK  Name = 
REMARK  9 active torsions:
REMARK  status: ('A' for Active; 'I' for Inactive)
REMARK    1  A    between atoms: N_1  and  C_2
REMARK    2  A    between atoms: C_2  and  C_3
REMARK    3  A    between atoms: C_2  and  C_26
REMARK    4  A    between atoms: C_3  and  N_4
REMARK    5  A    between atoms: N_4  and  C_5
REMARK    6  A    between atoms: C_5  and  C_6
REMARK    7  A    between atoms: C_9  and  C_10
REMARK    8  A    between atoms: C_10  and  N_11
REMARK    9  A    between atoms: C_12  and  C_14
REMARK                            x       y       z     vdW  Elec       q    Type
REMARK                         _______ _______ _______ _____ _____    ______ ____
ROOT
ATOM      1  C   UNL     1      48.858   7.516  15.313  0.00  0.00    +0.000 C 
ATOM      2  C   UNL     1      48.393   8.879  14.761  0.00  0.00    +0.000 C 
ATOM      3  C   UNL     1      48.852   9.114  13.324  0.00  0.00    +0.000 C 
ATOM      4  C   UNL     1      48.357   8.021  12.367  0.00  0.00    +0.000 C 
ATOM      5  C   UNL     1      48.815   6.646  12.883  0.00  0.00    +0.000 C 
ATOM      6  C   UNL     1      48.450   6.388  14.348  0.00  0.00    +0.000 C 
ENDROOT
BRANCH   1   7
ATOM      7  C   UNL     1      50.369   7.472  15.662  0.00  0.00    +0.000 C 
BRANCH   7   8
ATOM      8  N   UNL     1      50.677   6.166  16.245  0.00  0.00    +0.000 NA
ATOM      9  H   UNL     1      49.788   5.711  16.492  0.00  0.00    +0.000 HD
BRANCH   8  10
ATOM     10  C   UNL     1      51.404   6.243  17.529  0.00  0.00    +0.000 C 
BRANCH  10  11
ATOM     11  C   UNL     1      50.884   5.123  18.498  0.00  0.00    +0.000 C 
BRANCH  11  12
ATOM     12  C   UNL     1      49.577   4.480  18.007  0.00  0.00    +0.000 A 
ATOM     13  C   UNL     1      49.610   3.247  17.358  0.00  0.00    +0.000 A 
ATOM     14  C   UNL     1      48.427   2.722  16.839  0.00  0.00    +0.000 A 
ATOM     15  C   UNL     1      47.243   3.435  16.976  0.00  0.00    +0.000 A 
ATOM     16  C   UNL     1      47.287   4.648  17.635  0.00  0.00    +0.000 A 
ATOM     17  N   UNL     1      48.416   5.180  18.149  0.00  0.00    +0.000 NA
ENDBRANCH  11  12
BRANCH  11  18
ATOM     18  N   UNL     1      51.941   4.090  18.654  0.00  0.00    +0.000 NA
ATOM     19  H   UNL     1      51.480   3.187  18.757  0.00  0.00    +0.000 HD
ATOM     20  H   UNL     1      52.328   4.257  19.591  0.00  0.00    +0.000 HD
ENDBRANCH  11  18
ENDBRANCH  10  11
ENDBRANCH   8  10
ENDBRANCH   7   8
ENDBRANCH   1   7
BRANCH   4  21
ATOM     21  C   UNL     1      46.830   8.049  12.152  0.00  0.00    +0.000 C 
BRANCH  21  22
ATOM     22  N   UNL     1      46.277   6.733  11.910  0.00  0.00    +0.000 N 
ATOM     23  C   UNL     1      44.972   6.531  11.539  0.00  0.00    +0.000 C 
ATOM     24  O   UNL     1      44.185   7.460  11.378  0.00  0.00    +0.000 OA
ATOM     25  H   UNL     1      46.856   5.935  12.153  0.00  0.00    +0.000 HD
BRANCH  23  26
ATOM     26  C   UNL     1      44.571   5.141  11.285  0.00  0.00    +0.000 A 
ATOM     27  C   UNL     1      43.783   4.478  12.217  0.00  0.00    +0.000 A 
ATOM     28  S   UNL     1      43.408   2.874  11.783  0.00  0.00    +0.000 S 
ATOM     29  C   UNL     1      44.321   2.991  10.353  0.00  0.00    +0.000 A 
ATOM     30  N   UNL     1      44.455   1.922   9.520  0.00  0.00    +0.000 NA
ATOM     31  C   UNL     1      45.208   2.134   8.492  0.00  0.00    +0.000 A 
ATOM     32  N   UNL     1      45.821   3.326   8.211  0.00  0.00    +0.000 N 
ATOM     33  C   UNL     1      45.642   4.456   8.975  0.00  0.00    +0.000 A 
ATOM     34  O   UNL     1      46.080   5.541   8.610  0.00  0.00    +0.000 OA
ATOM     35  C   UNL     1      44.864   4.252  10.183  0.00  0.00    +0.000 A 
ATOM     36  H   UNL     1      46.359   3.442   7.366  0.00  0.00    +0.000 HD
ENDBRANCH  23  26
ENDBRANCH  21  22
ENDBRANCH   4  21
TORSDOF 9
ENDMDL
MODEL 7
REMARK VINA RESULT:    -6.943      3.459      8.766
REMARK INTER + INTRA:         -11.368
REMARK INTER:                  -9.375
REMARK INTRA:                  -1.992
REMARK UNBOUND:                -0.975
REMARK  Name = 
REMARK  9 active torsions:
REMARK  status: ('A' for Active; 'I' for Inactive)
REMARK    1  A    between atoms: N_1  and  C_2
REMARK    2  A    between atoms: C_2  and  C_3
REMARK    3  A    between atoms: C_2  and  C_26
REMARK    4  A    between atoms: C_3  and  N_4
REMARK    5  A    between atoms: N_4  and  C_5
REMARK    6  A    between atoms: C_5  and  C_6
REMARK    7  A    between atoms: C_9  and  C_10
REMARK    8  A    between atoms: C_10  and  N_11
REMARK    9  A    between atoms: C_12  and  C_14
REMARK                            x       y       z     vdW  Elec       q    Type
REMARK                         _______ _______ _______ _____ _____    ______ ____
ROOT
ATOM      1  C   UNL     1      50.691   7.696  16.518  0.00  0.00    +0.000 C 
ATOM      2  C   UNL     1      50.162   6.330  16.037  0.00  0.00    +0.000 C 
ATOM      3  C   UNL     1      48.657   6.345  15.777  0.00  0.00    +0.000 C 
ATOM      4  C   UNL     1      48.255   7.401  14.738  0.00  0.00    +0.000 C 
ATOM      5  C   UNL     1      48.759   8.782  15.194  0.00  0.00    +0.000 C 
ATOM      6  C   UNL     1      50.250   8.806  15.546  0.00  0.00    +0.000 C 
ENDROOT
BRANCH   1   7
ATOM      7  C   UNL     1      50.319   8.021  17.989  0.00  0.00    +0.000 C 
BRANCH   7   8
ATOM      8  N   UNL     1      50.448   6.801  18.785  0.00  0.00    +0.000 NA
ATOM      9  H   UNL     1      50.507   6.003  18.137  0.00  0.00    +0.000 HD
BRANCH   8  10
ATOM     10  C   UNL     1      49.260   6.499  19.610  0.00  0.00    +0.000 C 
BRANCH  10  11
ATOM     11  C   UNL     1      49.243   4.972  19.973  0.00  0.00    +0.000 C 
BRANCH  11  12
ATOM     12  C   UNL     1      49.157   4.073  18.730  0.00  0.00    +0.000 A 
ATOM     13  C   UNL     1      47.914   3.770  18.175  0.00  0.00    +0.000 A 
ATOM     14  C   UNL     1      47.847   2.880  17.105  0.00  0.00    +0.000 A 
ATOM     15  C   UNL     1      49.015   2.313  16.611  0.00  0.00    +0.000 A 
ATOM     16  C   UNL     1      50.210   2.664  17.209  0.00  0.00    +0.000 A 
ATOM     17  N   UNL     1      50.305   3.523  18.245  0.00  0.00    +0.000 NA
ENDBRANCH  11  12
BRANCH  11  18
ATOM     18  N   UNL     1      50.461   4.648  20.762  0.00  0.00    +0.000 NA
ATOM     19  H   UNL     1      50.952   3.896  20.281  0.00  0.00    +0.000 HD
ATOM     20  H   UNL     1      50.105   4.186  21.607  0.00  0.00    +0.000 HD
ENDBRANCH  11  18
ENDBRANCH  10  11
ENDBRANCH   8  10
ENDBRANCH   7   8
ENDBRANCH   1   7
BRANCH   4  21
ATOM     21  C   UNL     1      48.755   7.074  13.316  0.00  0.00    +0.000 C 
BRANCH  21  22
ATOM     22  N   UNL     1      47.844   6.215  12.589  0.00  0.00    +0.000 N 
ATOM     23  C   UNL     1      46.786   6.697  11.863  0.00  0.00    +0.000 C 
ATOM     24  O   UNL     1      46.544   7.899  11.775  0.00  0.00    +0.000 OA
ATOM     25  H   UNL     1      47.933   5.214  12.738  0.00  0.00    +0.000 HD
BRANCH  23  26
ATOM     26  C   UNL     1      45.978   5.705  11.143  0.00  0.00    +0.000 A 
ATOM     27  C   UNL     1      45.942   5.733   9.754  0.00  0.00    +0.000 A 
ATOM     28  S   UNL     1      44.957   4.523   9.068  0.00  0.00    +0.000 S 
ATOM     29  C   UNL     1      44.508   3.943  10.603  0.00  0.00    +0.000 A 
ATOM     30  N   UNL     1      43.625   2.916  10.729  0.00  0.00    +0.000 NA
ATOM     31  C   UNL     1      43.338   2.602  11.950  0.00  0.00    +0.000 A 
ATOM     32  N   UNL     1      43.875   3.209  13.054  0.00  0.00    +0.000 N 
ATOM     33  C   UNL     1      44.836   4.189  12.973  0.00  0.00    +0.000 A 
ATOM     34  O   UNL     1      45.404   4.601  13.979  0.00  0.00    +0.000 OA
ATOM     35  C   UNL     1      45.139   4.631  11.624  0.00  0.00    +0.000 A 
ATOM     36  H   UNL     1      43.646   2.886  13.981  0.00  0.00    +0.000 HD
ENDBRANCH  23  26
ENDBRANCH  21  22
ENDBRANCH   4  21
TORSDOF 9
ENDMDL
MODEL 8
REMARK VINA RESULT:    -6.918      2.263      2.917
REMARK INTER + INTRA:         -11.330
REMARK INTER:                 -10.276
REMARK INTRA:                  -1.054
REMARK UNBOUND:                -0.975
REMARK  Name = 
REMARK  9 active torsions:
REMARK  status: ('A' for Active; 'I' for Inactive)
REMARK    1  A    between atoms: N_1  and  C_2
REMARK    2  A    between atoms: C_2  and  C_3
REMARK    3  A    between atoms: C_2  and  C_26
REMARK    4  A    between atoms: C_3  and  N_4
REMARK    5  A    between atoms: N_4  and  C_5
REMARK    6  A    between atoms: C_5  and  C_6
REMARK    7  A    between atoms: C_9  and  C_10
REMARK    8  A    between atoms: C_10  and  N_11
REMARK    9  A    between atoms: C_12  and  C_14
REMARK                            x       y       z     vdW  Elec       q    Type
REMARK                         _______ _______ _______ _____ _____    ______ ____
ROOT
ATOM      1  C   UNL     1      46.672   6.423  12.025  0.00  0.00    +0.000 C 
ATOM      2  C   UNL     1      48.037   6.818  11.427  0.00  0.00    +0.000 C 
ATOM      3  C   UNL     1      48.412   8.267  11.734  0.00  0.00    +0.000 C 
ATOM      4  C   UNL     1      48.455   8.551  13.242  0.00  0.00    +0.000 C 
ATOM      5  C   UNL     1      47.101   8.177  13.869  0.00  0.00    +0.000 C 
ATOM      6  C   UNL     1      46.637   6.758  13.527  0.00  0.00    +0.000 C 
ENDROOT
BRANCH   1   7
ATOM      7  C   UNL     1      45.463   7.023  11.260  0.00  0.00    +0.000 C 
BRANCH   7   8
ATOM      8  N   UNL     1      44.934   6.008  10.350  0.00  0.00    +0.000 NA
ATOM      9  H   UNL     1      43.926   6.179  10.233  0.00  0.00    +0.000 HD
BRANCH   8  10
ATOM     10  C   UNL     1      44.997   4.633  10.890  0.00  0.00    +0.000 C 
BRANCH  10  11
ATOM     11  C   UNL     1      44.294   3.642   9.896  0.00  0.00    +0.000 C 
BRANCH  11  12
ATOM     12  C   UNL     1      45.240   3.148   8.790  0.00  0.00    +0.000 A 
ATOM     13  C   UNL     1      45.604   1.803   8.736  0.00  0.00    +0.000 A 
ATOM     14  C   UNL     1      46.534   1.390   7.783  0.00  0.00    +0.000 A 
ATOM     15  C   UNL     1      47.080   2.322   6.909  0.00  0.00    +0.000 A 
ATOM     16  C   UNL     1      46.668   3.635   7.020  0.00  0.00    +0.000 A 
ATOM     17  N   UNL     1      45.769   4.064   7.931  0.00  0.00    +0.000 NA
ENDBRANCH  11  12
BRANCH  11  18
ATOM     18  N   UNL     1      43.750   2.491  10.663  0.00  0.00    +0.000 NA
ATOM     19  H   UNL     1      44.318   2.380  11.501  0.00  0.00    +0.000 HD
ATOM     20  H   UNL     1      44.003   1.667  10.105  0.00  0.00    +0.000 HD
ENDBRANCH  11  18
ENDBRANCH  10  11
ENDBRANCH   8  10
ENDBRANCH   7   8
ENDBRANCH   1   7
BRANCH   4  21
ATOM     21  C   UNL     1      49.614   7.831  13.961  0.00  0.00    +0.000 C 
BRANCH  21  22
ATOM     22  N   UNL     1      49.361   7.642  15.375  0.00  0.00    +0.000 N 
ATOM     23  C   UNL     1      50.283   7.094  16.229  0.00  0.00    +0.000 C 
ATOM     24  O   UNL     1      51.394   6.732  15.850  0.00  0.00    +0.000 OA
ATOM     25  H   UNL     1      48.414   7.810  15.703  0.00  0.00    +0.000 HD
BRANCH  23  26
ATOM     26  C   UNL     1      49.897   7.009  17.643  0.00  0.00    +0.000 A 
ATOM     27  C   UNL     1      49.942   8.151  18.432  0.00  0.00    +0.000 A 
ATOM     28  S   UNL     1      49.472   7.888  20.049  0.00  0.00    +0.000 S 
ATOM     29  C   UNL     1      49.231   6.229  19.765  0.00  0.00    +0.000 A 
ATOM     30  N   UNL     1      48.856   5.396  20.774  0.00  0.00    +0.000 NA
ATOM     31  C   UNL     1      48.749   4.154  20.433  0.00  0.00    +0.000 A 
ATOM     32  N   UNL     1      48.960   3.676  19.167  0.00  0.00    +0.000 N 
ATOM     33  C   UNL     1      49.253   4.493  18.100  0.00  0.00    +0.000 A 
ATOM     34  O   UNL     1      49.284   4.051  16.957  0.00  0.00    +0.000 OA
ATOM     35  C   UNL     1      49.458   5.888  18.444  0.00  0.00    +0.000 A 
ATOM     36  H   UNL     1      48.814   2.701  18.954  0.00  0.00    +0.000 HD
ENDBRANCH  23  26
ENDBRANCH  21  22
ENDBRANCH   4  21
TORSDOF 9
ENDMDL
MODEL 9
REMARK VINA RESULT:    -6.481      3.937      4.808
REMARK INTER + INTRA:         -10.677
REMARK INTER:                 -10.069
REMARK INTRA:                  -0.608
REMARK UNBOUND:                -0.975
REMARK  Name = 
REMARK  9 active torsions:
REMARK  status: ('A' for Active; 'I' for Inactive)
REMARK    1  A    between atoms: N_1  and  C_2
REMARK    2  A    between atoms: C_2  and  C_3
REMARK    3  A    between atoms: C_2  and  C_26
REMARK    4  A    between atoms: C_3  and  N_4
REMARK    5  A    between atoms: N_4  and  C_5
REMARK    6  A    between atoms: C_5  and  C_6
REMARK    7  A    between atoms: C_9  and  C_10
REMARK    8  A    between atoms: C_10  and  N_11
REMARK    9  A    between atoms: C_12  and  C_14
REMARK                            x       y       z     vdW  Elec       q    Type
REMARK                         _______ _______ _______ _____ _____    ______ ____
ROOT
ATOM      1  C   UNL     1      43.921   6.050  12.501  0.00  0.00    +0.000 C 
ATOM      2  C   UNL     1      44.587   4.883  13.257  0.00  0.00    +0.000 C 
ATOM      3  C   UNL     1      45.914   4.462  12.628  0.00  0.00    +0.000 C 
ATOM      4  C   UNL     1      46.920   5.619  12.561  0.00  0.00    +0.000 C 
ATOM      5  C   UNL     1      46.290   6.799  11.802  0.00  0.00    +0.000 C 
ATOM      6  C   UNL     1      44.917   7.213  12.341  0.00  0.00    +0.000 C 
ENDROOT
BRANCH   1   7
ATOM      7  C   UNL     1      43.285   5.630  11.150  0.00  0.00    +0.000 C 
BRANCH   7   8
ATOM      8  N   UNL     1      43.816   4.322  10.769  0.00  0.00    +0.000 NA
ATOM      9  H   UNL     1      44.537   4.059  11.454  0.00  0.00    +0.000 HD
BRANCH   8  10
ATOM     10  C   UNL     1      44.538   4.324   9.480  0.00  0.00    +0.000 C 
BRANCH  10  11
ATOM     11  C   UNL     1      44.457   2.899   8.826  0.00  0.00    +0.000 C 
BRANCH  11  12
ATOM     12  C   UNL     1      45.600   2.642   7.832  0.00  0.00    +0.000 A 
ATOM     13  C   UNL     1      46.396   1.505   7.966  0.00  0.00    +0.000 A 
ATOM     14  C   UNL     1      47.485   1.334   7.113  0.00  0.00    +0.000 A 
ATOM     15  C   UNL     1      47.756   2.296   6.148  0.00  0.00    +0.000 A 
ATOM     16  C   UNL     1      46.921   3.393   6.071  0.00  0.00    +0.000 A 
ATOM     17  N   UNL     1      45.859   3.584   6.883  0.00  0.00    +0.000 NA
ENDBRANCH  11  12
BRANCH  11  18
ATOM     18  N   UNL     1      44.465   1.872   9.900  0.00  0.00    +0.000 NA
ATOM     19  H   UNL     1      43.974   2.260  10.704  0.00  0.00    +0.000 HD
ATOM     20  H   UNL     1      45.440   1.842  10.220  0.00  0.00    +0.000 HD
ENDBRANCH  11  18
ENDBRANCH  10  11
ENDBRANCH   8  10
ENDBRANCH   7   8
ENDBRANCH   1   7
BRANCH   4  21
ATOM     21  C   UNL     1      47.427   6.063  13.948  0.00  0.00    +0.000 C 
BRANCH  21  22
ATOM     22  N   UNL     1      48.718   6.715  13.888  0.00  0.00    +0.000 N 
ATOM     23  C   UNL     1      48.886   8.058  14.110  0.00  0.00    +0.000 C 
ATOM     24  O   UNL     1      47.946   8.799  14.384  0.00  0.00    +0.000 OA
ATOM     25  H   UNL     1      49.499   6.165  13.542  0.00  0.00    +0.000 HD
BRANCH  23  26
ATOM     26  C   UNL     1      50.263   8.564  14.058  0.00  0.00    +0.000 A 
ATOM     27  C   UNL     1      50.845   9.078  15.210  0.00  0.00    +0.000 A 
ATOM     28  S   UNL     1      52.441   9.630  14.987  0.00  0.00    +0.000 S 
ATOM     29  C   UNL     1      52.401   9.242  13.331  0.00  0.00    +0.000 A 
ATOM     30  N   UNL     1      53.464   9.510  12.525  0.00  0.00    +0.000 NA
ATOM     31  C   UNL     1      53.286   9.204  11.283  0.00  0.00    +0.000 A 
ATOM     32  N   UNL     1      52.148   8.633  10.779  0.00  0.00    +0.000 N 
ATOM     33  C   UNL     1      51.085   8.264  11.571  0.00  0.00    +0.000 A 
ATOM     34  O   UNL     1      50.150   7.619  11.111  0.00  0.00    +0.000 OA
ATOM     35  C   UNL     1      51.204   8.654  12.964  0.00  0.00    +0.000 A 
ATOM     36  H   UNL     1      52.088   8.375   9.806  0.00  0.00    +0.000 HD
ENDBRANCH  23  26
ENDBRANCH  21  22
ENDBRANCH   4  21
TORSDOF 9
ENDMDL
