MODEL 1
REMARK VINA RESULT:    -8.101      0.000      0.000
REMARK INTER + INTRA:         -12.430
REMARK INTER:                 -11.416
REMARK INTRA:                  -1.014
REMARK UNBOUND:                -1.014
REMARK  Name = 
REMARK  8 active torsions:
REMARK  status: ('A' for Active; 'I' for Inactive)
REMARK    1  A    between atoms: C_1  and  O_2
REMARK    2  A    between atoms: O_2  and  C_3
REMARK    3  A    between atoms: C_10  and  C_11
REMARK    4  A    between atoms: N_13  and  C_14
REMARK    5  A    between atoms: C_14  and  C_15
REMARK    6  A    between atoms: C_18  and  C_19
REMARK    7  A    between atoms: C_19  and  C_20
REMARK    8  A    between atoms: C_20  and  N_21
REMARK                            x       y       z     vdW  Elec       q    Type
REMARK                         _______ _______ _______ _____ _____    ______ ____
ROOT
ATOM      1  C   UNL     1      47.982   7.066  13.293  0.00  0.00    +0.000 C 
ENDROOT
BRANCH   1   2
ATOM      2  C   UNL     1      46.871   6.215  12.737  0.00  0.00    +0.000 A 
ATOM      3  C   UNL     1      46.399   5.110  13.455  0.00  0.00    +0.000 A 
ATOM      4  C   UNL     1      45.397   4.291  12.924  0.00  0.00    +0.000 A 
ATOM      5  C   UNL     1      44.848   4.546  11.660  0.00  0.00    +0.000 A 
ATOM      6  C   UNL     1      45.324   5.656  10.947  0.00  0.00    +0.000 A 
ATOM      7  C   UNL     1      46.327   6.477  11.476  0.00  0.00    +0.000 A 
BRANCH   5   8
ATOM      8  C   UNL     1      43.768   3.683  11.025  0.00  0.00    +0.000 C 
BRANCH   8   9
ATOM      9  C   UNL     1      44.094   3.151   9.625  0.00  0.00    +0.000 C 
BRANCH   9  10
ATOM     10  N   UNL     1      45.132   2.129   9.660  0.00  0.00    +0.000 N 
ATOM     11  C   UNL     1      45.934   2.158   8.517  0.00  0.00    +0.000 A 
ATOM     12  N   UNL     1      46.143   3.319   7.876  0.00  0.00    +0.000 NA
ATOM     13  C   UNL     1      46.888   3.284   6.757  0.00  0.00    +0.000 A 
ATOM     14  C   UNL     1      47.436   2.135   6.256  0.00  0.00    +0.000 A 
ATOM     15  C   UNL     1      47.172   0.999   6.981  0.00  0.00    +0.000 A 
ATOM     16  N   UNL     1      46.419   0.982   8.100  0.00  0.00    +0.000 NA
ATOM     17  H   UNL     1      44.816   1.169   9.749  0.00  0.00    +0.000 HD
ENDBRANCH   9  10
ENDBRANCH   8   9
ENDBRANCH   5   8
ENDBRANCH   1   2
BRANCH   1  20
ATOM     18  C   UNL     1      48.994   6.943  15.527  0.00  0.00    +0.000 C 
ATOM     19  O   UNL     1      50.089   6.671  15.040  0.00  0.00    +0.000 OA
ATOM     20  N   UNL     1      47.899   7.150  14.731  0.00  0.00    +0.000 N 
ATOM     21  H   UNL     1      46.993   7.330  15.142  0.00  0.00    +0.000 HD
BRANCH  18  29
ATOM     22  C   UNL     1      48.960   4.649  18.100  0.00  0.00    +0.000 A 
ATOM     23  N   UNL     1      48.912   3.988  19.275  0.00  0.00    +0.000 NA
ATOM     24  C   UNL     1      48.699   4.696  20.387  0.00  0.00    +0.000 A 
ATOM     25  N   UNL     1      48.522   6.011  20.476  0.00  0.00    +0.000 NA
ATOM     26  C   UNL     1      48.585   6.632  19.287  0.00  0.00    +0.000 A 
ATOM     27  S   UNL     1      48.375   8.314  19.211  0.00  0.00    +0.000 S 
ATOM     28  C   UNL     1      48.578   8.313  17.525  0.00  0.00    +0.000 A 
ATOM     29  C   UNL     1      48.811   7.052  16.985  0.00  0.00    +0.000 A 
ATOM     30  C   UNL     1      48.808   6.045  18.044  0.00  0.00    +0.000 A 
BRANCH  22  32
ATOM     31  C   UNL     1      48.176   2.969  16.681  0.00  0.00    +0.000 C 
ATOM     32  O   UNL     1      49.206   3.918  16.957  0.00  0.00    +0.000 OA
ENDBRANCH  22  32
ENDBRANCH  18  29
ENDBRANCH   1  20
TORSDOF 7
ENDMDL
MODEL 2
REMARK VINA RESULT:    -7.766      1.677      2.750
REMARK INTER + INTRA:         -11.958
REMARK INTER:                 -10.869
REMARK INTRA:                  -1.089
REMARK UNBOUND:                -1.014
REMARK  Name = 
REMARK  8 active torsions:
REMARK  status: ('A' for Active; 'I' for Inactive)
REMARK    1  A    between atoms: C_1  and  O_2
REMARK    2  A    between atoms: O_2  and  C_3
REMARK    3  A    between atoms: C_10  and  C_11
REMARK    4  A    between atoms: N_13  and  C_14
REMARK    5  A    between atoms: C_14  and  C_15
REMARK    6  A    between atoms: C_18  and  C_19
REMARK    7  A    between atoms: C_19  and  C_20
REMARK    8  A    between atoms: C_20  and  N_21
REMARK                            x       y       z     vdW  Elec       q    Type
REMARK                         _______ _______ _______ _____ _____    ______ ____
ROOT
ATOM      1  C   UNL     1      48.388   6.798  14.137  0.00  0.00    +0.000 C 
ENDROOT
BRANCH   1   2
ATOM      2  C   UNL     1      47.162   6.406  13.357  0.00  0.00    +0.000 A 
ATOM      3  C   UNL     1      46.773   5.064  13.276  0.00  0.00    +0.000 A 
ATOM      4  C   UNL     1      45.659   4.690  12.518  0.00  0.00    +0.000 A 
ATOM      5  C   UNL     1      44.910   5.641  11.812  0.00  0.00    +0.000 A 
ATOM      6  C   UNL     1      45.303   6.985  11.899  0.00  0.00    +0.000 A 
ATOM      7  C   UNL     1      46.418   7.362  12.657  0.00  0.00    +0.000 A 
BRANCH   5   8
ATOM      8  C   UNL     1      43.699   5.293  10.960  0.00  0.00    +0.000 C 
BRANCH   8   9
ATOM      9  C   UNL     1      43.845   4.034  10.099  0.00  0.00    +0.000 C 
BRANCH   9  10
ATOM     10  N   UNL     1      44.217   4.353   8.727  0.00  0.00    +0.000 N 
ATOM     11  C   UNL     1      45.189   3.480   8.232  0.00  0.00    +0.000 A 
ATOM     12  N   UNL     1      45.237   2.213   8.674  0.00  0.00    +0.000 NA
ATOM     13  C   UNL     1      46.218   1.426   8.197  0.00  0.00    +0.000 A 
ATOM     14  C   UNL     1      47.150   1.855   7.292  0.00  0.00    +0.000 A 
ATOM     15  C   UNL     1      47.018   3.163   6.895  0.00  0.00    +0.000 A 
ATOM     16  N   UNL     1      46.060   3.993   7.355  0.00  0.00    +0.000 NA
ATOM     17  H   UNL     1      44.579   5.285   8.563  0.00  0.00    +0.000 HD
ENDBRANCH   9  10
ENDBRANCH   8   9
ENDBRANCH   5   8
ENDBRANCH   1   2
BRANCH   1  20
ATOM     18  C   UNL     1      49.117   6.326  16.433  0.00  0.00    +0.000 C 
ATOM     19  O   UNL     1      50.237   6.011  16.037  0.00  0.00    +0.000 OA
ATOM     20  N   UNL     1      48.144   6.723  15.557  0.00  0.00    +0.000 N 
ATOM     21  H   UNL     1      47.213   6.939  15.888  0.00  0.00    +0.000 HD
BRANCH  18  29
ATOM     22  C   UNL     1      47.758   8.615  18.624  0.00  0.00    +0.000 A 
ATOM     23  N   UNL     1      47.243   9.290  19.673  0.00  0.00    +0.000 NA
ATOM     24  C   UNL     1      47.173   8.665  20.850  0.00  0.00    +0.000 A 
ATOM     25  N   UNL     1      47.561   7.422  21.120  0.00  0.00    +0.000 NA
ATOM     26  C   UNL     1      48.060   6.783  20.049  0.00  0.00    +0.000 A 
ATOM     27  S   UNL     1      48.611   5.186  20.212  0.00  0.00    +0.000 S 
ATOM     28  C   UNL     1      49.040   5.115  18.571  0.00  0.00    +0.000 A 
ATOM     29  C   UNL     1      48.774   6.284  17.866  0.00  0.00    +0.000 A 
ATOM     30  C   UNL     1      48.193   7.285  18.758  0.00  0.00    +0.000 A 
BRANCH  22  32
ATOM     31  C   UNL     1      49.017   9.986  17.215  0.00  0.00    +0.000 C 
ATOM     32  O   UNL     1      47.806   9.256  17.404  0.00  0.00    +0.000 OA
ENDBRANCH  22  32
ENDBRANCH  18  29
ENDBRANCH   1  20
TORSDOF 7
ENDMDL
MODEL 3
REMARK VINA RESULT:    -7.544      1.831      2.337
REMARK INTER + INTRA:         -11.645
REMARK INTER:                 -10.490
REMARK INTRA:                  -1.155
REMARK UNBOUND:                -1.014
REMARK  Name = 
REMARK  8 active torsions:
REMARK  status: ('A' for Active; 'I' for Inactive)
REMARK    1  A    between atoms: C_1  and  O_2
REMARK    2  A    between atoms: O_2  and  C_3
REMARK    3  A    between atoms: C_10  and  C_11
REMARK    4  A    between atoms: N_13  and  C_14
REMARK    5  A    between atoms: C_14  and  C_15
REMARK    6  A    between atoms: C_18  and  C_19
REMARK    7  A    between atoms: C_19  and  C_20
REMARK    8  A    between atoms: C_20  and  N_21
REMARK                            x       y       z     vdW  Elec       q    Type
REMARK                         _______ _______ _______ _____ _____    ______ ____
ROOT
ATOM      1  C   UNL     1      47.140   7.816  13.629  0.00  0.00    +0.000 C 
ENDROOT
BRANCH   1   2
ATOM      2  C   UNL     1      46.230   6.802  12.988  0.00  0.00    +0.000 A 
ATOM      3  C   UNL     1      45.083   7.214  12.300  0.00  0.00    +0.000 A 
ATOM      4  C   UNL     1      44.212   6.273  11.739  0.00  0.00    +0.000 A 
ATOM      5  C   UNL     1      44.457   4.898  11.858  0.00  0.00    +0.000 A 
ATOM      6  C   UNL     1      45.610   4.492  12.546  0.00  0.00    +0.000 A 
ATOM      7  C   UNL     1      46.482   5.431  13.109  0.00  0.00    +0.000 A 
BRANCH   5   8
ATOM      8  C   UNL     1      43.540   3.830  11.283  0.00  0.00    +0.000 C 
BRANCH   8   9
ATOM      9  C   UNL     1      44.193   2.884  10.269  0.00  0.00    +0.000 C 
BRANCH   9  10
ATOM     10  N   UNL     1      44.273   3.481   8.942  0.00  0.00    +0.000 N 
ATOM     11  C   UNL     1      45.348   2.978   8.206  0.00  0.00    +0.000 A 
ATOM     12  N   UNL     1      45.771   1.720   8.413  0.00  0.00    +0.000 NA
ATOM     13  C   UNL     1      46.836   1.299   7.708  0.00  0.00    +0.000 A 
ATOM     14  C   UNL     1      47.493   2.085   6.801  0.00  0.00    +0.000 A 
ATOM     15  C   UNL     1      46.985   3.353   6.653  0.00  0.00    +0.000 A 
ATOM     16  N   UNL     1      45.929   3.824   7.347  0.00  0.00    +0.000 NA
ATOM     17  H   UNL     1      44.366   4.490   8.906  0.00  0.00    +0.000 HD
ENDBRANCH   9  10
ENDBRANCH   8   9
ENDBRANCH   5   8
ENDBRANCH   1   2
BRANCH   1  20
ATOM     18  C   UNL     1      49.150   7.886  15.036  0.00  0.00    +0.000 C 
ATOM     19  O   UNL     1      49.091   9.113  15.097  0.00  0.00    +0.000 OA
ATOM     20  N   UNL     1      48.224   7.170  14.327  0.00  0.00    +0.000 N 
ATOM     21  H   UNL     1      48.305   6.165  14.247  0.00  0.00    +0.000 HD
BRANCH  18  29
ATOM     22  C   UNL     1      49.176   5.154  17.139  0.00  0.00    +0.000 A 
ATOM     23  N   UNL     1      49.477   4.118  17.949  0.00  0.00    +0.000 NA
ATOM     24  C   UNL     1      50.761   3.904  18.246  0.00  0.00    +0.000 A 
ATOM     25  N   UNL     1      51.807   4.609  17.826  0.00  0.00    +0.000 NA
ATOM     26  C   UNL     1      51.466   5.624  17.016  0.00  0.00    +0.000 A 
ATOM     27  S   UNL     1      52.677   6.636  16.390  0.00  0.00    +0.000 S 
ATOM     28  C   UNL     1      51.532   7.568  15.552  0.00  0.00    +0.000 A 
ATOM     29  C   UNL     1      50.220   7.138  15.719  0.00  0.00    +0.000 A 
ATOM     30  C   UNL     1      50.183   5.976  16.604  0.00  0.00    +0.000 A 
BRANCH  22  32
ATOM     31  C   UNL     1      47.194   4.155  16.416  0.00  0.00    +0.000 C 
ATOM     32  O   UNL     1      47.851   5.357  16.814  0.00  0.00    +0.000 OA
ENDBRANCH  22  32
ENDBRANCH  18  29
ENDBRANCH   1  20
TORSDOF 7
ENDMDL
MODEL 4
REMARK VINA RESULT:    -7.217      1.752      3.292
REMARK INTER + INTRA:         -11.184
REMARK INTER:                 -10.039
REMARK INTRA:                  -1.145
REMARK UNBOUND:                -1.014
REMARK  Name = 
REMARK  8 active torsions:
REMARK  status: ('A' for Active; 'I' for Inactive)
REMARK    1  A    between atoms: C_1  and  O_2
REMARK    2  A    between atoms: O_2  and  C_3
REMARK    3  A    between atoms: C_10  and  C_11
REMARK    4  A    between atoms: N_13  and  C_14
REMARK    5  A    between atoms: C_14  and  C_15
REMARK    6  A    between atoms: C_18  and  C_19
REMARK    7  A    between atoms: C_19  and  C_20
REMARK    8  A    between atoms: C_20  and  N_21
REMARK                            x       y       z     vdW  Elec       q    Type
REMARK                         _______ _______ _______ _____ _____    ______ ____
ROOT
ATOM      1  C   UNL     1      47.484   4.172  15.549  0.00  0.00    +0.000 C 
ENDROOT
BRANCH   1   2
ATOM      2  C   UNL     1      46.794   4.466  14.244  0.00  0.00    +0.000 A 
ATOM      3  C   UNL     1      46.599   5.789  13.829  0.00  0.00    +0.000 A 
ATOM      4  C   UNL     1      45.921   6.069  12.638  0.00  0.00    +0.000 A 
ATOM      5  C   UNL     1      45.410   5.039  11.836  0.00  0.00    +0.000 A 
ATOM      6  C   UNL     1      45.611   3.716  12.256  0.00  0.00    +0.000 A 
ATOM      7  C   UNL     1      46.289   3.433  13.448  0.00  0.00    +0.000 A 
BRANCH   5   8
ATOM      8  C   UNL     1      44.652   5.282  10.540  0.00  0.00    +0.000 C 
BRANCH   8   9
ATOM      9  C   UNL     1      44.213   4.019   9.792  0.00  0.00    +0.000 C 
BRANCH   9  10
ATOM     10  N   UNL     1      44.413   4.140   8.354  0.00  0.00    +0.000 N 
ATOM     11  C   UNL     1      45.371   3.241   7.881  0.00  0.00    +0.000 A 
ATOM     12  N   UNL     1      45.540   2.058   8.494  0.00  0.00    +0.000 NA
ATOM     13  C   UNL     1      46.504   1.247   8.025  0.00  0.00    +0.000 A 
ATOM     14  C   UNL     1      47.305   1.571   6.963  0.00  0.00    +0.000 A 
ATOM     15  C   UNL     1      47.056   2.797   6.398  0.00  0.00    +0.000 A 
ATOM     16  N   UNL     1      46.110   3.650   6.842  0.00  0.00    +0.000 NA
ATOM     17  H   UNL     1      44.702   5.051   8.014  0.00  0.00    +0.000 HD
ENDBRANCH   9  10
ENDBRANCH   8   9
ENDBRANCH   5   8
ENDBRANCH   1   2
BRANCH   1  20
ATOM     18  C   UNL     1      49.029   5.559  16.859  0.00  0.00    +0.000 C 
ATOM     19  O   UNL     1      49.875   4.669  16.845  0.00  0.00    +0.000 OA
ATOM     20  N   UNL     1      47.817   5.391  16.245  0.00  0.00    +0.000 N 
ATOM     21  H   UNL     1      47.110   6.112  16.299  0.00  0.00    +0.000 HD
BRANCH  18  29
ATOM     22  C   UNL     1      49.024   8.848  15.826  0.00  0.00    +0.000 A 
ATOM     23  N   UNL     1      49.080  10.191  15.703  0.00  0.00    +0.000 NA
ATOM     24  C   UNL     1      49.385  10.909  16.786  0.00  0.00    +0.000 A 
ATOM     25  N   UNL     1      49.648  10.447  18.005  0.00  0.00    +0.000 NA
ATOM     26  C   UNL     1      49.575   9.108  18.086  0.00  0.00    +0.000 A 
ATOM     27  S   UNL     1      49.888   8.344  19.569  0.00  0.00    +0.000 S 
ATOM     28  C   UNL     1      49.615   6.811  18.892  0.00  0.00    +0.000 A 
ATOM     29  C   UNL     1      49.279   6.841  17.543  0.00  0.00    +0.000 A 
ATOM     30  C   UNL     1      49.262   8.220  17.061  0.00  0.00    +0.000 A 
BRANCH  22  32
ATOM     31  C   UNL     1      49.815   7.785  13.904  0.00  0.00    +0.000 C 
ATOM     32  O   UNL     1      48.685   8.111  14.711  0.00  0.00    +0.000 OA
ENDBRANCH  22  32
ENDBRANCH  18  29
ENDBRANCH   1  20
TORSDOF 7
ENDMDL
MODEL 5
REMARK VINA RESULT:    -7.160      4.730      9.411
REMARK INTER + INTRA:         -11.104
REMARK INTER:                 -10.238
REMARK INTRA:                  -0.867
REMARK UNBOUND:                -1.014
REMARK  Name = 
REMARK  8 active torsions:
REMARK  status: ('A' for Active; 'I' for Inactive)
REMARK    1  A    between atoms: C_1  and  O_2
REMARK    2  A    between atoms: O_2  and  C_3
REMARK    3  A    between atoms: C_10  and  C_11
REMARK    4  A    between atoms: N_13  and  C_14
REMARK    5  A    between atoms: C_14  and  C_15
REMARK    6  A    between atoms: C_18  and  C_19
REMARK    7  A    between atoms: C_19  and  C_20
REMARK    8  A    between atoms: C_20  and  N_21
REMARK                            x       y       z     vdW  Elec       q    Type
REMARK                         _______ _______ _______ _____ _____    ______ ____
ROOT
ATOM      1  C   UNL     1      47.453   3.298  16.827  0.00  0.00    +0.000 C 
ENDROOT
BRANCH   1   2
ATOM      2  C   UNL     1      48.919   3.251  17.168  0.00  0.00    +0.000 A 
ATOM      3  C   UNL     1      49.584   4.406  17.597  0.00  0.00    +0.000 A 
ATOM      4  C   UNL     1      50.954   4.377  17.875  0.00  0.00    +0.000 A 
ATOM      5  C   UNL     1      51.700   3.200  17.722  0.00  0.00    +0.000 A 
ATOM      6  C   UNL     1      51.028   2.046  17.294  0.00  0.00    +0.000 A 
ATOM      7  C   UNL     1      49.656   2.072  17.015  0.00  0.00    +0.000 A 
BRANCH   5   8
ATOM      8  C   UNL     1      53.194   3.111  17.994  0.00  0.00    +0.000 C 
BRANCH   8   9
ATOM      9  C   UNL     1      53.845   1.771  17.637  0.00  0.00    +0.000 C 
BRANCH   9  10
ATOM     10  N   UNL     1      54.128   0.970  18.821  0.00  0.00    +0.000 N 
ATOM     11  C   UNL     1      54.353  -0.371  18.504  0.00  0.00    +0.000 A 
ATOM     12  N   UNL     1      54.891  -0.697  17.318  0.00  0.00    +0.000 NA
ATOM     13  C   UNL     1      55.048  -2.005  17.046  0.00  0.00    +0.000 A 
ATOM     14  C   UNL     1      54.692  -2.999  17.915  0.00  0.00    +0.000 A 
ATOM     15  C   UNL     1      54.156  -2.570  19.104  0.00  0.00    +0.000 A 
ATOM     16  N   UNL     1      53.966  -1.271  19.416  0.00  0.00    +0.000 NA
ATOM     17  H   UNL     1      53.414   0.965  19.542  0.00  0.00    +0.000 HD
ENDBRANCH   9  10
ENDBRANCH   8   9
ENDBRANCH   5   8
ENDBRANCH   1   2
BRANCH   1  20
ATOM     18  C   UNL     1      47.064   4.219  14.584  0.00  0.00    +0.000 C 
ATOM     19  O   UNL     1      47.224   3.110  14.078  0.00  0.00    +0.000 OA
ATOM     20  N   UNL     1      47.165   4.397  15.937  0.00  0.00    +0.000 N 
ATOM     21  H   UNL     1      47.075   5.320  16.341  0.00  0.00    +0.000 HD
BRANCH  18  29
ATOM     22  C   UNL     1      44.359   5.153  12.661  0.00  0.00    +0.000 A 
ATOM     23  N   UNL     1      43.457   5.763  11.865  0.00  0.00    +0.000 NA
ATOM     24  C   UNL     1      43.775   6.953  11.350  0.00  0.00    +0.000 A 
ATOM     25  N   UNL     1      44.907   7.626  11.532  0.00  0.00    +0.000 NA
ATOM     26  C   UNL     1      45.774   6.990  12.335  0.00  0.00    +0.000 A 
ATOM     27  S   UNL     1      47.277   7.703  12.673  0.00  0.00    +0.000 S 
ATOM     28  C   UNL     1      47.730   6.396  13.658  0.00  0.00    +0.000 A 
ATOM     29  C   UNL     1      46.763   5.401  13.757  0.00  0.00    +0.000 A 
ATOM     30  C   UNL     1      45.594   5.757  12.957  0.00  0.00    +0.000 A 
BRANCH  22  32
ATOM     31  C   UNL     1      43.623   2.981  12.229  0.00  0.00    +0.000 C 
ATOM     32  O   UNL     1      44.017   3.936  13.213  0.00  0.00    +0.000 OA
ENDBRANCH  22  32
ENDBRANCH  18  29
ENDBRANCH   1  20
TORSDOF 7
ENDMDL
MODEL 6
REMARK VINA RESULT:    -7.061      1.758      2.678
REMARK INTER + INTRA:         -10.965
REMARK INTER:                  -9.916
REMARK INTRA:                  -1.049
REMARK UNBOUND:                -1.014
REMARK  Name = 
REMARK  8 active torsions:
REMARK  status: ('A' for Active; 'I' for Inactive)
REMARK    1  A    between atoms: C_1  and  O_2
REMARK    2  A    between atoms: O_2  and  C_3
REMARK    3  A    between atoms: C_10  and  C_11
REMARK    4  A    between atoms: N_13  and  C_14
REMARK    5  A    between atoms: C_14  and  C_15
REMARK    6  A    between atoms: C_18  and  C_19
REMARK    7  A    between atoms: C_19  and  C_20
REMARK    8  A    between atoms: C_20  and  N_21
REMARK                            x       y       z     vdW  Elec       q    Type
REMARK                         _______ _______ _______ _____ _____    ______ ____
ROOT
ATOM      1  C   UNL     1      47.795   4.659  15.697  0.00  0.00    +0.000 C 
ENDROOT
BRANCH   1   2
ATOM      2  C   UNL     1      47.081   4.868  14.388  0.00  0.00    +0.000 A 
ATOM      3  C   UNL     1      47.431   5.936  13.554  0.00  0.00    +0.000 A 
ATOM      4  C   UNL     1      46.743   6.160  12.357  0.00  0.00    +0.000 A 
ATOM      5  C   UNL     1      45.682   5.331  11.965  0.00  0.00    +0.000 A 
ATOM      6  C   UNL     1      45.338   4.261  12.804  0.00  0.00    +0.000 A 
ATOM      7  C   UNL     1      46.025   4.036  14.003  0.00  0.00    +0.000 A 
BRANCH   5   8
ATOM      8  C   UNL     1      44.888   5.533  10.684  0.00  0.00    +0.000 C 
BRANCH   8   9
ATOM      9  C   UNL     1      44.539   4.250   9.921  0.00  0.00    +0.000 C 
BRANCH   9  10
ATOM     10  N   UNL     1      44.727   4.404   8.484  0.00  0.00    +0.000 N 
ATOM     11  C   UNL     1      45.570   3.421   7.960  0.00  0.00    +0.000 A 
ATOM     12  N   UNL     1      45.614   2.205   8.526  0.00  0.00    +0.000 NA
ATOM     13  C   UNL     1      46.472   1.309   8.008  0.00  0.00    +0.000 A 
ATOM     14  C   UNL     1      47.287   1.580   6.943  0.00  0.00    +0.000 A 
ATOM     15  C   UNL     1      47.169   2.848   6.427  0.00  0.00    +0.000 A 
ATOM     16  N   UNL     1      46.333   3.784   6.921  0.00  0.00    +0.000 NA
ATOM     17  H   UNL     1      45.111   5.288   8.172  0.00  0.00    +0.000 HD
ENDBRANCH   9  10
ENDBRANCH   8   9
ENDBRANCH   5   8
ENDBRANCH   1   2
BRANCH   1  20
ATOM     18  C   UNL     1      49.071   6.564  16.574  0.00  0.00    +0.000 C 
ATOM     19  O   UNL     1      50.105   6.131  16.071  0.00  0.00    +0.000 OA
ATOM     20  N   UNL     1      47.886   5.893  16.439  0.00  0.00    +0.000 N 
ATOM     21  H   UNL     1      47.049   6.233  16.893  0.00  0.00    +0.000 HD
BRANCH  18  29
ATOM     22  C   UNL     1      47.787   7.457  19.646  0.00  0.00    +0.000 A 
ATOM     23  N   UNL     1      47.408   8.066  20.790  0.00  0.00    +0.000 NA
ATOM     24  C   UNL     1      47.720   9.354  20.950  0.00  0.00    +0.000 A 
ATOM     25  N   UNL     1      48.378  10.130  20.094  0.00  0.00    +0.000 NA
ATOM     26  C   UNL     1      48.743   9.485  18.974  0.00  0.00    +0.000 A 
ATOM     27  S   UNL     1      49.588  10.326  17.765  0.00  0.00    +0.000 S 
ATOM     28  C   UNL     1      49.665   8.940  16.787  0.00  0.00    +0.000 A 
ATOM     29  C   UNL     1      49.064   7.818  17.349  0.00  0.00    +0.000 A 
ATOM     30  C   UNL     1      48.506   8.150  18.657  0.00  0.00    +0.000 A 
BRANCH  22  32
ATOM     31  C   UNL     1      48.369   5.273  20.227  0.00  0.00    +0.000 C 
ATOM     32  O   UNL     1      47.484   6.120  19.495  0.00  0.00    +0.000 OA
ENDBRANCH  22  32
ENDBRANCH  18  29
ENDBRANCH   1  20
TORSDOF 7
ENDMDL
MODEL 7
REMARK VINA RESULT:    -6.904      4.058      8.892
REMARK INTER + INTRA:         -10.744
REMARK INTER:                  -9.666
REMARK INTRA:                  -1.078
REMARK UNBOUND:                -1.014
REMARK  Name = 
REMARK  8 active torsions:
REMARK  status: ('A' for Active; 'I' for Inactive)
REMARK    1  A    between atoms: C_1  and  O_2
REMARK    2  A    between atoms: O_2  and  C_3
REMARK    3  A    between atoms: C_10  and  C_11
REMARK    4  A    between atoms: N_13  and  C_14
REMARK    5  A    between atoms: C_14  and  C_15
REMARK    6  A    between atoms: C_18  and  C_19
REMARK    7  A    between atoms: C_19  and  C_20
REMARK    8  A    between atoms: C_20  and  N_21
REMARK                            x       y       z     vdW  Elec       q    Type
REMARK                         _______ _______ _______ _____ _____    ______ ____
ROOT
ATOM      1  C   UNL     1      47.210   3.428  16.862  0.00  0.00    +0.000 C 
ENDROOT
BRANCH   1   2
ATOM      2  C   UNL     1      48.691   3.309  17.107  0.00  0.00    +0.000 A 
ATOM      3  C   UNL     1      49.340   2.080  16.938  0.00  0.00    +0.000 A 
ATOM      4  C   UNL     1      50.707   1.954  17.206  0.00  0.00    +0.000 A 
ATOM      5  C   UNL     1      51.460   3.045  17.659  0.00  0.00    +0.000 A 
ATOM      6  C   UNL     1      50.804   4.274  17.825  0.00  0.00    +0.000 A 
ATOM      7  C   UNL     1      49.436   4.403  17.558  0.00  0.00    +0.000 A 
BRANCH   5   8
ATOM      8  C   UNL     1      52.944   2.966  17.981  0.00  0.00    +0.000 C 
BRANCH   8   9
ATOM      9  C   UNL     1      53.572   4.263  18.502  0.00  0.00    +0.000 C 
BRANCH   9  10
ATOM     10  N   UNL     1      54.848   4.548  17.858  0.00  0.00    +0.000 N 
ATOM     11  C   UNL     1      54.697   5.378  16.745  0.00  0.00    +0.000 A 
ATOM     12  N   UNL     1      53.701   6.278  16.710  0.00  0.00    +0.000 NA
ATOM     13  C   UNL     1      53.576   7.023  15.598  0.00  0.00    +0.000 A 
ATOM     14  C   UNL     1      54.410   6.907  14.520  0.00  0.00    +0.000 A 
ATOM     15  C   UNL     1      55.401   5.965  14.648  0.00  0.00    +0.000 A 
ATOM     16  N   UNL     1      55.558   5.185  15.738  0.00  0.00    +0.000 NA
ATOM     17  H   UNL     1      55.376   3.747  17.532  0.00  0.00    +0.000 HD
ENDBRANCH   9  10
ENDBRANCH   8   9
ENDBRANCH   5   8
ENDBRANCH   1   2
BRANCH   1  20
ATOM     18  C   UNL     1      46.946   4.251  14.564  0.00  0.00    +0.000 C 
ATOM     19  O   UNL     1      47.214   3.140  14.112  0.00  0.00    +0.000 OA
ATOM     20  N   UNL     1      46.927   4.478  15.913  0.00  0.00    +0.000 N 
ATOM     21  H   UNL     1      46.747   5.405  16.275  0.00  0.00    +0.000 HD
BRANCH  18  29
ATOM     22  C   UNL     1      44.198   5.116  12.669  0.00  0.00    +0.000 A 
ATOM     23  N   UNL     1      43.282   5.692  11.864  0.00  0.00    +0.000 NA
ATOM     24  C   UNL     1      43.604   6.841  11.265  0.00  0.00    +0.000 A 
ATOM     25  N   UNL     1      44.753   7.502  11.370  0.00  0.00    +0.000 NA
ATOM     26  C   UNL     1      45.634   6.900  12.185  0.00  0.00    +0.000 A 
ATOM     27  S   UNL     1      47.159   7.604  12.431  0.00  0.00    +0.000 S 
ATOM     28  C   UNL     1      47.620   6.352  13.482  0.00  0.00    +0.000 A 
ATOM     29  C   UNL     1      46.640   5.385  13.673  0.00  0.00    +0.000 A 
ATOM     30  C   UNL     1      45.452   5.713  12.888  0.00  0.00    +0.000 A 
BRANCH  22  32
ATOM     31  C   UNL     1      43.641   2.866  12.394  0.00  0.00    +0.000 C 
ATOM     32  O   UNL     1      43.853   3.943  13.306  0.00  0.00    +0.000 OA
ENDBRANCH  22  32
ENDBRANCH  18  29
ENDBRANCH   1  20
TORSDOF 7
ENDMDL
MODEL 8
REMARK VINA RESULT:    -6.769      2.789      4.648
REMARK INTER + INTRA:         -10.553
REMARK INTER:                  -9.420
REMARK INTRA:                  -1.133
REMARK UNBOUND:                -1.014
REMARK  Name = 
REMARK  8 active torsions:
REMARK  status: ('A' for Active; 'I' for Inactive)
REMARK    1  A    between atoms: C_1  and  O_2
REMARK    2  A    between atoms: O_2  and  C_3
REMARK    3  A    between atoms: C_10  and  C_11
REMARK    4  A    between atoms: N_13  and  C_14
REMARK    5  A    between atoms: C_14  and  C_15
REMARK    6  A    between atoms: C_18  and  C_19
REMARK    7  A    between atoms: C_19  and  C_20
REMARK    8  A    between atoms: C_20  and  N_21
REMARK                            x       y       z     vdW  Elec       q    Type
REMARK                         _______ _______ _______ _____ _____    ______ ____
ROOT
ATOM      1  C   UNL     1      48.195   5.674  14.886  0.00  0.00    +0.000 C 
ENDROOT
BRANCH   1   2
ATOM      2  C   UNL     1      47.060   5.581  13.902  0.00  0.00    +0.000 A 
ATOM      3  C   UNL     1      46.508   4.338  13.573  0.00  0.00    +0.000 A 
ATOM      4  C   UNL     1      45.481   4.242  12.627  0.00  0.00    +0.000 A 
ATOM      5  C   UNL     1      44.987   5.381  11.978  0.00  0.00    +0.000 A 
ATOM      6  C   UNL     1      45.542   6.625  12.314  0.00  0.00    +0.000 A 
ATOM      7  C   UNL     1      46.570   6.723  13.259  0.00  0.00    +0.000 A 
BRANCH   5   8
ATOM      8  C   UNL     1      43.884   5.339  10.931  0.00  0.00    +0.000 C 
BRANCH   8   9
ATOM      9  C   UNL     1      43.854   4.077  10.062  0.00  0.00    +0.000 C 
BRANCH   9  10
ATOM     10  N   UNL     1      44.215   4.360   8.679  0.00  0.00    +0.000 N 
ATOM     11  C   UNL     1      45.184   3.476   8.200  0.00  0.00    +0.000 A 
ATOM     12  N   UNL     1      45.238   2.221   8.674  0.00  0.00    +0.000 NA
ATOM     13  C   UNL     1      46.216   1.423   8.210  0.00  0.00    +0.000 A 
ATOM     14  C   UNL     1      47.140   1.829   7.286  0.00  0.00    +0.000 A 
ATOM     15  C   UNL     1      47.002   3.126   6.856  0.00  0.00    +0.000 A 
ATOM     16  N   UNL     1      46.047   3.967   7.302  0.00  0.00    +0.000 NA
ATOM     17  H   UNL     1      44.574   5.288   8.488  0.00  0.00    +0.000 HD
ENDBRANCH   9  10
ENDBRANCH   8   9
ENDBRANCH   5   8
ENDBRANCH   1   2
BRANCH   1  20
ATOM     18  C   UNL     1      50.135   7.109  15.338  0.00  0.00    +0.000 C 
ATOM     19  O   UNL     1      50.605   6.270  16.104  0.00  0.00    +0.000 OA
ATOM     20  N   UNL     1      48.944   6.892  14.699  0.00  0.00    +0.000 N 
ATOM     21  H   UNL     1      48.544   7.606  14.104  0.00  0.00    +0.000 HD
BRANCH  18  29
ATOM     22  C   UNL     1      51.012   8.806  12.468  0.00  0.00    +0.000 A 
ATOM     23  N   UNL     1      51.455   9.671  11.532  0.00  0.00    +0.000 NA
ATOM     24  C   UNL     1      52.073  10.780  11.944  0.00  0.00    +0.000 A 
ATOM     25  N   UNL     1      52.312  11.143  13.200  0.00  0.00    +0.000 NA
ATOM     26  C   UNL     1      51.849  10.260  14.100  0.00  0.00    +0.000 A 
ATOM     27  S   UNL     1      52.071  10.561  15.755  0.00  0.00    +0.000 S 
ATOM     28  C   UNL     1      51.281   9.117  16.173  0.00  0.00    +0.000 A 
ATOM     29  C   UNL     1      50.829   8.384  15.081  0.00  0.00    +0.000 A 
ATOM     30  C   UNL     1      51.178   9.068  13.839  0.00  0.00    +0.000 A 
BRANCH  22  32
ATOM     31  C   UNL     1      49.162   7.976  11.311  0.00  0.00    +0.000 C 
ATOM     32  O   UNL     1      50.351   7.673  12.040  0.00  0.00    +0.000 OA
ENDBRANCH  22  32
ENDBRANCH  18  29
ENDBRANCH   1  20
TORSDOF 7
ENDMDL
MODEL 9
REMARK VINA RESULT:    -6.540      3.044      4.625
REMARK INTER + INTRA:         -10.231
REMARK INTER:                  -9.052
REMARK INTRA:                  -1.179
REMARK UNBOUND:                -1.014
REMARK  Name = 
REMARK  8 active torsions:
REMARK  status: ('A' for Active; 'I' for Inactive)
REMARK    1  A    between atoms: C_1  and  O_2
REMARK    2  A    between atoms: O_2  and  C_3
REMARK    3  A    between atoms: C_10  and  C_11
REMARK    4  A    between atoms: N_13  and  C_14
REMARK    5  A    between atoms: C_14  and  C_15
REMARK    6  A    between atoms: C_18  and  C_19
REMARK    7  A    between atoms: C_19  and  C_20
REMARK    8  A    between atoms: C_20  and  N_21
REMARK                            x       y       z     vdW  Elec       q    Type
REMARK                         _______ _______ _______ _____ _____    ______ ____
ROOT
ATOM      1  C   UNL     1      49.382   7.660  16.904  0.00  0.00    +0.000 C 
ENDROOT
BRANCH   1   2
ATOM      2  C   UNL     1      48.669   7.532  15.584  0.00  0.00    +0.000 A 
ATOM      3  C   UNL     1      48.454   6.271  15.016  0.00  0.00    +0.000 A 
ATOM      4  C   UNL     1      47.830   6.148  13.770  0.00  0.00    +0.000 A 
ATOM      5  C   UNL     1      47.415   7.279  13.053  0.00  0.00    +0.000 A 
ATOM      6  C   UNL     1      47.632   8.540  13.629  0.00  0.00    +0.000 A 
ATOM      7  C   UNL     1      48.256   8.665  14.876  0.00  0.00    +0.000 A 
BRANCH   5   8
ATOM      8  C   UNL     1      46.746   7.210  11.689  0.00  0.00    +0.000 C 
BRANCH   8   9
ATOM      9  C   UNL     1      45.220   7.359  11.700  0.00  0.00    +0.000 C 
BRANCH   9  10
ATOM     10  N   UNL     1      44.587   6.544  10.672  0.00  0.00    +0.000 N 
ATOM     11  C   UNL     1      44.183   5.301  11.165  0.00  0.00    +0.000 A 
ATOM     12  N   UNL     1      43.820   5.177  12.451  0.00  0.00    +0.000 NA
ATOM     13  C   UNL     1      43.479   3.951  12.885  0.00  0.00    +0.000 A 
ATOM     14  C   UNL     1      43.484   2.843  12.082  0.00  0.00    +0.000 A 
ATOM     15  C   UNL     1      43.865   3.068  10.782  0.00  0.00    +0.000 A 
ATOM     16  N   UNL     1      44.227   4.276  10.304  0.00  0.00    +0.000 NA
ATOM     17  H   UNL     1      45.144   6.343   9.849  0.00  0.00    +0.000 HD
ENDBRANCH   9  10
ENDBRANCH   8   9
ENDBRANCH   5   8
ENDBRANCH   1   2
BRANCH   1  20
ATOM     18  C   UNL     1      50.684   6.205  18.392  0.00  0.00    +0.000 C 
ATOM     19  O   UNL     1      50.353   6.871  19.370  0.00  0.00    +0.000 OA
ATOM     20  N   UNL     1      50.250   6.531  17.136  0.00  0.00    +0.000 N 
ATOM     21  H   UNL     1      50.562   6.003  16.332  0.00  0.00    +0.000 HD
BRANCH  18  29
ATOM     22  C   UNL     1      50.480   2.935  17.318  0.00  0.00    +0.000 A 
ATOM     23  N   UNL     1      50.665   1.632  17.021  0.00  0.00    +0.000 NA
ATOM     24  C   UNL     1      51.779   1.039  17.459  0.00  0.00    +0.000 A 
ATOM     25  N   UNL     1      52.753   1.594  18.172  0.00  0.00    +0.000 NA
ATOM     26  C   UNL     1      52.535   2.892  18.439  0.00  0.00    +0.000 A 
ATOM     27  S   UNL     1      53.676   3.761  19.346  0.00  0.00    +0.000 S 
ATOM     28  C   UNL     1      52.747   5.179  19.248  0.00  0.00    +0.000 A 
ATOM     29  C   UNL     1      51.566   5.031  18.529  0.00  0.00    +0.000 A 
ATOM     30  C   UNL     1      51.438   3.657  18.051  0.00  0.00    +0.000 A 
BRANCH  22  32
ATOM     31  C   UNL     1      48.163   3.122  17.524  0.00  0.00    +0.000 C 
ATOM     32  O   UNL     1      49.342   3.551  16.843  0.00  0.00    +0.000 OA
ENDBRANCH  22  32
ENDBRANCH  18  29
ENDBRANCH   1  20
TORSDOF 7
ENDMDL
