MODEL 1
REMARK VINA RESULT:    -8.656      0.000      0.000
REMARK INTER + INTRA:         -11.372
REMARK INTER:                 -10.681
REMARK INTRA:                  -0.691
REMARK UNBOUND:                -0.691
REMARK  Name = 
REMARK  4 active torsions:
REMARK  status: ('A' for Active; 'I' for Inactive)
REMARK    1  A    between atoms: C_2  and  C_4
REMARK    2  A    between atoms: N_8  and  C_9
REMARK    3  A    between atoms: C_9  and  C_10
REMARK    4  A    between atoms: C_14  and  C_15
REMARK                            x       y       z     vdW  Elec       q    Type
REMARK                         _______ _______ _______ _____ _____    ______ ____
ROOT
ATOM      1  C   UNL     1      43.521   3.753  11.181  0.00  0.00    +0.000 C 
ENDROOT
BRANCH   1   6
ATOM      2  C   UNL     1      46.610   2.525   7.244  0.00  0.00    +0.000 A 
ATOM      3  C   UNL     1      46.073   3.749   7.628  0.00  0.00    +0.000 A 
ATOM      4  C   UNL     1      45.235   3.804   8.738  0.00  0.00    +0.000 A 
ATOM      5  C   UNL     1      44.944   2.644   9.446  0.00  0.00    +0.000 A 
ATOM      6  N   UNL     1      44.149   2.619  10.555  0.00  0.00    +0.000 N 
ATOM      7  N   UNL     1      45.437   1.448   9.066  0.00  0.00    +0.000 NA
ATOM      8  C   UNL     1      46.248   1.405   7.975  0.00  0.00    +0.000 A 
ATOM      9  H   UNL     1      44.009   1.695  10.944  0.00  0.00    +0.000 HD
BRANCH   2  11
ATOM     10  N   UNL     1      47.417   3.341   5.110  0.00  0.00    +0.000 N 
ATOM     11  C   UNL     1      47.516   2.390   6.088  0.00  0.00    +0.000 C 
ATOM     12  O   UNL     1      48.338   1.486   6.019  0.00  0.00    +0.000 OA
ATOM     13  H   UNL     1      48.094   3.292   4.356  0.00  0.00    +0.000 HD
ATOM     14  H   UNL     1      46.928   4.215   5.238  0.00  0.00    +0.000 HD
ENDBRANCH   2  11
ENDBRANCH   1   6
BRANCH   1  15
ATOM     15  C   UNL     1      44.485   4.645  11.927  0.00  0.00    +0.000 A 
ATOM     16  C   UNL     1      45.370   4.193  12.906  0.00  0.00    +0.000 A 
ATOM     17  C   UNL     1      46.234   5.102  13.490  0.00  0.00    +0.000 A 
ATOM     18  N   UNL     1      46.278   6.415  13.175  0.00  0.00    +0.000 NA
ATOM     19  C   UNL     1      45.413   6.867  12.237  0.00  0.00    +0.000 A 
ATOM     20  C   UNL     1      44.518   6.008  11.596  0.00  0.00    +0.000 A 
BRANCH  19  21
ATOM     21  C   UNL     1      45.476   8.311  11.934  0.00  0.00    +0.000 A 
ATOM     22  C   UNL     1      46.597   9.080  12.303  0.00  0.00    +0.000 A 
ATOM     23  C   UNL     1      46.673  10.448  12.015  0.00  0.00    +0.000 A 
ATOM     24  C   UNL     1      45.622  11.077  11.355  0.00  0.00    +0.000 A 
ATOM     25  C   UNL     1      44.509  10.334  10.992  0.00  0.00    +0.000 A 
ATOM     26  F   UNL     1      43.491  10.933  10.360  0.00  0.00    +0.000 F 
ATOM     27  C   UNL     1      44.427   8.973  11.274  0.00  0.00    +0.000 A 
ENDBRANCH  19  21
ENDBRANCH   1  15
TORSDOF 4
ENDMDL
MODEL 2
REMARK VINA RESULT:    -8.485      4.005      7.261
REMARK INTER + INTRA:         -11.160
REMARK INTER:                 -10.377
REMARK INTRA:                  -0.783
REMARK UNBOUND:                -0.691
REMARK  Name = 
REMARK  4 active torsions:
REMARK  status: ('A' for Active; 'I' for Inactive)
REMARK    1  A    between atoms: C_2  and  C_4
REMARK    2  A    between atoms: N_8  and  C_9
REMARK    3  A    between atoms: C_9  and  C_10
REMARK    4  A    between atoms: C_14  and  C_15
REMARK                            x       y       z     vdW  Elec       q    Type
REMARK                         _______ _______ _______ _____ _____    ______ ____
ROOT
ATOM      1  C   UNL     1      44.587   6.353  12.274  0.00  0.00    +0.000 C 
ENDROOT
BRANCH   1   6
ATOM      2  C   UNL     1      49.550   7.679  12.673  0.00  0.00    +0.000 A 
ATOM      3  C   UNL     1      48.688   7.709  11.582  0.00  0.00    +0.000 A 
ATOM      4  C   UNL     1      47.378   7.266  11.740  0.00  0.00    +0.000 A 
ATOM      5  C   UNL     1      46.947   6.802  12.978  0.00  0.00    +0.000 A 
ATOM      6  N   UNL     1      45.675   6.371  13.217  0.00  0.00    +0.000 N 
ATOM      7  N   UNL     1      47.782   6.742  14.034  0.00  0.00    +0.000 NA
ATOM      8  C   UNL     1      49.062   7.169  13.865  0.00  0.00    +0.000 A 
ATOM      9  H   UNL     1      45.521   6.037  14.160  0.00  0.00    +0.000 HD
BRANCH   2  11
ATOM     10  N   UNL     1      51.662   7.753  11.487  0.00  0.00    +0.000 N 
ATOM     11  C   UNL     1      50.947   8.143  12.586  0.00  0.00    +0.000 C 
ATOM     12  O   UNL     1      51.438   8.867  13.441  0.00  0.00    +0.000 OA
ATOM     13  H   UNL     1      52.595   8.138  11.389  0.00  0.00    +0.000 HD
ATOM     14  H   UNL     1      51.234   7.360  10.661  0.00  0.00    +0.000 HD
ENDBRANCH   2  11
ENDBRANCH   1   6
BRANCH   1  15
ATOM     15  C   UNL     1      44.328   4.992  11.672  0.00  0.00    +0.000 A 
ATOM     16  C   UNL     1      43.384   4.089  12.162  0.00  0.00    +0.000 A 
ATOM     17  C   UNL     1      43.209   2.887  11.498  0.00  0.00    +0.000 A 
ATOM     18  N   UNL     1      43.901   2.524  10.396  0.00  0.00    +0.000 NA
ATOM     19  C   UNL     1      44.830   3.387   9.921  0.00  0.00    +0.000 A 
ATOM     20  C   UNL     1      45.056   4.623  10.532  0.00  0.00    +0.000 A 
BRANCH  19  21
ATOM     21  C   UNL     1      45.580   2.947   8.728  0.00  0.00    +0.000 A 
ATOM     22  C   UNL     1      45.968   3.869   7.735  0.00  0.00    +0.000 A 
ATOM     23  C   UNL     1      46.685   3.466   6.603  0.00  0.00    +0.000 A 
ATOM     24  C   UNL     1      47.024   2.127   6.437  0.00  0.00    +0.000 A 
ATOM     25  C   UNL     1      46.642   1.207   7.402  0.00  0.00    +0.000 A 
ATOM     26  F   UNL     1      46.961  -0.084   7.247  0.00  0.00    +0.000 F 
ATOM     27  C   UNL     1      45.929   1.600   8.531  0.00  0.00    +0.000 A 
ENDBRANCH  19  21
ENDBRANCH   1  15
TORSDOF 4
ENDMDL
MODEL 3
REMARK VINA RESULT:    -8.371      2.905      4.456
REMARK INTER + INTRA:         -11.019
REMARK INTER:                 -10.543
REMARK INTRA:                  -0.476
REMARK UNBOUND:                -0.691
REMARK  Name = 
REMARK  4 active torsions:
REMARK  status: ('A' for Active; 'I' for Inactive)
REMARK    1  A    between atoms: C_2  and  C_4
REMARK    2  A    between atoms: N_8  and  C_9
REMARK    3  A    between atoms: C_9  and  C_10
REMARK    4  A    between atoms: C_14  and  C_15
REMARK                            x       y       z     vdW  Elec       q    Type
REMARK                         _______ _______ _______ _____ _____    ______ ____
ROOT
ATOM      1  C   UNL     1      43.699   3.777  11.231  0.00  0.00    +0.000 C 
ENDROOT
BRANCH   1   6
ATOM      2  C   UNL     1      46.663   2.494   7.217  0.00  0.00    +0.000 A 
ATOM      3  C   UNL     1      46.135   3.722   7.598  0.00  0.00    +0.000 A 
ATOM      4  C   UNL     1      45.332   3.793   8.733  0.00  0.00    +0.000 A 
ATOM      5  C   UNL     1      45.069   2.644   9.469  0.00  0.00    +0.000 A 
ATOM      6  N   UNL     1      44.310   2.635  10.603  0.00  0.00    +0.000 N 
ATOM      7  N   UNL     1      45.554   1.443   9.093  0.00  0.00    +0.000 NA
ATOM      8  C   UNL     1      46.329   1.386   7.977  0.00  0.00    +0.000 A 
ATOM      9  H   UNL     1      44.186   1.717  11.011  0.00  0.00    +0.000 HD
BRANCH   2  11
ATOM     10  N   UNL     1      47.374   3.257   5.029  0.00  0.00    +0.000 N 
ATOM     11  C   UNL     1      47.532   2.343   6.034  0.00  0.00    +0.000 C 
ATOM     12  O   UNL     1      48.376   1.459   5.966  0.00  0.00    +0.000 OA
ATOM     13  H   UNL     1      48.025   3.200   4.254  0.00  0.00    +0.000 HD
ATOM     14  H   UNL     1      46.866   4.121   5.144  0.00  0.00    +0.000 HD
ENDBRANCH   2  11
ENDBRANCH   1   6
BRANCH   1  15
ATOM     15  C   UNL     1      44.693   4.769  11.787  0.00  0.00    +0.000 A 
ATOM     16  C   UNL     1      44.918   6.035  11.248  0.00  0.00    +0.000 A 
ATOM     17  C   UNL     1      45.827   6.871  11.873  0.00  0.00    +0.000 A 
ATOM     18  N   UNL     1      46.522   6.538  12.983  0.00  0.00    +0.000 NA
ATOM     19  C   UNL     1      46.321   5.305  13.506  0.00  0.00    +0.000 A 
ATOM     20  C   UNL     1      45.412   4.410  12.936  0.00  0.00    +0.000 A 
BRANCH  19  21
ATOM     21  C   UNL     1      47.113   4.970  14.706  0.00  0.00    +0.000 A 
ATOM     22  C   UNL     1      47.932   5.934  15.327  0.00  0.00    +0.000 A 
ATOM     23  C   UNL     1      48.683   5.631  16.469  0.00  0.00    +0.000 A 
ATOM     24  C   UNL     1      48.631   4.351  17.013  0.00  0.00    +0.000 A 
ATOM     25  C   UNL     1      47.836   3.390  16.408  0.00  0.00    +0.000 A 
ATOM     26  F   UNL     1      47.785   2.155  16.923  0.00  0.00    +0.000 F 
ATOM     27  C   UNL     1      47.086   3.684  15.272  0.00  0.00    +0.000 A 
ENDBRANCH  19  21
ENDBRANCH   1  15
TORSDOF 4
ENDMDL
MODEL 4
REMARK VINA RESULT:    -8.348      1.732      2.105
REMARK INTER + INTRA:         -10.991
REMARK INTER:                 -10.267
REMARK INTRA:                  -0.724
REMARK UNBOUND:                -0.691
REMARK  Name = 
REMARK  4 active torsions:
REMARK  status: ('A' for Active; 'I' for Inactive)
REMARK    1  A    between atoms: C_2  and  C_4
REMARK    2  A    between atoms: N_8  and  C_9
REMARK    3  A    between atoms: C_9  and  C_10
REMARK    4  A    between atoms: C_14  and  C_15
REMARK                            x       y       z     vdW  Elec       q    Type
REMARK                         _______ _______ _______ _____ _____    ______ ____
ROOT
ATOM      1  C   UNL     1      43.810   4.561  11.163  0.00  0.00    +0.000 C 
ENDROOT
BRANCH   1   6
ATOM      2  C   UNL     1      46.618   2.644   7.292  0.00  0.00    +0.000 A 
ATOM      3  C   UNL     1      46.370   3.959   7.667  0.00  0.00    +0.000 A 
ATOM      4  C   UNL     1      45.543   4.209   8.758  0.00  0.00    +0.000 A 
ATOM      5  C   UNL     1      44.977   3.149   9.457  0.00  0.00    +0.000 A 
ATOM      6  N   UNL     1      44.173   3.311  10.548  0.00  0.00    +0.000 N 
ATOM      7  N   UNL     1      45.189   1.870   9.085  0.00  0.00    +0.000 NA
ATOM      8  C   UNL     1      45.992   1.639   8.012  0.00  0.00    +0.000 A 
ATOM      9  H   UNL     1      43.816   2.445  10.931  0.00  0.00    +0.000 HD
BRANCH   2  11
ATOM     10  N   UNL     1      47.395   3.085   5.039  0.00  0.00    +0.000 N 
ATOM     11  C   UNL     1      47.494   2.300   6.155  0.00  0.00    +0.000 C 
ATOM     12  O   UNL     1      48.292   1.375   6.217  0.00  0.00    +0.000 OA
ATOM     13  H   UNL     1      48.053   2.897   4.290  0.00  0.00    +0.000 HD
ATOM     14  H   UNL     1      46.930   3.980   5.034  0.00  0.00    +0.000 HD
ENDBRANCH   2  11
ENDBRANCH   1   6
BRANCH   1  15
ATOM     15  C   UNL     1      44.882   5.128  12.064  0.00  0.00    +0.000 A 
ATOM     16  C   UNL     1      45.339   4.501  13.223  0.00  0.00    +0.000 A 
ATOM     17  C   UNL     1      46.357   5.102  13.944  0.00  0.00    +0.000 A 
ATOM     18  N   UNL     1      46.942   6.269  13.599  0.00  0.00    +0.000 NA
ATOM     19  C   UNL     1      46.495   6.893  12.483  0.00  0.00    +0.000 A 
ATOM     20  C   UNL     1      45.478   6.343  11.699  0.00  0.00    +0.000 A 
BRANCH  19  21
ATOM     21  C   UNL     1      47.145   8.176  12.149  0.00  0.00    +0.000 A 
ATOM     22  C   UNL     1      46.427   9.388  12.204  0.00  0.00    +0.000 A 
ATOM     23  C   UNL     1      47.033  10.612  11.896  0.00  0.00    +0.000 A 
ATOM     24  C   UNL     1      48.372  10.647  11.521  0.00  0.00    +0.000 A 
ATOM     25  C   UNL     1      49.089   9.462  11.455  0.00  0.00    +0.000 A 
ATOM     26  F   UNL     1      50.377   9.488  11.090  0.00  0.00    +0.000 F 
ATOM     27  C   UNL     1      48.493   8.241  11.760  0.00  0.00    +0.000 A 
ENDBRANCH  19  21
ENDBRANCH   1  15
TORSDOF 4
ENDMDL
MODEL 5
REMARK VINA RESULT:    -8.059      3.868      7.291
REMARK INTER + INTRA:         -10.634
REMARK INTER:                 -10.230
REMARK INTRA:                  -0.405
REMARK UNBOUND:                -0.691
REMARK  Name = 
REMARK  4 active torsions:
REMARK  status: ('A' for Active; 'I' for Inactive)
REMARK    1  A    between atoms: C_2  and  C_4
REMARK    2  A    between atoms: N_8  and  C_9
REMARK    3  A    between atoms: C_9  and  C_10
REMARK    4  A    between atoms: C_14  and  C_15
REMARK                            x       y       z     vdW  Elec       q    Type
REMARK                         _______ _______ _______ _____ _____    ______ ____
ROOT
ATOM      1  C   UNL     1      43.142   6.327  11.211  0.00  0.00    +0.000 C 
ENDROOT
BRANCH   1   6
ATOM      2  C   UNL     1      47.757   7.017  13.396  0.00  0.00    +0.000 A 
ATOM      3  C   UNL     1      46.763   6.080  13.654  0.00  0.00    +0.000 A 
ATOM      4  C   UNL     1      45.579   6.127  12.922  0.00  0.00    +0.000 A 
ATOM      5  C   UNL     1      45.405   7.104  11.949  0.00  0.00    +0.000 A 
ATOM      6  N   UNL     1      44.284   7.203  11.177  0.00  0.00    +0.000 N 
ATOM      7  N   UNL     1      46.351   8.034  11.710  0.00  0.00    +0.000 NA
ATOM      8  C   UNL     1      47.498   7.983  12.438  0.00  0.00    +0.000 A 
ATOM      9  H   UNL     1      44.293   7.983  10.531  0.00  0.00    +0.000 HD
BRANCH   2  11
ATOM     10  N   UNL     1      50.015   7.857  13.647  0.00  0.00    +0.000 N 
ATOM     11  C   UNL     1      49.042   7.022  14.121  0.00  0.00    +0.000 C 
ATOM     12  O   UNL     1      49.220   6.332  15.116  0.00  0.00    +0.000 OA
ATOM     13  H   UNL     1      50.868   7.918  14.193  0.00  0.00    +0.000 HD
ATOM     14  H   UNL     1      49.834   8.599  12.988  0.00  0.00    +0.000 HD
ENDBRANCH   2  11
ENDBRANCH   1   6
BRANCH   1  15
ATOM     15  C   UNL     1      43.488   4.870  11.014  0.00  0.00    +0.000 A 
ATOM     16  C   UNL     1      43.031   3.841  11.837  0.00  0.00    +0.000 A 
ATOM     17  C   UNL     1      43.384   2.538  11.529  0.00  0.00    +0.000 A 
ATOM     18  N   UNL     1      44.154   2.193  10.474  0.00  0.00    +0.000 NA
ATOM     19  C   UNL     1      44.616   3.186   9.678  0.00  0.00    +0.000 A 
ATOM     20  C   UNL     1      44.293   4.524   9.919  0.00  0.00    +0.000 A 
BRANCH  19  21
ATOM     21  C   UNL     1      45.470   2.772   8.547  0.00  0.00    +0.000 A 
ATOM     22  C   UNL     1      45.881   3.700   7.570  0.00  0.00    +0.000 A 
ATOM     23  C   UNL     1      46.697   3.322   6.497  0.00  0.00    +0.000 A 
ATOM     24  C   UNL     1      47.115   2.001   6.378  0.00  0.00    +0.000 A 
ATOM     25  C   UNL     1      46.712   1.074   7.327  0.00  0.00    +0.000 A 
ATOM     26  F   UNL     1      47.108  -0.201   7.216  0.00  0.00    +0.000 F 
ATOM     27  C   UNL     1      45.902   1.443   8.397  0.00  0.00    +0.000 A 
ENDBRANCH  19  21
ENDBRANCH   1  15
TORSDOF 4
ENDMDL
MODEL 6
REMARK VINA RESULT:    -7.821      3.723      7.335
REMARK INTER + INTRA:         -10.341
REMARK INTER:                  -9.598
REMARK INTRA:                  -0.744
REMARK UNBOUND:                -0.691
REMARK  Name = 
REMARK  4 active torsions:
REMARK  status: ('A' for Active; 'I' for Inactive)
REMARK    1  A    between atoms: C_2  and  C_4
REMARK    2  A    between atoms: N_8  and  C_9
REMARK    3  A    between atoms: C_9  and  C_10
REMARK    4  A    between atoms: C_14  and  C_15
REMARK                            x       y       z     vdW  Elec       q    Type
REMARK                         _______ _______ _______ _____ _____    ______ ____
ROOT
ATOM      1  C   UNL     1      45.661   5.182  13.468  0.00  0.00    +0.000 C 
ENDROOT
BRANCH   1   6
ATOM      2  C   UNL     1      48.158   9.344  11.738  0.00  0.00    +0.000 A 
ATOM      3  C   UNL     1      48.587   8.031  11.899  0.00  0.00    +0.000 A 
ATOM      4  C   UNL     1      47.704   7.088  12.417  0.00  0.00    +0.000 A 
ATOM      5  C   UNL     1      46.412   7.465  12.765  0.00  0.00    +0.000 A 
ATOM      6  N   UNL     1      45.483   6.595  13.259  0.00  0.00    +0.000 N 
ATOM      7  N   UNL     1      45.995   8.740  12.639  0.00  0.00    +0.000 NA
ATOM      8  C   UNL     1      46.869   9.654  12.140  0.00  0.00    +0.000 A 
ATOM      9  H   UNL     1      44.596   7.025  13.491  0.00  0.00    +0.000 HD
BRANCH   2  11
ATOM     10  N   UNL     1      48.416  11.445  10.559  0.00  0.00    +0.000 N 
ATOM     11  C   UNL     1      49.032  10.395  11.183  0.00  0.00    +0.000 C 
ATOM     12  O   UNL     1      50.249  10.347  11.301  0.00  0.00    +0.000 OA
ATOM     13  H   UNL     1      49.013  12.205  10.249  0.00  0.00    +0.000 HD
ATOM     14  H   UNL     1      47.429  11.637  10.645  0.00  0.00    +0.000 HD
ENDBRANCH   2  11
ENDBRANCH   1   6
BRANCH   1  15
ATOM     15  C   UNL     1      44.942   4.323  12.455  0.00  0.00    +0.000 A 
ATOM     16  C   UNL     1      43.661   3.802  12.642  0.00  0.00    +0.000 A 
ATOM     17  C   UNL     1      43.090   3.062  11.621  0.00  0.00    +0.000 A 
ATOM     18  N   UNL     1      43.698   2.805  10.443  0.00  0.00    +0.000 NA
ATOM     19  C   UNL     1      44.947   3.294  10.256  0.00  0.00    +0.000 A 
ATOM     20  C   UNL     1      45.584   4.058  11.237  0.00  0.00    +0.000 A 
BRANCH  19  21
ATOM     21  C   UNL     1      45.585   2.975   8.964  0.00  0.00    +0.000 A 
ATOM     22  C   UNL     1      45.877   3.988   8.030  0.00  0.00    +0.000 A 
ATOM     23  C   UNL     1      46.489   3.701   6.804  0.00  0.00    +0.000 A 
ATOM     24  C   UNL     1      46.817   2.387   6.486  0.00  0.00    +0.000 A 
ATOM     25  C   UNL     1      46.529   1.378   7.391  0.00  0.00    +0.000 A 
ATOM     26  F   UNL     1      46.839   0.110   7.089  0.00  0.00    +0.000 F 
ATOM     27  C   UNL     1      45.922   1.656   8.613  0.00  0.00    +0.000 A 
ENDBRANCH  19  21
ENDBRANCH   1  15
TORSDOF 4
ENDMDL
MODEL 7
REMARK VINA RESULT:    -7.498      4.809      8.332
REMARK INTER + INTRA:          -9.942
REMARK INTER:                  -9.431
REMARK INTRA:                  -0.511
REMARK UNBOUND:                -0.691
REMARK  Name = 
REMARK  4 active torsions:
REMARK  status: ('A' for Active; 'I' for Inactive)
REMARK    1  A    between atoms: C_2  and  C_4
REMARK    2  A    between atoms: N_8  and  C_9
REMARK    3  A    between atoms: C_9  and  C_10
REMARK    4  A    between atoms: C_14  and  C_15
REMARK                            x       y       z     vdW  Elec       q    Type
REMARK                         _______ _______ _______ _____ _____    ______ ____
ROOT
ATOM      1  C   UNL     1      45.303   4.228  13.733  0.00  0.00    +0.000 C 
ENDROOT
BRANCH   1   6
ATOM      2  C   UNL     1      49.107   5.076  17.103  0.00  0.00    +0.000 A 
ATOM      3  C   UNL     1      48.070   4.151  17.121  0.00  0.00    +0.000 A 
ATOM      4  C   UNL     1      47.146   4.147  16.079  0.00  0.00    +0.000 A 
ATOM      5  C   UNL     1      47.269   5.061  15.039  0.00  0.00    +0.000 A 
ATOM      6  N   UNL     1      46.418   5.106  13.974  0.00  0.00    +0.000 N 
ATOM      7  N   UNL     1      48.256   5.980  15.026  0.00  0.00    +0.000 NA
ATOM      8  C   UNL     1      49.146   5.979  16.053  0.00  0.00    +0.000 A 
ATOM      9  H   UNL     1      46.621   5.845  13.312  0.00  0.00    +0.000 HD
BRANCH   2  11
ATOM     10  N   UNL     1      50.375   3.974  18.849  0.00  0.00    +0.000 N 
ATOM     11  C   UNL     1      50.131   5.132  18.163  0.00  0.00    +0.000 C 
ATOM     12  O   UNL     1      50.754   6.158  18.401  0.00  0.00    +0.000 OA
ATOM     13  H   UNL     1      51.134   3.995  19.523  0.00  0.00    +0.000 HD
ATOM     14  H   UNL     1      50.060   3.069  18.535  0.00  0.00    +0.000 HD
ENDBRANCH   2  11
ENDBRANCH   1   6
BRANCH   1  15
ATOM     15  C   UNL     1      44.723   4.350  12.344  0.00  0.00    +0.000 A 
ATOM     16  C   UNL     1      43.570   5.074  12.040  0.00  0.00    +0.000 A 
ATOM     17  C   UNL     1      43.160   5.146  10.720  0.00  0.00    +0.000 A 
ATOM     18  N   UNL     1      43.807   4.552   9.694  0.00  0.00    +0.000 NA
ATOM     19  C   UNL     1      44.919   3.834   9.980  0.00  0.00    +0.000 A 
ATOM     20  C   UNL     1      45.400   3.725  11.287  0.00  0.00    +0.000 A 
BRANCH  19  21
ATOM     21  C   UNL     1      45.588   3.184   8.835  0.00  0.00    +0.000 A 
ATOM     22  C   UNL     1      46.034   3.938   7.732  0.00  0.00    +0.000 A 
ATOM     23  C   UNL     1      46.675   3.335   6.644  0.00  0.00    +0.000 A 
ATOM     24  C   UNL     1      46.879   1.959   6.636  0.00  0.00    +0.000 A 
ATOM     25  C   UNL     1      46.437   1.202   7.710  0.00  0.00    +0.000 A 
ATOM     26  F   UNL     1      46.625  -0.124   7.707  0.00  0.00    +0.000 F 
ATOM     27  C   UNL     1      45.799   1.795   8.797  0.00  0.00    +0.000 A 
ENDBRANCH  19  21
ENDBRANCH   1  15
TORSDOF 4
ENDMDL
MODEL 8
REMARK VINA RESULT:    -6.974      6.037      8.545
REMARK INTER + INTRA:          -9.296
REMARK INTER:                  -8.589
REMARK INTRA:                  -0.708
REMARK UNBOUND:                -0.691
REMARK  Name = 
REMARK  4 active torsions:
REMARK  status: ('A' for Active; 'I' for Inactive)
REMARK    1  A    between atoms: C_2  and  C_4
REMARK    2  A    between atoms: N_8  and  C_9
REMARK    3  A    between atoms: C_9  and  C_10
REMARK    4  A    between atoms: C_14  and  C_15
REMARK                            x       y       z     vdW  Elec       q    Type
REMARK                         _______ _______ _______ _____ _____    ______ ____
ROOT
ATOM      1  C   UNL     1      47.632   3.943  16.921  0.00  0.00    +0.000 C 
ENDROOT
BRANCH   1   6
ATOM      2  C   UNL     1      52.413   2.326  17.958  0.00  0.00    +0.000 A 
ATOM      3  C   UNL     1      51.814   3.566  18.148  0.00  0.00    +0.000 A 
ATOM      4  C   UNL     1      50.492   3.749  17.754  0.00  0.00    +0.000 A 
ATOM      5  C   UNL     1      49.789   2.697  17.177  0.00  0.00    +0.000 A 
ATOM      6  N   UNL     1      48.485   2.791  16.784  0.00  0.00    +0.000 N 
ATOM      7  N   UNL     1      50.368   1.499  16.964  0.00  0.00    +0.000 NA
ATOM      8  C   UNL     1      51.663   1.336  17.346  0.00  0.00    +0.000 A 
ATOM      9  H   UNL     1      48.120   1.949  16.357  0.00  0.00    +0.000 HD
BRANCH   2  11
ATOM     10  N   UNL     1      54.762   2.151  17.391  0.00  0.00    +0.000 N 
ATOM     11  C   UNL     1      53.805   2.054  18.363  0.00  0.00    +0.000 C 
ATOM     12  O   UNL     1      54.096   1.781  19.520  0.00  0.00    +0.000 OA
ATOM     13  H   UNL     1      55.726   2.041  17.687  0.00  0.00    +0.000 HD
ATOM     14  H   UNL     1      54.599   2.593  16.499  0.00  0.00    +0.000 HD
ENDBRANCH   2  11
ENDBRANCH   1   6
BRANCH   1  15
ATOM     15  C   UNL     1      47.554   4.792  15.674  0.00  0.00    +0.000 A 
ATOM     16  C   UNL     1      48.318   5.940  15.462  0.00  0.00    +0.000 A 
ATOM     17  C   UNL     1      48.186   6.611  14.258  0.00  0.00    +0.000 A 
ATOM     18  N   UNL     1      47.356   6.227  13.265  0.00  0.00    +0.000 NA
ATOM     19  C   UNL     1      46.599   5.122  13.466  0.00  0.00    +0.000 A 
ATOM     20  C   UNL     1      46.684   4.387  14.651  0.00  0.00    +0.000 A 
BRANCH  19  21
ATOM     21  C   UNL     1      45.690   4.745  12.366  0.00  0.00    +0.000 A 
ATOM     22  C   UNL     1      45.698   5.449  11.145  0.00  0.00    +0.000 A 
ATOM     23  C   UNL     1      44.846   5.098  10.092  0.00  0.00    +0.000 A 
ATOM     24  C   UNL     1      43.961   4.034  10.242  0.00  0.00    +0.000 A 
ATOM     25  C   UNL     1      43.936   3.338  11.440  0.00  0.00    +0.000 A 
ATOM     26  F   UNL     1      43.084   2.316  11.593  0.00  0.00    +0.000 F 
ATOM     27  C   UNL     1      44.781   3.681  12.492  0.00  0.00    +0.000 A 
ENDBRANCH  19  21
ENDBRANCH   1  15
TORSDOF 4
ENDMDL
MODEL 9
REMARK VINA RESULT:    -6.926      4.146      7.764
REMARK INTER + INTRA:          -9.236
REMARK INTER:                  -8.939
REMARK INTRA:                  -0.298
REMARK UNBOUND:                -0.691
REMARK  Name = 
REMARK  4 active torsions:
REMARK  status: ('A' for Active; 'I' for Inactive)
REMARK    1  A    between atoms: C_2  and  C_4
REMARK    2  A    between atoms: N_8  and  C_9
REMARK    3  A    between atoms: C_9  and  C_10
REMARK    4  A    between atoms: C_14  and  C_15
REMARK                            x       y       z     vdW  Elec       q    Type
REMARK                         _______ _______ _______ _____ _____    ______ ____
ROOT
ATOM      1  C   UNL     1      48.831   7.800  13.040  0.00  0.00    +0.000 C 
ENDROOT
BRANCH   1   6
ATOM      2  C   UNL     1      47.828   4.526  16.889  0.00  0.00    +0.000 A 
ATOM      3  C   UNL     1      47.566   4.432  15.528  0.00  0.00    +0.000 A 
ATOM      4  C   UNL     1      47.926   5.486  14.692  0.00  0.00    +0.000 A 
ATOM      5  C   UNL     1      48.539   6.614  15.225  0.00  0.00    +0.000 A 
ATOM      6  N   UNL     1      48.940   7.678  14.470  0.00  0.00    +0.000 N 
ATOM      7  N   UNL     1      48.773   6.727  16.548  0.00  0.00    +0.000 NA
ATOM      8  C   UNL     1      48.409   5.695  17.354  0.00  0.00    +0.000 A 
ATOM      9  H   UNL     1      49.346   8.435  15.005  0.00  0.00    +0.000 HD
BRANCH   2  11
ATOM     10  N   UNL     1      48.309   3.289  18.917  0.00  0.00    +0.000 N 
ATOM     11  C   UNL     1      47.488   3.445  17.834  0.00  0.00    +0.000 C 
ATOM     12  O   UNL     1      46.502   2.739  17.673  0.00  0.00    +0.000 OA
ATOM     13  H   UNL     1      48.028   2.599  19.606  0.00  0.00    +0.000 HD
ATOM     14  H   UNL     1      48.980   3.985  19.205  0.00  0.00    +0.000 HD
ENDBRANCH   2  11
ENDBRANCH   1   6
BRANCH   1  15
ATOM     15  C   UNL     1      47.413   7.708  12.528  0.00  0.00    +0.000 A 
ATOM     16  C   UNL     1      46.452   8.704  12.708  0.00  0.00    +0.000 A 
ATOM     17  C   UNL     1      45.196   8.520  12.155  0.00  0.00    +0.000 A 
ATOM     18  N   UNL     1      44.833   7.428  11.449  0.00  0.00    +0.000 NA
ATOM     19  C   UNL     1      45.753   6.449  11.282  0.00  0.00    +0.000 A 
ATOM     20  C   UNL     1      47.045   6.567  11.801  0.00  0.00    +0.000 A 
BRANCH  19  21
ATOM     21  C   UNL     1      45.313   5.263  10.521  0.00  0.00    +0.000 A 
ATOM     22  C   UNL     1      45.648   5.108   9.162  0.00  0.00    +0.000 A 
ATOM     23  C   UNL     1      45.242   3.985   8.431  0.00  0.00    +0.000 A 
ATOM     24  C   UNL     1      44.487   2.993   9.048  0.00  0.00    +0.000 A 
ATOM     25  C   UNL     1      44.142   3.136  10.383  0.00  0.00    +0.000 A 
ATOM     26  F   UNL     1      43.411   2.187  10.982  0.00  0.00    +0.000 F 
ATOM     27  C   UNL     1      44.542   4.249  11.116  0.00  0.00    +0.000 A 
ENDBRANCH  19  21
ENDBRANCH   1  15
TORSDOF 4
ENDMDL
