MODEL 1
REMARK VINA RESULT:    -8.586      0.000      0.000
REMARK INTER + INTRA:         -13.211
REMARK INTER:                 -12.099
REMARK INTRA:                  -1.112
REMARK UNBOUND:                -1.112
REMARK  Name = 
REMARK  7 active torsions:
REMARK  status: ('A' for Active; 'I' for Inactive)
REMARK    1  A    between atoms: C_2  and  C_3
REMARK    2  A    between atoms: C_6  and  O_7
REMARK    3  A    between atoms: O_7  and  C_8
REMARK    4  A    between atoms: C_8  and  C_9
REMARK    5  A    between atoms: C_9  and  C_12
REMARK    6  A    between atoms: C_16  and  C_17
REMARK    7  A    between atoms: C_17  and  N_18
REMARK                            x       y       z     vdW  Elec       q    Type
REMARK                         _______ _______ _______ _____ _____    ______ ____
ROOT
ATOM      1  C   UNL     1      43.731   4.781  11.985  0.00  0.00    +0.000 C 
ATOM      2  F   UNL     1      43.109   5.558  11.050  0.00  0.00    +0.000 F 
ATOM      3  F   UNL     1      42.926   4.820  13.088  0.00  0.00    +0.000 F 
ENDROOT
BRANCH   1   4
ATOM      4  C   UNL     1      45.132   5.282  12.294  0.00  0.00    +0.000 A 
ATOM      5  C   UNL     1      45.771   6.163  11.410  0.00  0.00    +0.000 A 
ATOM      6  C   UNL     1      47.030   6.678  11.715  0.00  0.00    +0.000 A 
ATOM      7  C   UNL     1      47.661   6.329  12.911  0.00  0.00    +0.000 A 
ATOM      8  C   UNL     1      47.050   5.449  13.815  0.00  0.00    +0.000 A 
ATOM      9  C   UNL     1      45.785   4.923  13.488  0.00  0.00    +0.000 A 
BRANCH   8  10
ATOM     10  C   UNL     1      47.678   5.161  15.168  0.00  0.00    +0.000 C 
BRANCH  10  11
ATOM     11  N   UNL     1      47.167   4.094  16.029  0.00  0.00    +0.000 NA
ATOM     12  C   UNL     1      47.171   4.394  17.465  0.00  0.00    +0.000 C 
ATOM     13  C   UNL     1      47.707   2.971  17.735  0.00  0.00    +0.000 C 
ATOM     14  F   UNL     1      46.796   2.057  18.158  0.00  0.00    +0.000 F 
ATOM     15  C   UNL     1      48.056   2.944  16.230  0.00  0.00    +0.000 C 
ENDBRANCH  10  11
ENDBRANCH   8  10
ENDBRANCH   1   4
BRANCH   1  16
ATOM     16  C   UNL     1      43.788   3.331  11.465  0.00  0.00    +0.000 C 
BRANCH  16  17
ATOM     17  O   UNL     1      43.458   3.281  10.068  0.00  0.00    +0.000 OA
BRANCH  17  21
ATOM     18  C   UNL     1      46.586   2.393   7.455  0.00  0.00    +0.000 A 
ATOM     19  C   UNL     1      46.123   3.710   7.517  0.00  0.00    +0.000 A 
ATOM     20  C   UNL     1      45.078   4.053   8.382  0.00  0.00    +0.000 A 
ATOM     21  C   UNL     1      44.487   3.081   9.191  0.00  0.00    +0.000 A 
ATOM     22  C   UNL     1      44.955   1.765   9.128  0.00  0.00    +0.000 A 
ATOM     23  C   UNL     1      45.999   1.418   8.265  0.00  0.00    +0.000 A 
BRANCH  18  25
ATOM     24  N   UNL     1      48.521   1.765   5.845  0.00  0.00    +0.000 NA
ATOM     25  C   UNL     1      47.653   2.048   6.567  0.00  0.00    +0.000 C 
ENDBRANCH  18  25
ENDBRANCH  17  21
ENDBRANCH  16  17
ENDBRANCH   1  16
TORSDOF 7
ENDMDL
MODEL 2
REMARK VINA RESULT:    -7.906      2.521      4.747
REMARK INTER + INTRA:         -12.253
REMARK INTER:                 -11.440
REMARK INTRA:                  -0.813
REMARK UNBOUND:                -1.112
REMARK  Name = 
REMARK  7 active torsions:
REMARK  status: ('A' for Active; 'I' for Inactive)
REMARK    1  A    between atoms: C_2  and  C_3
REMARK    2  A    between atoms: C_6  and  O_7
REMARK    3  A    between atoms: O_7  and  C_8
REMARK    4  A    between atoms: C_8  and  C_9
REMARK    5  A    between atoms: C_9  and  C_12
REMARK    6  A    between atoms: C_16  and  C_17
REMARK    7  A    between atoms: C_17  and  N_18
REMARK                            x       y       z     vdW  Elec       q    Type
REMARK                         _______ _______ _______ _____ _____    ______ ____
ROOT
ATOM      1  C   UNL     1      43.336   4.388  12.660  0.00  0.00    +0.000 C 
ATOM      2  F   UNL     1      42.302   5.255  12.449  0.00  0.00    +0.000 F 
ATOM      3  F   UNL     1      43.004   3.689  13.786  0.00  0.00    +0.000 F 
ENDROOT
BRANCH   1   4
ATOM      4  C   UNL     1      44.660   5.116  12.821  0.00  0.00    +0.000 A 
ATOM      5  C   UNL     1      45.812   4.403  13.182  0.00  0.00    +0.000 A 
ATOM      6  C   UNL     1      47.043   5.050  13.271  0.00  0.00    +0.000 A 
ATOM      7  C   UNL     1      47.141   6.415  12.990  0.00  0.00    +0.000 A 
ATOM      8  C   UNL     1      46.008   7.157  12.629  0.00  0.00    +0.000 A 
ATOM      9  C   UNL     1      44.768   6.495  12.558  0.00  0.00    +0.000 A 
BRANCH   8  10
ATOM     10  C   UNL     1      46.131   8.612  12.208  0.00  0.00    +0.000 C 
BRANCH  10  11
ATOM     11  N   UNL     1      44.960   9.488  12.160  0.00  0.00    +0.000 NA
ATOM     12  C   UNL     1      44.114   9.336  10.972  0.00  0.00    +0.000 C 
ATOM     13  C   UNL     1      44.007  10.874  10.882  0.00  0.00    +0.000 C 
ATOM     14  F   UNL     1      42.858  11.424  11.352  0.00  0.00    +0.000 F 
ATOM     15  C   UNL     1      45.219  10.896  11.840  0.00  0.00    +0.000 C 
ENDBRANCH  10  11
ENDBRANCH   8  10
ENDBRANCH   1   4
BRANCH   1  16
ATOM     16  C   UNL     1      43.410   3.408  11.473  0.00  0.00    +0.000 C 
BRANCH  16  17
ATOM     17  O   UNL     1      43.741   4.105  10.261  0.00  0.00    +0.000 OA
BRANCH  17  21
ATOM     18  C   UNL     1      46.548   2.527   7.610  0.00  0.00    +0.000 A 
ATOM     19  C   UNL     1      45.841   1.646   8.433  0.00  0.00    +0.000 A 
ATOM     20  C   UNL     1      44.887   2.132   9.334  0.00  0.00    +0.000 A 
ATOM     21  C   UNL     1      44.635   3.503   9.420  0.00  0.00    +0.000 A 
ATOM     22  C   UNL     1      45.344   4.380   8.594  0.00  0.00    +0.000 A 
ATOM     23  C   UNL     1      46.298   3.898   7.691  0.00  0.00    +0.000 A 
BRANCH  18  25
ATOM     24  N   UNL     1      48.317   1.617   5.945  0.00  0.00    +0.000 NA
ATOM     25  C   UNL     1      47.524   2.024   6.692  0.00  0.00    +0.000 C 
ENDBRANCH  18  25
ENDBRANCH  17  21
ENDBRANCH  16  17
ENDBRANCH   1  16
TORSDOF 7
ENDMDL
MODEL 3
REMARK VINA RESULT:    -7.537      2.651      4.208
REMARK INTER + INTRA:         -11.733
REMARK INTER:                 -10.825
REMARK INTRA:                  -0.908
REMARK UNBOUND:                -1.112
REMARK  Name = 
REMARK  7 active torsions:
REMARK  status: ('A' for Active; 'I' for Inactive)
REMARK    1  A    between atoms: C_2  and  C_3
REMARK    2  A    between atoms: C_6  and  O_7
REMARK    3  A    between atoms: O_7  and  C_8
REMARK    4  A    between atoms: C_8  and  C_9
REMARK    5  A    between atoms: C_9  and  C_12
REMARK    6  A    between atoms: C_16  and  C_17
REMARK    7  A    between atoms: C_17  and  N_18
REMARK                            x       y       z     vdW  Elec       q    Type
REMARK                         _______ _______ _______ _____ _____    ______ ____
ROOT
ATOM      1  C   UNL     1      43.582   5.360  12.237  0.00  0.00    +0.000 C 
ATOM      2  F   UNL     1      43.212   6.368  11.393  0.00  0.00    +0.000 F 
ATOM      3  F   UNL     1      42.637   5.343  13.224  0.00  0.00    +0.000 F 
ENDROOT
BRANCH   1   4
ATOM      4  C   UNL     1      44.976   5.579  12.800  0.00  0.00    +0.000 A 
ATOM      5  C   UNL     1      45.691   4.500  13.338  0.00  0.00    +0.000 A 
ATOM      6  C   UNL     1      46.995   4.677  13.799  0.00  0.00    +0.000 A 
ATOM      7  C   UNL     1      47.604   5.931  13.718  0.00  0.00    +0.000 A 
ATOM      8  C   UNL     1      46.916   7.031  13.189  0.00  0.00    +0.000 A 
ATOM      9  C   UNL     1      45.594   6.842  12.740  0.00  0.00    +0.000 A 
BRANCH   8  10
ATOM     10  C   UNL     1      47.614   8.365  12.989  0.00  0.00    +0.000 C 
BRANCH  10  11
ATOM     11  N   UNL     1      48.701   8.515  12.021  0.00  0.00    +0.000 NA
ATOM     12  C   UNL     1      50.053   8.486  12.590  0.00  0.00    +0.000 C 
ATOM     13  C   UNL     1      50.436   9.671  11.677  0.00  0.00    +0.000 C 
ATOM     14  F   UNL     1      51.143   9.364  10.560  0.00  0.00    +0.000 F 
ATOM     15  C   UNL     1      48.914   9.867  11.492  0.00  0.00    +0.000 C 
ENDBRANCH  10  11
ENDBRANCH   8  10
ENDBRANCH   1   4
BRANCH   1  16
ATOM     16  C   UNL     1      43.522   4.025  11.471  0.00  0.00    +0.000 C 
BRANCH  16  17
ATOM     17  O   UNL     1      43.511   4.255  10.053  0.00  0.00    +0.000 OA
BRANCH  17  21
ATOM     18  C   UNL     1      46.474   2.520   7.686  0.00  0.00    +0.000 A 
ATOM     19  C   UNL     1      45.714   1.691   8.514  0.00  0.00    +0.000 A 
ATOM     20  C   UNL     1      44.706   2.230   9.322  0.00  0.00    +0.000 A 
ATOM     21  C   UNL     1      44.454   3.603   9.309  0.00  0.00    +0.000 A 
ATOM     22  C   UNL     1      45.216   4.429   8.477  0.00  0.00    +0.000 A 
ATOM     23  C   UNL     1      46.224   3.894   7.668  0.00  0.00    +0.000 A 
BRANCH  18  25
ATOM     24  N   UNL     1      48.343   1.508   6.196  0.00  0.00    +0.000 NA
ATOM     25  C   UNL     1      47.505   1.963   6.864  0.00  0.00    +0.000 C 
ENDBRANCH  18  25
ENDBRANCH  17  21
ENDBRANCH  16  17
ENDBRANCH   1  16
TORSDOF 7
ENDMDL
MODEL 4
REMARK VINA RESULT:    -7.484      2.210      2.697
REMARK INTER + INTRA:         -11.658
REMARK INTER:                 -10.854
REMARK INTRA:                  -0.805
REMARK UNBOUND:                -1.112
REMARK  Name = 
REMARK  7 active torsions:
REMARK  status: ('A' for Active; 'I' for Inactive)
REMARK    1  A    between atoms: C_2  and  C_3
REMARK    2  A    between atoms: C_6  and  O_7
REMARK    3  A    between atoms: O_7  and  C_8
REMARK    4  A    between atoms: C_8  and  C_9
REMARK    5  A    between atoms: C_9  and  C_12
REMARK    6  A    between atoms: C_16  and  C_17
REMARK    7  A    between atoms: C_17  and  N_18
REMARK                            x       y       z     vdW  Elec       q    Type
REMARK                         _______ _______ _______ _____ _____    ______ ____
ROOT
ATOM      1  C   UNL     1      44.155   4.847  12.162  0.00  0.00    +0.000 C 
ATOM      2  F   UNL     1      43.228   5.021  13.150  0.00  0.00    +0.000 F 
ATOM      3  F   UNL     1      44.774   3.661  12.445  0.00  0.00    +0.000 F 
ENDROOT
BRANCH   1   4
ATOM      4  C   UNL     1      45.147   5.998  12.109  0.00  0.00    +0.000 A 
ATOM      5  C   UNL     1      44.690   7.306  11.894  0.00  0.00    +0.000 A 
ATOM      6  C   UNL     1      45.583   8.376  11.906  0.00  0.00    +0.000 A 
ATOM      7  C   UNL     1      46.941   8.154  12.145  0.00  0.00    +0.000 A 
ATOM      8  C   UNL     1      47.431   6.859  12.360  0.00  0.00    +0.000 A 
ATOM      9  C   UNL     1      46.520   5.785  12.330  0.00  0.00    +0.000 A 
BRANCH   8  10
ATOM     10  C   UNL     1      48.884   6.627  12.737  0.00  0.00    +0.000 C 
BRANCH  10  11
ATOM     11  N   UNL     1      49.394   7.001  14.056  0.00  0.00    +0.000 NA
ATOM     12  C   UNL     1      48.556   6.593  15.188  0.00  0.00    +0.000 C 
ATOM     13  C   UNL     1      48.787   7.981  15.826  0.00  0.00    +0.000 C 
ATOM     14  F   UNL     1      49.708   8.039  16.820  0.00  0.00    +0.000 F 
ATOM     15  C   UNL     1      49.265   8.416  14.422  0.00  0.00    +0.000 C 
ENDBRANCH  10  11
ENDBRANCH   8  10
ENDBRANCH   1   4
BRANCH   1  16
ATOM     16  C   UNL     1      43.423   4.714  10.813  0.00  0.00    +0.000 C 
BRANCH  16  17
ATOM     17  O   UNL     1      43.551   3.380  10.297  0.00  0.00    +0.000 OA
BRANCH  17  21
ATOM     18  C   UNL     1      46.525   2.432   7.531  0.00  0.00    +0.000 A 
ATOM     19  C   UNL     1      46.160   3.771   7.683  0.00  0.00    +0.000 A 
ATOM     20  C   UNL     1      45.170   4.135   8.602  0.00  0.00    +0.000 A 
ATOM     21  C   UNL     1      44.536   3.160   9.375  0.00  0.00    +0.000 A 
ATOM     22  C   UNL     1      44.906   1.821   9.221  0.00  0.00    +0.000 A 
ATOM     23  C   UNL     1      45.896   1.453   8.304  0.00  0.00    +0.000 A 
BRANCH  18  25
ATOM     24  N   UNL     1      48.359   1.770   5.819  0.00  0.00    +0.000 NA
ATOM     25  C   UNL     1      47.537   2.066   6.588  0.00  0.00    +0.000 C 
ENDBRANCH  18  25
ENDBRANCH  17  21
ENDBRANCH  16  17
ENDBRANCH   1  16
TORSDOF 7
ENDMDL
MODEL 5
REMARK VINA RESULT:    -7.386      2.322      3.151
REMARK INTER + INTRA:         -11.520
REMARK INTER:                 -11.131
REMARK INTRA:                  -0.389
REMARK UNBOUND:                -1.112
REMARK  Name = 
REMARK  7 active torsions:
REMARK  status: ('A' for Active; 'I' for Inactive)
REMARK    1  A    between atoms: C_2  and  C_3
REMARK    2  A    between atoms: C_6  and  O_7
REMARK    3  A    between atoms: O_7  and  C_8
REMARK    4  A    between atoms: C_8  and  C_9
REMARK    5  A    between atoms: C_9  and  C_12
REMARK    6  A    between atoms: C_16  and  C_17
REMARK    7  A    between atoms: C_17  and  N_18
REMARK                            x       y       z     vdW  Elec       q    Type
REMARK                         _______ _______ _______ _____ _____    ______ ____
ROOT
ATOM      1  C   UNL     1      43.284   4.873  12.181  0.00  0.00    +0.000 C 
ATOM      2  F   UNL     1      42.274   5.313  11.373  0.00  0.00    +0.000 F 
ATOM      3  F   UNL     1      42.711   4.662  13.403  0.00  0.00    +0.000 F 
ENDROOT
BRANCH   1   4
ATOM      4  C   UNL     1      44.422   5.877  12.260  0.00  0.00    +0.000 A 
ATOM      5  C   UNL     1      44.292   7.132  11.647  0.00  0.00    +0.000 A 
ATOM      6  C   UNL     1      45.303   8.083  11.768  0.00  0.00    +0.000 A 
ATOM      7  C   UNL     1      46.450   7.799  12.511  0.00  0.00    +0.000 A 
ATOM      8  C   UNL     1      46.613   6.554  13.134  0.00  0.00    +0.000 A 
ATOM      9  C   UNL     1      45.591   5.596  12.991  0.00  0.00    +0.000 A 
BRANCH   8  10
ATOM     10  C   UNL     1      47.802   6.284  14.039  0.00  0.00    +0.000 C 
BRANCH  10  11
ATOM     11  N   UNL     1      49.159   6.662  13.642  0.00  0.00    +0.000 NA
ATOM     12  C   UNL     1      49.657   7.911  14.228  0.00  0.00    +0.000 C 
ATOM     13  C   UNL     1      50.234   8.299  12.850  0.00  0.00    +0.000 C 
ATOM     14  F   UNL     1      51.567   8.110  12.682  0.00  0.00    +0.000 F 
ATOM     15  C   UNL     1      49.309   7.197  12.284  0.00  0.00    +0.000 C 
ENDBRANCH  10  11
ENDBRANCH   8  10
ENDBRANCH   1   4
BRANCH   1  16
ATOM     16  C   UNL     1      43.802   3.526  11.638  0.00  0.00    +0.000 C 
BRANCH  16  17
ATOM     17  O   UNL     1      43.435   3.362  10.259  0.00  0.00    +0.000 OA
BRANCH  17  21
ATOM     18  C   UNL     1      46.492   2.416   7.584  0.00  0.00    +0.000 A 
ATOM     19  C   UNL     1      46.119   3.755   7.721  0.00  0.00    +0.000 A 
ATOM     20  C   UNL     1      45.101   4.118   8.610  0.00  0.00    +0.000 A 
ATOM     21  C   UNL     1      44.447   3.143   9.366  0.00  0.00    +0.000 A 
ATOM     22  C   UNL     1      44.825   1.805   9.227  0.00  0.00    +0.000 A 
ATOM     23  C   UNL     1      45.843   1.438   8.340  0.00  0.00    +0.000 A 
BRANCH  18  25
ATOM     24  N   UNL     1      48.379   1.754   5.931  0.00  0.00    +0.000 NA
ATOM     25  C   UNL     1      47.532   2.051   6.671  0.00  0.00    +0.000 C 
ENDBRANCH  18  25
ENDBRANCH  17  21
ENDBRANCH  16  17
ENDBRANCH   1  16
TORSDOF 7
ENDMDL
MODEL 6
REMARK VINA RESULT:    -6.658      2.716      7.551
REMARK INTER + INTRA:         -10.494
REMARK INTER:                  -9.402
REMARK INTRA:                  -1.091
REMARK UNBOUND:                -1.112
REMARK  Name = 
REMARK  7 active torsions:
REMARK  status: ('A' for Active; 'I' for Inactive)
REMARK    1  A    between atoms: C_2  and  C_3
REMARK    2  A    between atoms: C_6  and  O_7
REMARK    3  A    between atoms: O_7  and  C_8
REMARK    4  A    between atoms: C_8  and  C_9
REMARK    5  A    between atoms: C_9  and  C_12
REMARK    6  A    between atoms: C_16  and  C_17
REMARK    7  A    between atoms: C_17  and  N_18
REMARK                            x       y       z     vdW  Elec       q    Type
REMARK                         _______ _______ _______ _____ _____    ______ ____
ROOT
ATOM      1  C   UNL     1      45.175   6.923  11.540  0.00  0.00    +0.000 C 
ATOM      2  F   UNL     1      44.146   7.814  11.424  0.00  0.00    +0.000 F 
ATOM      3  F   UNL     1      45.989   7.162  10.468  0.00  0.00    +0.000 F 
ENDROOT
BRANCH   1   4
ATOM      4  C   UNL     1      44.679   5.487  11.558  0.00  0.00    +0.000 A 
ATOM      5  C   UNL     1      43.836   5.050  12.591  0.00  0.00    +0.000 A 
ATOM      6  C   UNL     1      43.325   3.754  12.583  0.00  0.00    +0.000 A 
ATOM      7  C   UNL     1      43.639   2.881  11.539  0.00  0.00    +0.000 A 
ATOM      8  C   UNL     1      44.481   3.285  10.494  0.00  0.00    +0.000 A 
ATOM      9  C   UNL     1      45.004   4.592  10.522  0.00  0.00    +0.000 A 
BRANCH   8  10
ATOM     10  C   UNL     1      44.730   2.380   9.299  0.00  0.00    +0.000 C 
BRANCH  10  11
ATOM     11  N   UNL     1      46.040   2.323   8.651  0.00  0.00    +0.000 NA
ATOM     12  C   UNL     1      46.141   3.049   7.380  0.00  0.00    +0.000 C 
ATOM     13  C   UNL     1      46.924   1.857   6.790  0.00  0.00    +0.000 C 
ATOM     14  F   UNL     1      48.272   2.000   6.719  0.00  0.00    +0.000 F 
ATOM     15  C   UNL     1      46.383   1.056   7.996  0.00  0.00    +0.000 C 
ENDBRANCH  10  11
ENDBRANCH   8  10
ENDBRANCH   1   4
BRANCH   1  16
ATOM     16  C   UNL     1      45.955   7.232  12.833  0.00  0.00    +0.000 C 
BRANCH  16  17
ATOM     17  O   UNL     1      47.149   6.437  12.906  0.00  0.00    +0.000 OA
BRANCH  17  21
ATOM     18  C   UNL     1      48.058   4.685  16.580  0.00  0.00    +0.000 A 
ATOM     19  C   UNL     1      47.179   4.018  15.724  0.00  0.00    +0.000 A 
ATOM     20  C   UNL     1      46.849   4.567  14.480  0.00  0.00    +0.000 A 
ATOM     21  C   UNL     1      47.395   5.790  14.085  0.00  0.00    +0.000 A 
ATOM     22  C   UNL     1      48.277   6.453  14.944  0.00  0.00    +0.000 A 
ATOM     23  C   UNL     1      48.609   5.906  16.188  0.00  0.00    +0.000 A 
BRANCH  18  25
ATOM     24  N   UNL     1      48.658   3.657  18.886  0.00  0.00    +0.000 NA
ATOM     25  C   UNL     1      48.390   4.118  17.852  0.00  0.00    +0.000 C 
ENDBRANCH  18  25
ENDBRANCH  17  21
ENDBRANCH  16  17
ENDBRANCH   1  16
TORSDOF 7
ENDMDL
MODEL 7
REMARK VINA RESULT:    -6.280      3.244      8.061
REMARK INTER + INTRA:          -9.962
REMARK INTER:                  -9.292
REMARK INTRA:                  -0.670
REMARK UNBOUND:                -1.112
REMARK  Name = 
REMARK  7 active torsions:
REMARK  status: ('A' for Active; 'I' for Inactive)
REMARK    1  A    between atoms: C_2  and  C_3
REMARK    2  A    between atoms: C_6  and  O_7
REMARK    3  A    between atoms: O_7  and  C_8
REMARK    4  A    between atoms: C_8  and  C_9
REMARK    5  A    between atoms: C_9  and  C_12
REMARK    6  A    between atoms: C_16  and  C_17
REMARK    7  A    between atoms: C_17  and  N_18
REMARK                            x       y       z     vdW  Elec       q    Type
REMARK                         _______ _______ _______ _____ _____    ______ ____
ROOT
ATOM      1  C   UNL     1      46.731   5.089  13.726  0.00  0.00    +0.000 C 
ATOM      2  F   UNL     1      46.732   6.302  14.355  0.00  0.00    +0.000 F 
ATOM      3  F   UNL     1      47.872   5.066  12.974  0.00  0.00    +0.000 F 
ENDROOT
BRANCH   1   4
ATOM      4  C   UNL     1      45.491   4.899  12.869  0.00  0.00    +0.000 A 
ATOM      5  C   UNL     1      44.480   5.871  12.874  0.00  0.00    +0.000 A 
ATOM      6  C   UNL     1      43.368   5.736  12.044  0.00  0.00    +0.000 A 
ATOM      7  C   UNL     1      43.257   4.636  11.191  0.00  0.00    +0.000 A 
ATOM      8  C   UNL     1      44.248   3.645  11.165  0.00  0.00    +0.000 A 
ATOM      9  C   UNL     1      45.359   3.785  12.019  0.00  0.00    +0.000 A 
BRANCH   8  10
ATOM     10  C   UNL     1      44.189   2.511  10.156  0.00  0.00    +0.000 C 
BRANCH  10  11
ATOM     11  N   UNL     1      44.595   2.712   8.764  0.00  0.00    +0.000 NA
ATOM     12  C   UNL     1      45.819   2.009   8.363  0.00  0.00    +0.000 C 
ATOM     13  C   UNL     1      46.275   3.283   7.618  0.00  0.00    +0.000 C 
ATOM     14  F   UNL     1      46.104   3.285   6.272  0.00  0.00    +0.000 F 
ATOM     15  C   UNL     1      45.195   4.013   8.448  0.00  0.00    +0.000 C 
ENDBRANCH  10  11
ENDBRANCH   8  10
ENDBRANCH   1   4
BRANCH   1  16
ATOM     16  C   UNL     1      46.817   3.979  14.791  0.00  0.00    +0.000 C 
BRANCH  16  17
ATOM     17  O   UNL     1      47.140   4.534  16.076  0.00  0.00    +0.000 OA
BRANCH  17  21
ATOM     18  C   UNL     1      50.829   3.333  17.608  0.00  0.00    +0.000 A 
ATOM     19  C   UNL     1      50.555   4.700  17.528  0.00  0.00    +0.000 A 
ATOM     20  C   UNL     1      49.329   5.148  17.024  0.00  0.00    +0.000 A 
ATOM     21  C   UNL     1      48.368   4.230  16.595  0.00  0.00    +0.000 A 
ATOM     22  C   UNL     1      48.645   2.862  16.679  0.00  0.00    +0.000 A 
ATOM     23  C   UNL     1      49.870   2.411  17.183  0.00  0.00    +0.000 A 
BRANCH  18  25
ATOM     24  N   UNL     1      53.107   2.512  18.540  0.00  0.00    +0.000 NA
ATOM     25  C   UNL     1      52.086   2.881  18.122  0.00  0.00    +0.000 C 
ENDBRANCH  18  25
ENDBRANCH  17  21
ENDBRANCH  16  17
ENDBRANCH   1  16
TORSDOF 7
ENDMDL
MODEL 8
REMARK VINA RESULT:    -6.131      3.657      7.522
REMARK INTER + INTRA:          -9.751
REMARK INTER:                  -9.125
REMARK INTRA:                  -0.626
REMARK UNBOUND:                -1.112
REMARK  Name = 
REMARK  7 active torsions:
REMARK  status: ('A' for Active; 'I' for Inactive)
REMARK    1  A    between atoms: C_2  and  C_3
REMARK    2  A    between atoms: C_6  and  O_7
REMARK    3  A    between atoms: O_7  and  C_8
REMARK    4  A    between atoms: C_8  and  C_9
REMARK    5  A    between atoms: C_9  and  C_12
REMARK    6  A    between atoms: C_16  and  C_17
REMARK    7  A    between atoms: C_17  and  N_18
REMARK                            x       y       z     vdW  Elec       q    Type
REMARK                         _______ _______ _______ _____ _____    ______ ____
ROOT
ATOM      1  C   UNL     1      46.597   4.588  13.905  0.00  0.00    +0.000 C 
ATOM      2  F   UNL     1      47.513   3.617  13.616  0.00  0.00    +0.000 F 
ATOM      3  F   UNL     1      46.257   4.392  15.215  0.00  0.00    +0.000 F 
ENDROOT
BRANCH   1   4
ATOM      4  C   UNL     1      45.384   4.509  12.993  0.00  0.00    +0.000 A 
ATOM      5  C   UNL     1      44.403   5.509  13.045  0.00  0.00    +0.000 A 
ATOM      6  C   UNL     1      43.319   5.480  12.169  0.00  0.00    +0.000 A 
ATOM      7  C   UNL     1      43.207   4.459  11.224  0.00  0.00    +0.000 A 
ATOM      8  C   UNL     1      44.169   3.442  11.148  0.00  0.00    +0.000 A 
ATOM      9  C   UNL     1      45.251   3.475  12.048  0.00  0.00    +0.000 A 
BRANCH   8  10
ATOM     10  C   UNL     1      44.115   2.398  10.045  0.00  0.00    +0.000 C 
BRANCH  10  11
ATOM     11  N   UNL     1      44.581   2.700   8.692  0.00  0.00    +0.000 NA
ATOM     12  C   UNL     1      45.862   2.088   8.321  0.00  0.00    +0.000 C 
ATOM     13  C   UNL     1      46.283   3.425   7.673  0.00  0.00    +0.000 C 
ATOM     14  F   UNL     1      46.183   3.495   6.321  0.00  0.00    +0.000 F 
ATOM     15  C   UNL     1      45.121   4.047   8.479  0.00  0.00    +0.000 C 
ENDBRANCH  10  11
ENDBRANCH   8  10
ENDBRANCH   1   4
BRANCH   1  16
ATOM     16  C   UNL     1      47.274   5.966  13.770  0.00  0.00    +0.000 C 
BRANCH  16  17
ATOM     17  O   UNL     1      48.402   5.890  12.884  0.00  0.00    +0.000 OA
BRANCH  17  21
ATOM     18  C   UNL     1      50.767   9.322  12.714  0.00  0.00    +0.000 A 
ATOM     19  C   UNL     1      50.208   8.840  11.529  0.00  0.00    +0.000 A 
ATOM     20  C   UNL     1      49.404   7.694  11.540  0.00  0.00    +0.000 A 
ATOM     21  C   UNL     1      49.157   7.021  12.738  0.00  0.00    +0.000 A 
ATOM     22  C   UNL     1      49.716   7.508  13.922  0.00  0.00    +0.000 A 
ATOM     23  C   UNL     1      50.519   8.653  13.915  0.00  0.00    +0.000 A 
BRANCH  18  25
ATOM     24  N   UNL     1      52.257  11.446  12.680  0.00  0.00    +0.000 NA
ATOM     25  C   UNL     1      51.589  10.493  12.696  0.00  0.00    +0.000 C 
ENDBRANCH  18  25
ENDBRANCH  17  21
ENDBRANCH  16  17
ENDBRANCH   1  16
TORSDOF 7
ENDMDL
MODEL 9
REMARK VINA RESULT:    -5.975      3.777      7.347
REMARK INTER + INTRA:          -9.532
REMARK INTER:                  -8.721
REMARK INTRA:                  -0.812
REMARK UNBOUND:                -1.112
REMARK  Name = 
REMARK  7 active torsions:
REMARK  status: ('A' for Active; 'I' for Inactive)
REMARK    1  A    between atoms: C_2  and  C_3
REMARK    2  A    between atoms: C_6  and  O_7
REMARK    3  A    between atoms: O_7  and  C_8
REMARK    4  A    between atoms: C_8  and  C_9
REMARK    5  A    between atoms: C_9  and  C_12
REMARK    6  A    between atoms: C_16  and  C_17
REMARK    7  A    between atoms: C_17  and  N_18
REMARK                            x       y       z     vdW  Elec       q    Type
REMARK                         _______ _______ _______ _____ _____    ______ ____
ROOT
ATOM      1  C   UNL     1      45.610   6.687  12.083  0.00  0.00    +0.000 C 
ATOM      2  F   UNL     1      44.720   7.636  12.501  0.00  0.00    +0.000 F 
ATOM      3  F   UNL     1      46.144   7.172  10.921  0.00  0.00    +0.000 F 
ENDROOT
BRANCH   1   4
ATOM      4  C   UNL     1      44.941   5.339  11.873  0.00  0.00    +0.000 A 
ATOM      5  C   UNL     1      43.989   4.879  12.793  0.00  0.00    +0.000 A 
ATOM      6  C   UNL     1      43.323   3.674  12.577  0.00  0.00    +0.000 A 
ATOM      7  C   UNL     1      43.593   2.918  11.434  0.00  0.00    +0.000 A 
ATOM      8  C   UNL     1      44.542   3.347  10.497  0.00  0.00    +0.000 A 
ATOM      9  C   UNL     1      45.218   4.560  10.734  0.00  0.00    +0.000 A 
BRANCH   8  10
ATOM     10  C   UNL     1      44.751   2.590   9.196  0.00  0.00    +0.000 C 
BRANCH  10  11
ATOM     11  N   UNL     1      46.072   2.506   8.573  0.00  0.00    +0.000 NA
ATOM     12  C   UNL     1      46.206   3.214   7.295  0.00  0.00    +0.000 C 
ATOM     13  C   UNL     1      46.982   2.002   6.734  0.00  0.00    +0.000 C 
ATOM     14  F   UNL     1      48.333   2.125   6.686  0.00  0.00    +0.000 F 
ATOM     15  C   UNL     1      46.408   1.225   7.940  0.00  0.00    +0.000 C 
ENDBRANCH  10  11
ENDBRANCH   8  10
ENDBRANCH   1   4
BRANCH   1  16
ATOM     16  C   UNL     1      46.733   6.566  13.131  0.00  0.00    +0.000 C 
BRANCH  16  17
ATOM     17  O   UNL     1      47.316   7.851  13.399  0.00  0.00    +0.000 OA
BRANCH  17  21
ATOM     18  C   UNL     1      50.672   9.154  11.291  0.00  0.00    +0.000 A 
ATOM     19  C   UNL     1      50.432   7.781  11.377  0.00  0.00    +0.000 A 
ATOM     20  C   UNL     1      49.316   7.299  12.071  0.00  0.00    +0.000 A 
ATOM     21  C   UNL     1      48.433   8.189  12.686  0.00  0.00    +0.000 A 
ATOM     22  C   UNL     1      48.675   9.563  12.595  0.00  0.00    +0.000 A 
ATOM     23  C   UNL     1      49.789  10.048  11.902  0.00  0.00    +0.000 A 
BRANCH  18  25
ATOM     24  N   UNL     1      52.745  10.037  10.004  0.00  0.00    +0.000 NA
ATOM     25  C   UNL     1      51.816   9.640  10.582  0.00  0.00    +0.000 C 
ENDBRANCH  18  25
ENDBRANCH  17  21
ENDBRANCH  16  17
ENDBRANCH   1  16
TORSDOF 7
ENDMDL
