MODEL 1
REMARK VINA RESULT:    -7.656      0.000      0.000
REMARK INTER + INTRA:         -10.351
REMARK INTER:                  -9.670
REMARK INTRA:                  -0.682
REMARK UNBOUND:                -0.682
REMARK  Name = 
REMARK  5 active torsions:
REMARK  status: ('A' for Active; 'I' for Inactive)
REMARK    1  A    between atoms: N_1  and  C_2
REMARK    2  A    between atoms: C_2  and  C_3
REMARK    3  A    between atoms: C_3  and  C_4
REMARK    4  A    between atoms: C_7  and  C_8
REMARK    5  A    between atoms: C_8  and  N_9
REMARK                            x       y       z     vdW  Elec       q    Type
REMARK                         _______ _______ _______ _____ _____    ______ ____
ROOT
ATOM      1  C   UNL     1      45.943   2.583   8.246  0.00  0.00    +0.000 A 
ATOM      2  C   UNL     1      46.025   3.982   8.220  0.00  0.00    +0.000 A 
ATOM      3  C   UNL     1      45.218   4.762   9.057  0.00  0.00    +0.000 A 
ATOM      4  C   UNL     1      44.303   4.160   9.934  0.00  0.00    +0.000 A 
ATOM      5  C   UNL     1      44.227   2.760   9.960  0.00  0.00    +0.000 A 
ATOM      6  C   UNL     1      45.039   1.981   9.129  0.00  0.00    +0.000 A 
ENDROOT
BRANCH   1   7
ATOM      7  C   UNL     1      46.762   1.735   7.297  0.00  0.00    +0.000 C 
BRANCH   7   8
ATOM      8  C   UNL     1      47.992   2.457   6.741  0.00  0.00    +0.000 C 
BRANCH   8   9
ATOM      9  N   UNL     1      48.479   1.805   5.525  0.00  0.00    +0.000 NA
ATOM     10  H   UNL     1      48.685   0.827   5.728  0.00  0.00    +0.000 HD
ATOM     11  H   UNL     1      49.360   2.228   5.237  0.00  0.00    +0.000 HD
ENDBRANCH   8   9
ENDBRANCH   7   8
ENDBRANCH   1   7
BRANCH   4  12
ATOM     12  C   UNL     1      43.337   4.995  10.754  0.00  0.00    +0.000 C 
BRANCH  12  13
ATOM     13  N   UNL     1      44.075   5.949  11.575  0.00  0.00    +0.000 N 
ATOM     14  N   UNL     1      44.037   7.266  11.255  0.00  0.00    +0.000 NA
ATOM     15  C   UNL     1      45.146   7.744  11.824  0.00  0.00    +0.000 A 
ATOM     16  C   UNL     1      45.839   6.772  12.577  0.00  0.00    +0.000 A 
ATOM     17  C   UNL     1      47.045   6.716  13.295  0.00  0.00    +0.000 A 
ATOM     18  C   UNL     1      47.370   5.537  13.978  0.00  0.00    +0.000 A 
ATOM     19  C   UNL     1      46.500   4.447  13.979  0.00  0.00    +0.000 A 
ATOM     20  C   UNL     1      45.314   4.471  13.239  0.00  0.00    +0.000 A 
ATOM     21  C   UNL     1      45.029   5.640  12.517  0.00  0.00    +0.000 A 
ENDBRANCH  12  13
ENDBRANCH   4  12
TORSDOF 5
ENDMDL
MODEL 2
REMARK VINA RESULT:    -7.152      1.314      2.437
REMARK INTER + INTRA:          -9.715
REMARK INTER:                  -9.134
REMARK INTRA:                  -0.582
REMARK UNBOUND:                -0.682
REMARK  Name = 
REMARK  5 active torsions:
REMARK  status: ('A' for Active; 'I' for Inactive)
REMARK    1  A    between atoms: N_1  and  C_2
REMARK    2  A    between atoms: C_2  and  C_3
REMARK    3  A    between atoms: C_3  and  C_4
REMARK    4  A    between atoms: C_7  and  C_8
REMARK    5  A    between atoms: C_8  and  N_9
REMARK                            x       y       z     vdW  Elec       q    Type
REMARK                         _______ _______ _______ _____ _____    ______ ____
ROOT
ATOM      1  C   UNL     1      45.844   2.631   7.872  0.00  0.00    +0.000 A 
ATOM      2  C   UNL     1      45.205   2.040   8.969  0.00  0.00    +0.000 A 
ATOM      3  C   UNL     1      44.784   2.815  10.056  0.00  0.00    +0.000 A 
ATOM      4  C   UNL     1      45.000   4.202  10.073  0.00  0.00    +0.000 A 
ATOM      5  C   UNL     1      45.636   4.791   8.971  0.00  0.00    +0.000 A 
ATOM      6  C   UNL     1      46.050   4.016   7.883  0.00  0.00    +0.000 A 
ENDROOT
BRANCH   1   7
ATOM      7  C   UNL     1      46.364   1.792   6.725  0.00  0.00    +0.000 C 
BRANCH   7   8
ATOM      8  C   UNL     1      47.283   2.564   5.773  0.00  0.00    +0.000 C 
BRANCH   8   9
ATOM      9  N   UNL     1      48.573   1.889   5.626  0.00  0.00    +0.000 NA
ATOM     10  H   UNL     1      49.069   2.282   4.826  0.00  0.00    +0.000 HD
ATOM     11  H   UNL     1      48.422   0.905   5.412  0.00  0.00    +0.000 HD
ENDBRANCH   8   9
ENDBRANCH   7   8
ENDBRANCH   1   7
BRANCH   4  12
ATOM     12  C   UNL     1      44.661   5.033  11.297  0.00  0.00    +0.000 C 
BRANCH  12  13
ATOM     13  N   UNL     1      45.757   4.979  12.257  0.00  0.00    +0.000 N 
ATOM     14  N   UNL     1      45.691   4.101  13.287  0.00  0.00    +0.000 NA
ATOM     15  C   UNL     1      46.514   4.638  14.192  0.00  0.00    +0.000 A 
ATOM     16  C   UNL     1      47.171   5.793  13.716  0.00  0.00    +0.000 A 
ATOM     17  C   UNL     1      48.053   6.749  14.247  0.00  0.00    +0.000 A 
ATOM     18  C   UNL     1      48.544   7.756  13.407  0.00  0.00    +0.000 A 
ATOM     19  C   UNL     1      48.195   7.795  12.057  0.00  0.00    +0.000 A 
ATOM     20  C   UNL     1      47.290   6.875  11.520  0.00  0.00    +0.000 A 
ATOM     21  C   UNL     1      46.766   5.905  12.388  0.00  0.00    +0.000 A 
ENDBRANCH  12  13
ENDBRANCH   4  12
TORSDOF 5
ENDMDL
MODEL 3
REMARK VINA RESULT:    -6.667      2.223      6.329
REMARK INTER + INTRA:          -9.102
REMARK INTER:                  -8.676
REMARK INTRA:                  -0.426
REMARK UNBOUND:                -0.682
REMARK  Name = 
REMARK  5 active torsions:
REMARK  status: ('A' for Active; 'I' for Inactive)
REMARK    1  A    between atoms: N_1  and  C_2
REMARK    2  A    between atoms: C_2  and  C_3
REMARK    3  A    between atoms: C_3  and  C_4
REMARK    4  A    between atoms: C_7  and  C_8
REMARK    5  A    between atoms: C_8  and  N_9
REMARK                            x       y       z     vdW  Elec       q    Type
REMARK                         _______ _______ _______ _____ _____    ______ ____
ROOT
ATOM      1  C   UNL     1      46.815   5.148  13.365  0.00  0.00    +0.000 A 
ATOM      2  C   UNL     1      46.088   3.975  13.123  0.00  0.00    +0.000 A 
ATOM      3  C   UNL     1      45.349   3.821  11.944  0.00  0.00    +0.000 A 
ATOM      4  C   UNL     1      45.313   4.843  10.982  0.00  0.00    +0.000 A 
ATOM      5  C   UNL     1      46.046   6.013  11.226  0.00  0.00    +0.000 A 
ATOM      6  C   UNL     1      46.790   6.163  12.401  0.00  0.00    +0.000 A 
ENDROOT
BRANCH   1   7
ATOM      7  C   UNL     1      47.561   5.351  14.666  0.00  0.00    +0.000 C 
BRANCH   7   8
ATOM      8  C   UNL     1      47.178   4.340  15.751  0.00  0.00    +0.000 C 
BRANCH   8   9
ATOM      9  N   UNL     1      48.356   3.621  16.238  0.00  0.00    +0.000 NA
ATOM     10  H   UNL     1      49.110   3.710  15.557  0.00  0.00    +0.000 HD
ATOM     11  H   UNL     1      48.148   2.626  16.305  0.00  0.00    +0.000 HD
ENDBRANCH   8   9
ENDBRANCH   7   8
ENDBRANCH   1   7
BRANCH   4  12
ATOM     12  C   UNL     1      44.419   4.739   9.761  0.00  0.00    +0.000 C 
BRANCH  12  13
ATOM     13  N   UNL     1      44.616   3.451   9.105  0.00  0.00    +0.000 N 
ATOM     14  N   UNL     1      43.936   2.369   9.556  0.00  0.00    +0.000 NA
ATOM     15  C   UNL     1      44.684   1.347   9.130  0.00  0.00    +0.000 A 
ATOM     16  C   UNL     1      45.777   1.761   8.338  0.00  0.00    +0.000 A 
ATOM     17  C   UNL     1      46.872   1.138   7.717  0.00  0.00    +0.000 A 
ATOM     18  C   UNL     1      47.742   1.917   6.943  0.00  0.00    +0.000 A 
ATOM     19  C   UNL     1      47.512   3.280   6.760  0.00  0.00    +0.000 A 
ATOM     20  C   UNL     1      46.449   3.924   7.401  0.00  0.00    +0.000 A 
ATOM     21  C   UNL     1      45.617   3.140   8.216  0.00  0.00    +0.000 A 
ENDBRANCH  12  13
ENDBRANCH   4  12
TORSDOF 5
ENDMDL
MODEL 4
REMARK VINA RESULT:    -6.365      2.111      5.928
REMARK INTER + INTRA:          -8.722
REMARK INTER:                  -8.033
REMARK INTRA:                  -0.689
REMARK UNBOUND:                -0.682
REMARK  Name = 
REMARK  5 active torsions:
REMARK  status: ('A' for Active; 'I' for Inactive)
REMARK    1  A    between atoms: N_1  and  C_2
REMARK    2  A    between atoms: C_2  and  C_3
REMARK    3  A    between atoms: C_3  and  C_4
REMARK    4  A    between atoms: C_7  and  C_8
REMARK    5  A    between atoms: C_8  and  N_9
REMARK                            x       y       z     vdW  Elec       q    Type
REMARK                         _______ _______ _______ _____ _____    ______ ____
ROOT
ATOM      1  C   UNL     1      47.380   6.454  12.969  0.00  0.00    +0.000 A 
ATOM      2  C   UNL     1      47.011   7.097  11.781  0.00  0.00    +0.000 A 
ATOM      3  C   UNL     1      45.763   6.855  11.192  0.00  0.00    +0.000 A 
ATOM      4  C   UNL     1      44.859   5.955  11.776  0.00  0.00    +0.000 A 
ATOM      5  C   UNL     1      45.230   5.316  12.968  0.00  0.00    +0.000 A 
ATOM      6  C   UNL     1      46.473   5.564  13.558  0.00  0.00    +0.000 A 
ENDROOT
BRANCH   1   7
ATOM      7  C   UNL     1      48.752   6.657  13.574  0.00  0.00    +0.000 C 
BRANCH   7   8
ATOM      8  C   UNL     1      48.714   7.003  15.066  0.00  0.00    +0.000 C 
BRANCH   8   9
ATOM      9  N   UNL     1      49.208   5.889  15.876  0.00  0.00    +0.000 NA
ATOM     10  H   UNL     1      48.423   5.444  16.351  0.00  0.00    +0.000 HD
ATOM     11  H   UNL     1      49.822   6.243  16.608  0.00  0.00    +0.000 HD
ENDBRANCH   8   9
ENDBRANCH   7   8
ENDBRANCH   1   7
BRANCH   4  12
ATOM     12  C   UNL     1      43.558   5.591  11.084  0.00  0.00    +0.000 C 
BRANCH  12  13
ATOM     13  N   UNL     1      43.632   4.228  10.569  0.00  0.00    +0.000 N 
ATOM     14  N   UNL     1      43.124   3.212  11.308  0.00  0.00    +0.000 NA
ATOM     15  C   UNL     1      43.778   2.146  10.841  0.00  0.00    +0.000 A 
ATOM     16  C   UNL     1      44.625   2.455   9.755  0.00  0.00    +0.000 A 
ATOM     17  C   UNL     1      45.554   1.759   8.963  0.00  0.00    +0.000 A 
ATOM     18  C   UNL     1      46.177   2.432   7.904  0.00  0.00    +0.000 A 
ATOM     19  C   UNL     1      45.860   3.759   7.614  0.00  0.00    +0.000 A 
ATOM     20  C   UNL     1      44.967   4.478   8.414  0.00  0.00    +0.000 A 
ATOM     21  C   UNL     1      44.392   3.806   9.503  0.00  0.00    +0.000 A 
ENDBRANCH  12  13
ENDBRANCH   4  12
TORSDOF 5
ENDMDL
MODEL 5
REMARK VINA RESULT:    -5.798      2.120      6.275
REMARK INTER + INTRA:          -8.005
REMARK INTER:                  -7.925
REMARK INTRA:                  -0.081
REMARK UNBOUND:                -0.682
REMARK  Name = 
REMARK  5 active torsions:
REMARK  status: ('A' for Active; 'I' for Inactive)
REMARK    1  A    between atoms: N_1  and  C_2
REMARK    2  A    between atoms: C_2  and  C_3
REMARK    3  A    between atoms: C_3  and  C_4
REMARK    4  A    between atoms: C_7  and  C_8
REMARK    5  A    between atoms: C_8  and  N_9
REMARK                            x       y       z     vdW  Elec       q    Type
REMARK                         _______ _______ _______ _____ _____    ______ ____
ROOT
ATOM      1  C   UNL     1      47.706   5.979  14.444  0.00  0.00    +0.000 A 
ATOM      2  C   UNL     1      46.860   4.938  14.041  0.00  0.00    +0.000 A 
ATOM      3  C   UNL     1      46.009   5.092  12.939  0.00  0.00    +0.000 A 
ATOM      4  C   UNL     1      45.981   6.296  12.219  0.00  0.00    +0.000 A 
ATOM      5  C   UNL     1      46.833   7.334  12.623  0.00  0.00    +0.000 A 
ATOM      6  C   UNL     1      47.686   7.177  13.720  0.00  0.00    +0.000 A 
ENDROOT
BRANCH   1   7
ATOM      7  C   UNL     1      48.577   5.846  15.674  0.00  0.00    +0.000 C 
BRANCH   7   8
ATOM      8  C   UNL     1      48.149   4.706  16.603  0.00  0.00    +0.000 C 
BRANCH   8   9
ATOM      9  N   UNL     1      49.264   3.794  16.863  0.00  0.00    +0.000 NA
ATOM     10  H   UNL     1      48.937   3.019  17.441  0.00  0.00    +0.000 HD
ATOM     11  H   UNL     1      49.980   4.273  17.406  0.00  0.00    +0.000 HD
ENDBRANCH   8   9
ENDBRANCH   7   8
ENDBRANCH   1   7
BRANCH   4  12
ATOM     12  C   UNL     1      44.977   6.519  11.103  0.00  0.00    +0.000 C 
BRANCH  12  13
ATOM     13  N   UNL     1      44.399   5.245  10.690  0.00  0.00    +0.000 N 
ATOM     14  N   UNL     1      43.477   4.649  11.485  0.00  0.00    +0.000 NA
ATOM     15  C   UNL     1      43.551   3.367  11.118  0.00  0.00    +0.000 A 
ATOM     16  C   UNL     1      44.438   3.155  10.040  0.00  0.00    +0.000 A 
ATOM     17  C   UNL     1      44.925   2.044   9.331  0.00  0.00    +0.000 A 
ATOM     18  C   UNL     1      45.785   2.259   8.247  0.00  0.00    +0.000 A 
ATOM     19  C   UNL     1      46.128   3.552   7.851  0.00  0.00    +0.000 A 
ATOM     20  C   UNL     1      45.683   4.668   8.567  0.00  0.00    +0.000 A 
ATOM     21  C   UNL     1      44.865   4.432   9.684  0.00  0.00    +0.000 A 
ENDBRANCH  12  13
ENDBRANCH   4  12
TORSDOF 5
ENDMDL
MODEL 6
REMARK VINA RESULT:    -5.720      2.325      6.748
REMARK INTER + INTRA:          -7.907
REMARK INTER:                  -7.636
REMARK INTRA:                  -0.271
REMARK UNBOUND:                -0.682
REMARK  Name = 
REMARK  5 active torsions:
REMARK  status: ('A' for Active; 'I' for Inactive)
REMARK    1  A    between atoms: N_1  and  C_2
REMARK    2  A    between atoms: C_2  and  C_3
REMARK    3  A    between atoms: C_3  and  C_4
REMARK    4  A    between atoms: C_7  and  C_8
REMARK    5  A    between atoms: C_8  and  N_9
REMARK                            x       y       z     vdW  Elec       q    Type
REMARK                         _______ _______ _______ _____ _____    ______ ____
ROOT
ATOM      1  C   UNL     1      44.770   9.692  11.753  0.00  0.00    +0.000 A 
ATOM      2  C   UNL     1      44.032   8.687  11.114  0.00  0.00    +0.000 A 
ATOM      3  C   UNL     1      44.314   7.335  11.345  0.00  0.00    +0.000 A 
ATOM      4  C   UNL     1      45.348   6.957  12.215  0.00  0.00    +0.000 A 
ATOM      5  C   UNL     1      46.081   7.965  12.856  0.00  0.00    +0.000 A 
ATOM      6  C   UNL     1      45.795   9.315  12.630  0.00  0.00    +0.000 A 
ENDROOT
BRANCH   1   7
ATOM      7  C   UNL     1      44.519  11.155  11.458  0.00  0.00    +0.000 C 
BRANCH   7   8
ATOM      8  C   UNL     1      43.049  11.472  11.164  0.00  0.00    +0.000 C 
BRANCH   8   9
ATOM      9  N   UNL     1      42.224  11.285  12.358  0.00  0.00    +0.000 NA
ATOM     10  H   UNL     1      42.093  10.287  12.523  0.00  0.00    +0.000 HD
ATOM     11  H   UNL     1      41.295  11.672  12.197  0.00  0.00    +0.000 HD
ENDBRANCH   8   9
ENDBRANCH   7   8
ENDBRANCH   1   7
BRANCH   4  12
ATOM     12  C   UNL     1      45.743   5.501  12.377  0.00  0.00    +0.000 C 
BRANCH  12  13
ATOM     13  N   UNL     1      44.851   4.651  11.595  0.00  0.00    +0.000 N 
ATOM     14  N   UNL     1      43.908   3.918  12.233  0.00  0.00    +0.000 NA
ATOM     15  C   UNL     1      43.651   2.938  11.363  0.00  0.00    +0.000 A 
ATOM     16  C   UNL     1      44.349   3.090  10.146  0.00  0.00    +0.000 A 
ATOM     17  C   UNL     1      44.496   2.347   8.962  0.00  0.00    +0.000 A 
ATOM     18  C   UNL     1      45.263   2.882   7.920  0.00  0.00    +0.000 A 
ATOM     19  C   UNL     1      45.846   4.144   8.035  0.00  0.00    +0.000 A 
ATOM     20  C   UNL     1      45.742   4.881   9.220  0.00  0.00    +0.000 A 
ATOM     21  C   UNL     1      45.014   4.307  10.273  0.00  0.00    +0.000 A 
ENDBRANCH  12  13
ENDBRANCH   4  12
TORSDOF 5
ENDMDL
MODEL 7
REMARK VINA RESULT:    -5.439      4.983      7.723
REMARK INTER + INTRA:          -7.551
REMARK INTER:                  -7.243
REMARK INTRA:                  -0.308
REMARK UNBOUND:                -0.682
REMARK  Name = 
REMARK  5 active torsions:
REMARK  status: ('A' for Active; 'I' for Inactive)
REMARK    1  A    between atoms: N_1  and  C_2
REMARK    2  A    between atoms: C_2  and  C_3
REMARK    3  A    between atoms: C_3  and  C_4
REMARK    4  A    between atoms: C_7  and  C_8
REMARK    5  A    between atoms: C_8  and  N_9
REMARK                            x       y       z     vdW  Elec       q    Type
REMARK                         _______ _______ _______ _____ _____    ______ ____
ROOT
ATOM      1  C   UNL     1      50.984   2.713  17.543  0.00  0.00    +0.000 A 
ATOM      2  C   UNL     1      50.609   4.033  17.824  0.00  0.00    +0.000 A 
ATOM      3  C   UNL     1      49.364   4.526  17.414  0.00  0.00    +0.000 A 
ATOM      4  C   UNL     1      48.469   3.711  16.705  0.00  0.00    +0.000 A 
ATOM      5  C   UNL     1      48.847   2.389  16.429  0.00  0.00    +0.000 A 
ATOM      6  C   UNL     1      50.087   1.895  16.845  0.00  0.00    +0.000 A 
ENDROOT
BRANCH   1   7
ATOM      7  C   UNL     1      52.354   2.193  17.921  0.00  0.00    +0.000 C 
BRANCH   7   8
ATOM      8  C   UNL     1      52.674   0.823  17.315  0.00  0.00    +0.000 C 
BRANCH   8   9
ATOM      9  N   UNL     1      52.896  -0.175  18.362  0.00  0.00    +0.000 NA
ATOM     10  H   UNL     1      52.044  -0.720  18.495  0.00  0.00    +0.000 HD
ATOM     11  H   UNL     1      53.077   0.292  19.249  0.00  0.00    +0.000 HD
ENDBRANCH   8   9
ENDBRANCH   7   8
ENDBRANCH   1   7
BRANCH   4  12
ATOM     12  C   UNL     1      47.172   4.269  16.149  0.00  0.00    +0.000 C 
BRANCH  12  13
ATOM     13  N   UNL     1      47.412   4.891  14.851  0.00  0.00    +0.000 N 
ATOM     14  N   UNL     1      48.175   6.008  14.784  0.00  0.00    +0.000 NA
ATOM     15  C   UNL     1      47.782   6.570  13.638  0.00  0.00    +0.000 A 
ATOM     16  C   UNL     1      46.848   5.781  12.933  0.00  0.00    +0.000 A 
ATOM     17  C   UNL     1      46.089   5.917  11.759  0.00  0.00    +0.000 A 
ATOM     18  C   UNL     1      45.285   4.846  11.347  0.00  0.00    +0.000 A 
ATOM     19  C   UNL     1      45.261   3.651  12.066  0.00  0.00    +0.000 A 
ATOM     20  C   UNL     1      45.981   3.512  13.257  0.00  0.00    +0.000 A 
ATOM     21  C   UNL     1      46.739   4.613  13.684  0.00  0.00    +0.000 A 
ENDBRANCH  12  13
ENDBRANCH   4  12
TORSDOF 5
ENDMDL
MODEL 8
REMARK VINA RESULT:    -5.224      3.099      4.591
REMARK INTER + INTRA:          -7.280
REMARK INTER:                  -6.726
REMARK INTRA:                  -0.554
REMARK UNBOUND:                -0.682
REMARK  Name = 
REMARK  5 active torsions:
REMARK  status: ('A' for Active; 'I' for Inactive)
REMARK    1  A    between atoms: N_1  and  C_2
REMARK    2  A    between atoms: C_2  and  C_3
REMARK    3  A    between atoms: C_3  and  C_4
REMARK    4  A    between atoms: C_7  and  C_8
REMARK    5  A    between atoms: C_8  and  N_9
REMARK                            x       y       z     vdW  Elec       q    Type
REMARK                         _______ _______ _______ _____ _____    ______ ____
ROOT
ATOM      1  C   UNL     1      44.867   4.011  11.205  0.00  0.00    +0.000 A 
ATOM      2  C   UNL     1      45.270   5.133  10.470  0.00  0.00    +0.000 A 
ATOM      3  C   UNL     1      45.884   6.221  11.103  0.00  0.00    +0.000 A 
ATOM      4  C   UNL     1      46.100   6.214  12.490  0.00  0.00    +0.000 A 
ATOM      5  C   UNL     1      45.699   5.086  13.221  0.00  0.00    +0.000 A 
ATOM      6  C   UNL     1      45.093   3.998  12.587  0.00  0.00    +0.000 A 
ENDROOT
BRANCH   1   7
ATOM      7  C   UNL     1      44.142   2.860  10.540  0.00  0.00    +0.000 C 
BRANCH   7   8
ATOM      8  C   UNL     1      44.565   2.633   9.086  0.00  0.00    +0.000 C 
BRANCH   8   9
ATOM      9  N   UNL     1      45.534   1.541   8.986  0.00  0.00    +0.000 NA
ATOM     10  H   UNL     1      46.453   1.925   8.771  0.00  0.00    +0.000 HD
ATOM     11  H   UNL     1      45.288   0.934   8.205  0.00  0.00    +0.000 HD
ENDBRANCH   8   9
ENDBRANCH   7   8
ENDBRANCH   1   7
BRANCH   4  12
ATOM     12  C   UNL     1      46.650   7.435  13.204  0.00  0.00    +0.000 C 
BRANCH  12  13
ATOM     13  N   UNL     1      48.026   7.192  13.621  0.00  0.00    +0.000 N 
ATOM     14  N   UNL     1      48.274   6.826  14.902  0.00  0.00    +0.000 NA
ATOM     15  C   UNL     1      49.551   7.180  15.073  0.00  0.00    +0.000 A 
ATOM     16  C   UNL     1      50.143   7.680  13.893  0.00  0.00    +0.000 A 
ATOM     17  C   UNL     1      51.384   8.235  13.538  0.00  0.00    +0.000 A 
ATOM     18  C   UNL     1      51.614   8.573  12.198  0.00  0.00    +0.000 A 
ATOM     19  C   UNL     1      50.646   8.334  11.223  0.00  0.00    +0.000 A 
ATOM     20  C   UNL     1      49.391   7.818  11.564  0.00  0.00    +0.000 A 
ATOM     21  C   UNL     1      49.158   7.534  12.919  0.00  0.00    +0.000 A 
ENDBRANCH  12  13
ENDBRANCH   4  12
TORSDOF 5
ENDMDL
MODEL 9
REMARK VINA RESULT:    -4.993      3.370      5.436
REMARK INTER + INTRA:          -6.988
REMARK INTER:                  -6.451
REMARK INTRA:                  -0.537
REMARK UNBOUND:                -0.682
REMARK  Name = 
REMARK  5 active torsions:
REMARK  status: ('A' for Active; 'I' for Inactive)
REMARK    1  A    between atoms: N_1  and  C_2
REMARK    2  A    between atoms: C_2  and  C_3
REMARK    3  A    between atoms: C_3  and  C_4
REMARK    4  A    between atoms: C_7  and  C_8
REMARK    5  A    between atoms: C_8  and  N_9
REMARK                            x       y       z     vdW  Elec       q    Type
REMARK                         _______ _______ _______ _____ _____    ______ ____
ROOT
ATOM      1  C   UNL     1      44.836   5.116  11.858  0.00  0.00    +0.000 A 
ATOM      2  C   UNL     1      45.341   4.658  13.082  0.00  0.00    +0.000 A 
ATOM      3  C   UNL     1      46.519   5.194  13.616  0.00  0.00    +0.000 A 
ATOM      4  C   UNL     1      47.224   6.196  12.932  0.00  0.00    +0.000 A 
ATOM      5  C   UNL     1      46.713   6.655  11.710  0.00  0.00    +0.000 A 
ATOM      6  C   UNL     1      45.532   6.125  11.181  0.00  0.00    +0.000 A 
ENDROOT
BRANCH   1   7
ATOM      7  C   UNL     1      43.601   4.496  11.241  0.00  0.00    +0.000 C 
BRANCH   7   8
ATOM      8  C   UNL     1      43.799   3.037  10.819  0.00  0.00    +0.000 C 
BRANCH   8   9
ATOM      9  N   UNL     1      43.027   2.134  11.674  0.00  0.00    +0.000 NA
ATOM     10  H   UNL     1      43.646   1.415  12.049  0.00  0.00    +0.000 HD
ATOM     11  H   UNL     1      42.329   1.646  11.115  0.00  0.00    +0.000 HD
ENDBRANCH   8   9
ENDBRANCH   7   8
ENDBRANCH   1   7
BRANCH   4  12
ATOM     12  C   UNL     1      48.565   6.696  13.438  0.00  0.00    +0.000 C 
BRANCH  12  13
ATOM     13  N   UNL     1      48.384   7.448  14.675  0.00  0.00    +0.000 N 
ATOM     14  N   UNL     1      48.082   8.767  14.608  0.00  0.00    +0.000 NA
ATOM     15  C   UNL     1      48.482   9.226  15.797  0.00  0.00    +0.000 A 
ATOM     16  C   UNL     1      48.949   8.202  16.650  0.00  0.00    +0.000 A 
ATOM     17  C   UNL     1      49.525   8.133  17.929  0.00  0.00    +0.000 A 
ATOM     18  C   UNL     1      49.812   6.875  18.474  0.00  0.00    +0.000 A 
ATOM     19  C   UNL     1      49.500   5.707  17.780  0.00  0.00    +0.000 A 
ATOM     20  C   UNL     1      48.961   5.757  16.490  0.00  0.00    +0.000 A 
ATOM     21  C   UNL     1      48.730   7.026  15.937  0.00  0.00    +0.000 A 
ENDBRANCH  12  13
ENDBRANCH   4  12
TORSDOF 5
ENDMDL
