MODEL 1
REMARK VINA RESULT:    -7.370      0.000      0.000
REMARK INTER + INTRA:          -9.628
REMARK INTER:                  -9.093
REMARK INTRA:                  -0.535
REMARK UNBOUND:                -0.535
REMARK  Name = 
REMARK  5 active torsions:
REMARK  status: ('A' for Active; 'I' for Inactive)
REMARK    1  A    between atoms: C_1  and  C_2
REMARK    2  A    between atoms: C_2  and  O_3
REMARK    3  A    between atoms: C_2  and  C_13
REMARK    4  A    between atoms: O_3  and  C_4
REMARK    5  A    between atoms: C_8  and  C_9
REMARK                            x       y       z     vdW  Elec       q    Type
REMARK                         _______ _______ _______ _____ _____    ______ ____
ROOT
ATOM      1  C   UNL     1      44.863   3.488   8.822  0.00  0.00    +0.000 A 
ATOM      2  C   UNL     1      44.694   2.206   9.331  0.00  0.00    +0.000 A 
ATOM      3  N   UNL     1      45.361   1.109   8.887  0.00  0.00    +0.000 NA
ATOM      4  C   UNL     1      46.240   1.303   7.872  0.00  0.00    +0.000 A 
ATOM      5  C   UNL     1      46.488   2.538   7.294  0.00  0.00    +0.000 A 
ATOM      6  C   UNL     1      45.795   3.642   7.800  0.00  0.00    +0.000 A 
ENDROOT
BRANCH   5   7
ATOM      7  C   UNL     1      47.417   2.773   6.161  0.00  0.00    +0.000 C 
ATOM      8  N   UNL     1      48.759   2.643   6.359  0.00  0.00    +0.000 N 
ATOM      9  O   UNL     1      46.992   3.062   5.048  0.00  0.00    +0.000 OA
ATOM     10  H   UNL     1      49.210   2.356   7.211  0.00  0.00    +0.000 HD
ATOM     11  H   UNL     1      49.340   2.770   5.539  0.00  0.00    +0.000 HD
ENDBRANCH   5   7
BRANCH   1  12
ATOM     12  O   UNL     1      44.100   4.480   9.365  0.00  0.00    +0.000 OA
BRANCH  12  14
ATOM     13  C   UNL     1      42.901   5.563  11.162  0.00  0.00    +0.000 C 
ATOM     14  C   UNL     1      43.974   4.536  10.797  0.00  0.00    +0.000 C 
BRANCH  14  15
ATOM     15  C   UNL     1      45.348   4.877  11.427  0.00  0.00    +0.000 C 
ATOM     16  C   UNL     1      45.405   4.597  12.937  0.00  0.00    +0.000 C 
ATOM     17  C   UNL     1      46.723   5.046  13.562  0.00  0.00    +0.000 C 
ATOM     18  C   UNL     1      47.002   6.515  13.270  0.00  0.00    +0.000 C 
ATOM     19  C   UNL     1      47.032   6.768  11.769  0.00  0.00    +0.000 C 
ATOM     20  C   UNL     1      45.724   6.341  11.111  0.00  0.00    +0.000 C 
ENDBRANCH  14  15
ENDBRANCH  12  14
ENDBRANCH   1  12
TORSDOF 4
ENDMDL
MODEL 2
REMARK VINA RESULT:    -6.709      2.812      5.991
REMARK INTER + INTRA:          -8.812
REMARK INTER:                  -8.766
REMARK INTRA:                  -0.046
REMARK UNBOUND:                -0.535
REMARK  Name = 
REMARK  5 active torsions:
REMARK  status: ('A' for Active; 'I' for Inactive)
REMARK    1  A    between atoms: C_1  and  C_2
REMARK    2  A    between atoms: C_2  and  O_3
REMARK    3  A    between atoms: C_2  and  C_13
REMARK    4  A    between atoms: O_3  and  C_4
REMARK    5  A    between atoms: C_8  and  C_9
REMARK                            x       y       z     vdW  Elec       q    Type
REMARK                         _______ _______ _______ _____ _____    ______ ____
ROOT
ATOM      1  C   UNL     1      45.270   5.223  10.638  0.00  0.00    +0.000 A 
ATOM      2  C   UNL     1      44.328   6.160  11.048  0.00  0.00    +0.000 A 
ATOM      3  N   UNL     1      44.199   6.613  12.321  0.00  0.00    +0.000 NA
ATOM      4  C   UNL     1      45.055   6.097  13.238  0.00  0.00    +0.000 A 
ATOM      5  C   UNL     1      46.033   5.162  12.938  0.00  0.00    +0.000 A 
ATOM      6  C   UNL     1      46.143   4.743  11.609  0.00  0.00    +0.000 A 
ENDROOT
BRANCH   5   7
ATOM      7  C   UNL     1      46.958   4.556  13.927  0.00  0.00    +0.000 C 
ATOM      8  N   UNL     1      47.028   3.198  14.033  0.00  0.00    +0.000 N 
ATOM      9  O   UNL     1      47.674   5.258  14.633  0.00  0.00    +0.000 OA
ATOM     10  H   UNL     1      46.531   2.531  13.468  0.00  0.00    +0.000 HD
ATOM     11  H   UNL     1      47.710   2.842  14.692  0.00  0.00    +0.000 HD
ENDBRANCH   5   7
BRANCH   1  12
ATOM     12  O   UNL     1      45.254   4.856   9.324  0.00  0.00    +0.000 OA
BRANCH  12  14
ATOM     13  C   UNL     1      44.144   2.898  10.203  0.00  0.00    +0.000 C 
ATOM     14  C   UNL     1      44.478   3.704   8.947  0.00  0.00    +0.000 C 
BRANCH  14  15
ATOM     15  C   UNL     1      45.263   2.867   7.906  0.00  0.00    +0.000 C 
ATOM     16  C   UNL     1      45.920   1.616   8.511  0.00  0.00    +0.000 C 
ATOM     17  C   UNL     1      46.785   0.868   7.500  0.00  0.00    +0.000 C 
ATOM     18  C   UNL     1      47.829   1.785   6.879  0.00  0.00    +0.000 C 
ATOM     19  C   UNL     1      47.165   2.977   6.203  0.00  0.00    +0.000 C 
ATOM     20  C   UNL     1      46.301   3.757   7.188  0.00  0.00    +0.000 C 
ENDBRANCH  14  15
ENDBRANCH  12  14
ENDBRANCH   1  12
TORSDOF 4
ENDMDL
MODEL 3
REMARK VINA RESULT:    -6.639      3.508      6.494
REMARK INTER + INTRA:          -8.727
REMARK INTER:                  -8.180
REMARK INTRA:                  -0.547
REMARK UNBOUND:                -0.535
REMARK  Name = 
REMARK  5 active torsions:
REMARK  status: ('A' for Active; 'I' for Inactive)
REMARK    1  A    between atoms: C_1  and  C_2
REMARK    2  A    between atoms: C_2  and  O_3
REMARK    3  A    between atoms: C_2  and  C_13
REMARK    4  A    between atoms: O_3  and  C_4
REMARK    5  A    between atoms: C_8  and  C_9
REMARK                            x       y       z     vdW  Elec       q    Type
REMARK                         _______ _______ _______ _____ _____    ______ ____
ROOT
ATOM      1  C   UNL     1      45.841   4.839  12.804  0.00  0.00    +0.000 A 
ATOM      2  C   UNL     1      46.449   5.987  12.310  0.00  0.00    +0.000 A 
ATOM      3  N   UNL     1      47.449   6.658  12.938  0.00  0.00    +0.000 NA
ATOM      4  C   UNL     1      47.858   6.158  14.131  0.00  0.00    +0.000 A 
ATOM      5  C   UNL     1      47.325   5.019  14.713  0.00  0.00    +0.000 A 
ATOM      6  C   UNL     1      46.314   4.348  14.017  0.00  0.00    +0.000 A 
ENDROOT
BRANCH   5   7
ATOM      7  C   UNL     1      47.729   4.470  16.030  0.00  0.00    +0.000 C 
ATOM      8  N   UNL     1      46.853   3.694  16.729  0.00  0.00    +0.000 N 
ATOM      9  O   UNL     1      48.846   4.689  16.488  0.00  0.00    +0.000 OA
ATOM     10  H   UNL     1      45.939   3.406  16.424  0.00  0.00    +0.000 HD
ATOM     11  H   UNL     1      47.202   3.310  17.600  0.00  0.00    +0.000 HD
ENDBRANCH   5   7
BRANCH   1  12
ATOM     12  O   UNL     1      44.835   4.296  12.058  0.00  0.00    +0.000 OA
BRANCH  12  14
ATOM     13  C   UNL     1      42.949   5.466  11.103  0.00  0.00    +0.000 C 
ATOM     14  C   UNL     1      44.392   5.009  10.889  0.00  0.00    +0.000 C 
BRANCH  14  15
ATOM     15  C   UNL     1      44.541   4.103   9.641  0.00  0.00    +0.000 C 
ATOM     16  C   UNL     1      44.728   2.618   9.994  0.00  0.00    +0.000 C 
ATOM     17  C   UNL     1      44.989   1.757   8.761  0.00  0.00    +0.000 C 
ATOM     18  C   UNL     1      46.175   2.280   7.962  0.00  0.00    +0.000 C 
ATOM     19  C   UNL     1      45.943   3.724   7.539  0.00  0.00    +0.000 C 
ATOM     20  C   UNL     1      45.690   4.619   8.748  0.00  0.00    +0.000 C 
ENDBRANCH  14  15
ENDBRANCH  12  14
ENDBRANCH   1  12
TORSDOF 4
ENDMDL
MODEL 4
REMARK VINA RESULT:    -6.592      3.604      6.407
REMARK INTER + INTRA:          -8.668
REMARK INTER:                  -8.108
REMARK INTRA:                  -0.560
REMARK UNBOUND:                -0.535
REMARK  Name = 
REMARK  5 active torsions:
REMARK  status: ('A' for Active; 'I' for Inactive)
REMARK    1  A    between atoms: C_1  and  C_2
REMARK    2  A    between atoms: C_2  and  O_3
REMARK    3  A    between atoms: C_2  and  C_13
REMARK    4  A    between atoms: O_3  and  C_4
REMARK    5  A    between atoms: C_8  and  C_9
REMARK                            x       y       z     vdW  Elec       q    Type
REMARK                         _______ _______ _______ _____ _____    ______ ____
ROOT
ATOM      1  C   UNL     1      45.446   6.315  11.756  0.00  0.00    +0.000 A 
ATOM      2  C   UNL     1      46.457   6.526  12.687  0.00  0.00    +0.000 A 
ATOM      3  N   UNL     1      46.768   7.734  13.222  0.00  0.00    +0.000 NA
ATOM      4  C   UNL     1      46.033   8.793  12.798  0.00  0.00    +0.000 A 
ATOM      5  C   UNL     1      45.001   8.695  11.878  0.00  0.00    +0.000 A 
ATOM      6  C   UNL     1      44.702   7.426  11.373  0.00  0.00    +0.000 A 
ENDROOT
BRANCH   5   7
ATOM      7  C   UNL     1      44.205   9.839  11.372  0.00  0.00    +0.000 C 
ATOM      8  N   UNL     1      43.570   9.733  10.170  0.00  0.00    +0.000 N 
ATOM      9  O   UNL     1      44.093  10.869  12.029  0.00  0.00    +0.000 OA
ATOM     10  H   UNL     1      43.547   8.920   9.579  0.00  0.00    +0.000 HD
ATOM     11  H   UNL     1      43.005  10.528   9.898  0.00  0.00    +0.000 HD
ENDBRANCH   5   7
BRANCH   1  12
ATOM     12  O   UNL     1      45.275   5.040  11.300  0.00  0.00    +0.000 OA
BRANCH  12  14
ATOM     13  C   UNL     1      43.057   4.098  11.479  0.00  0.00    +0.000 C 
ATOM     14  C   UNL     1      44.085   4.740  10.547  0.00  0.00    +0.000 C 
BRANCH  14  15
ATOM     15  C   UNL     1      44.446   3.822   9.352  0.00  0.00    +0.000 C 
ATOM     16  C   UNL     1      44.836   2.398   9.782  0.00  0.00    +0.000 C 
ATOM     17  C   UNL     1      45.300   1.543   8.606  0.00  0.00    +0.000 C 
ATOM     18  C   UNL     1      46.437   2.215   7.848  0.00  0.00    +0.000 C 
ATOM     19  C   UNL     1      46.012   3.588   7.347  0.00  0.00    +0.000 C 
ATOM     20  C   UNL     1      45.553   4.477   8.499  0.00  0.00    +0.000 C 
ENDBRANCH  14  15
ENDBRANCH  12  14
ENDBRANCH   1  12
TORSDOF 4
ENDMDL
MODEL 5
REMARK VINA RESULT:    -6.460      3.221      5.712
REMARK INTER + INTRA:          -8.506
REMARK INTER:                  -7.848
REMARK INTRA:                  -0.658
REMARK UNBOUND:                -0.535
REMARK  Name = 
REMARK  5 active torsions:
REMARK  status: ('A' for Active; 'I' for Inactive)
REMARK    1  A    between atoms: C_1  and  C_2
REMARK    2  A    between atoms: C_2  and  O_3
REMARK    3  A    between atoms: C_2  and  C_13
REMARK    4  A    between atoms: O_3  and  C_4
REMARK    5  A    between atoms: C_8  and  C_9
REMARK                            x       y       z     vdW  Elec       q    Type
REMARK                         _______ _______ _______ _____ _____    ______ ____
ROOT
ATOM      1  C   UNL     1      45.950   5.249  12.655  0.00  0.00    +0.000 A 
ATOM      2  C   UNL     1      46.409   4.772  13.878  0.00  0.00    +0.000 A 
ATOM      3  N   UNL     1      47.482   5.272  14.544  0.00  0.00    +0.000 NA
ATOM      4  C   UNL     1      48.139   6.300  13.950  0.00  0.00    +0.000 A 
ATOM      5  C   UNL     1      47.765   6.854  12.736  0.00  0.00    +0.000 A 
ATOM      6  C   UNL     1      46.639   6.322  12.099  0.00  0.00    +0.000 A 
ENDROOT
BRANCH   5   7
ATOM      7  C   UNL     1      48.484   7.955  12.048  0.00  0.00    +0.000 C 
ATOM      8  N   UNL     1      49.638   7.682  11.375  0.00  0.00    +0.000 N 
ATOM      9  O   UNL     1      48.044   9.099  12.061  0.00  0.00    +0.000 OA
ATOM     10  H   UNL     1      50.055   6.775  11.252  0.00  0.00    +0.000 HD
ATOM     11  H   UNL     1      50.059   8.464  10.887  0.00  0.00    +0.000 HD
ENDBRANCH   5   7
BRANCH   1  12
ATOM     12  O   UNL     1      44.869   4.621  12.108  0.00  0.00    +0.000 OA
BRANCH  12  14
ATOM     13  C   UNL     1      42.803   5.566  11.286  0.00  0.00    +0.000 C 
ATOM     14  C   UNL     1      44.252   5.213  10.950  0.00  0.00    +0.000 C 
BRANCH  14  15
ATOM     15  C   UNL     1      44.354   4.236   9.751  0.00  0.00    +0.000 C 
ATOM     16  C   UNL     1      44.446   2.763  10.181  0.00  0.00    +0.000 C 
ATOM     17  C   UNL     1      44.663   1.825   8.997  0.00  0.00    +0.000 C 
ATOM     18  C   UNL     1      45.885   2.233   8.185  0.00  0.00    +0.000 C 
ATOM     19  C   UNL     1      45.746   3.665   7.687  0.00  0.00    +0.000 C 
ATOM     20  C   UNL     1      45.539   4.634   8.846  0.00  0.00    +0.000 C 
ENDBRANCH  14  15
ENDBRANCH  12  14
ENDBRANCH   1  12
TORSDOF 4
ENDMDL
MODEL 6
REMARK VINA RESULT:    -6.277      3.097      6.228
REMARK INTER + INTRA:          -8.280
REMARK INTER:                  -7.807
REMARK INTRA:                  -0.473
REMARK UNBOUND:                -0.535
REMARK  Name = 
REMARK  5 active torsions:
REMARK  status: ('A' for Active; 'I' for Inactive)
REMARK    1  A    between atoms: C_1  and  C_2
REMARK    2  A    between atoms: C_2  and  O_3
REMARK    3  A    between atoms: C_2  and  C_13
REMARK    4  A    between atoms: O_3  and  C_4
REMARK    5  A    between atoms: C_8  and  C_9
REMARK                            x       y       z     vdW  Elec       q    Type
REMARK                         _______ _______ _______ _____ _____    ______ ____
ROOT
ATOM      1  C   UNL     1      44.750   3.915  11.388  0.00  0.00    +0.000 A 
ATOM      2  C   UNL     1      43.436   3.815  11.830  0.00  0.00    +0.000 A 
ATOM      3  N   UNL     1      42.802   4.759  12.572  0.00  0.00    +0.000 NA
ATOM      4  C   UNL     1      43.524   5.861  12.898  0.00  0.00    +0.000 A 
ATOM      5  C   UNL     1      44.838   6.064  12.507  0.00  0.00    +0.000 A 
ATOM      6  C   UNL     1      45.441   5.075  11.723  0.00  0.00    +0.000 A 
ENDROOT
BRANCH   5   7
ATOM      7  C   UNL     1      45.661   7.241  12.876  0.00  0.00    +0.000 C 
ATOM      8  N   UNL     1      46.800   7.060  13.604  0.00  0.00    +0.000 N 
ATOM      9  O   UNL     1      45.342   8.370  12.519  0.00  0.00    +0.000 OA
ATOM     10  H   UNL     1      47.183   6.178  13.899  0.00  0.00    +0.000 HD
ATOM     11  H   UNL     1      47.344   7.894  13.786  0.00  0.00    +0.000 HD
ENDBRANCH   5   7
BRANCH   1  12
ATOM     12  O   UNL     1      45.246   2.867  10.668  0.00  0.00    +0.000 OA
BRANCH  12  14
ATOM     13  C   UNL     1      44.062   1.402   9.154  0.00  0.00    +0.000 C 
ATOM     14  C   UNL     1      44.825   2.720   9.300  0.00  0.00    +0.000 C 
BRANCH  14  15
ATOM     15  C   UNL     1      46.059   2.787   8.366  0.00  0.00    +0.000 C 
ATOM     16  C   UNL     1      45.826   3.660   7.122  0.00  0.00    +0.000 C 
ATOM     17  C   UNL     1      47.008   3.621   6.156  0.00  0.00    +0.000 C 
ATOM     18  C   UNL     1      47.354   2.192   5.761  0.00  0.00    +0.000 C 
ATOM     19  C   UNL     1      47.671   1.355   6.994  0.00  0.00    +0.000 C 
ATOM     20  C   UNL     1      46.505   1.361   7.978  0.00  0.00    +0.000 C 
ENDBRANCH  14  15
ENDBRANCH  12  14
ENDBRANCH   1  12
TORSDOF 4
ENDMDL
MODEL 7
REMARK VINA RESULT:    -6.056      2.983      6.023
REMARK INTER + INTRA:          -8.007
REMARK INTER:                  -7.575
REMARK INTRA:                  -0.432
REMARK UNBOUND:                -0.535
REMARK  Name = 
REMARK  5 active torsions:
REMARK  status: ('A' for Active; 'I' for Inactive)
REMARK    1  A    between atoms: C_1  and  C_2
REMARK    2  A    between atoms: C_2  and  O_3
REMARK    3  A    between atoms: C_2  and  C_13
REMARK    4  A    between atoms: O_3  and  C_4
REMARK    5  A    between atoms: C_8  and  C_9
REMARK                            x       y       z     vdW  Elec       q    Type
REMARK                         _______ _______ _______ _____ _____    ______ ____
ROOT
ATOM      1  C   UNL     1      45.643   4.003  11.786  0.00  0.00    +0.000 A 
ATOM      2  C   UNL     1      45.986   3.228  12.888  0.00  0.00    +0.000 A 
ATOM      3  N   UNL     1      46.486   3.723  14.050  0.00  0.00    +0.000 NA
ATOM      4  C   UNL     1      46.662   5.067  14.110  0.00  0.00    +0.000 A 
ATOM      5  C   UNL     1      46.350   5.932  13.073  0.00  0.00    +0.000 A 
ATOM      6  C   UNL     1      45.815   5.379  11.905  0.00  0.00    +0.000 A 
ENDROOT
BRANCH   5   7
ATOM      7  C   UNL     1      46.564   7.400  13.099  0.00  0.00    +0.000 C 
ATOM      8  N   UNL     1      47.264   7.956  14.129  0.00  0.00    +0.000 N 
ATOM      9  O   UNL     1      46.137   8.115  12.199  0.00  0.00    +0.000 OA
ATOM     10  H   UNL     1      47.704   7.460  14.885  0.00  0.00    +0.000 HD
ATOM     11  H   UNL     1      47.417   8.955  14.069  0.00  0.00    +0.000 HD
ENDBRANCH   5   7
BRANCH   1  12
ATOM     12  O   UNL     1      45.173   3.348  10.685  0.00  0.00    +0.000 OA
BRANCH  12  14
ATOM     13  C   UNL     1      43.687   4.626   9.271  0.00  0.00    +0.000 C 
ATOM     14  C   UNL     1      45.101   4.069   9.442  0.00  0.00    +0.000 C 
BRANCH  14  15
ATOM     15  C   UNL     1      45.507   3.133   8.275  0.00  0.00    +0.000 C 
ATOM     16  C   UNL     1      46.004   1.758   8.751  0.00  0.00    +0.000 C 
ATOM     17  C   UNL     1      46.509   0.893   7.599  0.00  0.00    +0.000 C 
ATOM     18  C   UNL     1      47.583   1.613   6.796  0.00  0.00    +0.000 C 
ATOM     19  C   UNL     1      47.054   2.933   6.252  0.00  0.00    +0.000 C 
ATOM     20  C   UNL     1      46.551   3.831   7.378  0.00  0.00    +0.000 C 
ENDBRANCH  14  15
ENDBRANCH  12  14
ENDBRANCH   1  12
TORSDOF 4
ENDMDL
MODEL 8
REMARK VINA RESULT:    -6.036      1.632      2.210
REMARK INTER + INTRA:          -7.982
REMARK INTER:                  -7.467
REMARK INTRA:                  -0.515
REMARK UNBOUND:                -0.535
REMARK  Name = 
REMARK  5 active torsions:
REMARK  status: ('A' for Active; 'I' for Inactive)
REMARK    1  A    between atoms: C_1  and  C_2
REMARK    2  A    between atoms: C_2  and  O_3
REMARK    3  A    between atoms: C_2  and  C_13
REMARK    4  A    between atoms: O_3  and  C_4
REMARK    5  A    between atoms: C_8  and  C_9
REMARK                            x       y       z     vdW  Elec       q    Type
REMARK                         _______ _______ _______ _____ _____    ______ ____
ROOT
ATOM      1  C   UNL     1      44.763   4.372   9.933  0.00  0.00    +0.000 A 
ATOM      2  C   UNL     1      44.169   3.197  10.378  0.00  0.00    +0.000 A 
ATOM      3  N   UNL     1      44.305   1.990   9.771  0.00  0.00    +0.000 NA
ATOM      4  C   UNL     1      45.071   1.957   8.651  0.00  0.00    +0.000 A 
ATOM      5  C   UNL     1      45.711   3.067   8.123  0.00  0.00    +0.000 A 
ATOM      6  C   UNL     1      45.561   4.283   8.797  0.00  0.00    +0.000 A 
ENDROOT
BRANCH   5   7
ATOM      7  C   UNL     1      46.525   3.066   6.883  0.00  0.00    +0.000 C 
ATOM      8  N   UNL     1      47.152   1.920   6.495  0.00  0.00    +0.000 N 
ATOM      9  O   UNL     1      46.625   4.076   6.195  0.00  0.00    +0.000 OA
ATOM     10  H   UNL     1      47.092   1.025   6.951  0.00  0.00    +0.000 HD
ATOM     11  H   UNL     1      47.655   1.968   5.617  0.00  0.00    +0.000 HD
ENDBRANCH   5   7
BRANCH   1  12
ATOM     12  O   UNL     1      44.509   5.508  10.646  0.00  0.00    +0.000 OA
BRANCH  12  14
ATOM     13  C   UNL     1      44.395   5.837  13.037  0.00  0.00    +0.000 C 
ATOM     14  C   UNL     1      45.309   5.773  11.813  0.00  0.00    +0.000 C 
BRANCH  14  15
ATOM     15  C   UNL     1      46.106   7.086  11.608  0.00  0.00    +0.000 C 
ATOM     16  C   UNL     1      47.589   6.957  11.992  0.00  0.00    +0.000 C 
ATOM     17  C   UNL     1      48.331   8.287  11.896  0.00  0.00    +0.000 C 
ATOM     18  C   UNL     1      47.646   9.364  12.725  0.00  0.00    +0.000 C 
ATOM     19  C   UNL     1      46.202   9.550  12.279  0.00  0.00    +0.000 C 
ATOM     20  C   UNL     1      45.424   8.241  12.373  0.00  0.00    +0.000 C 
ENDBRANCH  14  15
ENDBRANCH  12  14
ENDBRANCH   1  12
TORSDOF 4
ENDMDL
MODEL 9
REMARK VINA RESULT:    -5.879      2.567      4.401
REMARK INTER + INTRA:          -7.789
REMARK INTER:                  -7.199
REMARK INTRA:                  -0.590
REMARK UNBOUND:                -0.535
REMARK  Name = 
REMARK  5 active torsions:
REMARK  status: ('A' for Active; 'I' for Inactive)
REMARK    1  A    between atoms: C_1  and  C_2
REMARK    2  A    between atoms: C_2  and  O_3
REMARK    3  A    between atoms: C_2  and  C_13
REMARK    4  A    between atoms: O_3  and  C_4
REMARK    5  A    between atoms: C_8  and  C_9
REMARK                            x       y       z     vdW  Elec       q    Type
REMARK                         _______ _______ _______ _____ _____    ______ ____
ROOT
ATOM      1  C   UNL     1      45.026   5.071  12.464  0.00  0.00    +0.000 A 
ATOM      2  C   UNL     1      44.159   4.341  13.270  0.00  0.00    +0.000 A 
ATOM      3  N   UNL     1      43.449   3.261  12.854  0.00  0.00    +0.000 NA
ATOM      4  C   UNL     1      43.608   2.894  11.557  0.00  0.00    +0.000 A 
ATOM      5  C   UNL     1      44.447   3.548  10.669  0.00  0.00    +0.000 A 
ATOM      6  C   UNL     1      45.176   4.640  11.150  0.00  0.00    +0.000 A 
ENDROOT
BRANCH   5   7
ATOM      7  C   UNL     1      44.613   3.189   9.239  0.00  0.00    +0.000 C 
ATOM      8  N   UNL     1      44.256   4.088   8.278  0.00  0.00    +0.000 N 
ATOM      9  O   UNL     1      45.086   2.106   8.912  0.00  0.00    +0.000 OA
ATOM     10  H   UNL     1      43.914   5.021   8.434  0.00  0.00    +0.000 HD
ATOM     11  H   UNL     1      44.435   3.806   7.322  0.00  0.00    +0.000 HD
ENDBRANCH   5   7
BRANCH   1  12
ATOM     12  O   UNL     1      45.649   6.145  13.031  0.00  0.00    +0.000 OA
BRANCH  12  14
ATOM     13  C   UNL     1      47.820   6.259  14.086  0.00  0.00    +0.000 C 
ATOM     14  C   UNL     1      47.050   6.337  12.767  0.00  0.00    +0.000 C 
BRANCH  14  15
ATOM     15  C   UNL     1      47.262   7.692  12.045  0.00  0.00    +0.000 C 
ATOM     16  C   UNL     1      48.724   8.167  12.073  0.00  0.00    +0.000 C 
ATOM     17  C   UNL     1      48.895   9.555  11.462  0.00  0.00    +0.000 C 
ATOM     18  C   UNL     1      47.979  10.571  12.132  0.00  0.00    +0.000 C 
ATOM     19  C   UNL     1      46.524  10.137  12.021  0.00  0.00    +0.000 C 
ATOM     20  C   UNL     1      46.312   8.757  12.634  0.00  0.00    +0.000 C 
ENDBRANCH  14  15
ENDBRANCH  12  14
ENDBRANCH   1  12
TORSDOF 4
ENDMDL
