MODEL 1
REMARK VINA RESULT:    -7.864      0.000      0.000
REMARK INTER + INTRA:         -10.406
REMARK INTER:                  -9.933
REMARK INTRA:                  -0.473
REMARK UNBOUND:                -0.473
REMARK  Name = 
REMARK  7 active torsions:
REMARK  status: ('A' for Active; 'I' for Inactive)
REMARK    1  A    between atoms: C_1  and  C_2
REMARK    2  A    between atoms: C_2  and  C_3
REMARK    3  A    between atoms: C_2  and  N_4
REMARK    4  A    between atoms: C_2  and  C_5
REMARK    5  A    between atoms: N_8  and  C_9
REMARK    6  A    between atoms: C_9  and  C_10
REMARK    7  A    between atoms: C_15  and  C_16
REMARK                            x       y       z     vdW  Elec       q    Type
REMARK                         _______ _______ _______ _____ _____    ______ ____
ROOT
ATOM      1  C   UNL     1      44.051   4.464  10.399  0.00  0.00    +0.000 C 
ATOM      2  C   UNL     1      43.432   3.306  10.993  0.00  0.00    +0.000 C 
ATOM      3  N   UNL     1      43.946   2.159  10.436  0.00  0.00    +0.000 NA
ATOM      4  C   UNL     1      44.806   2.599   9.571  0.00  0.00    +0.000 A 
ATOM      5  C   UNL     1      45.643   1.807   8.662  0.00  0.00    +0.000 A 
ATOM      6  C   UNL     1      46.444   2.460   7.805  0.00  0.00    +0.000 A 
ATOM      7  C   UNL     1      46.417   3.959   7.822  0.00  0.00    +0.000 A 
ATOM      8  N   UNL     1      45.719   4.731   8.603  0.00  0.00    +0.000 NA
ATOM      9  C   UNL     1      44.930   4.062   9.478  0.00  0.00    +0.000 A 
ENDROOT
BRANCH   6  10
ATOM     10  C   UNL     1      47.282   1.759   6.799  0.00  0.00    +0.000 C 
ATOM     11  N   UNL     1      48.284   2.462   6.204  0.00  0.00    +0.000 N 
ATOM     12  O   UNL     1      47.066   0.596   6.486  0.00  0.00    +0.000 OA
ATOM     13  H   UNL     1      48.451   3.450   6.318  0.00  0.00    +0.000 HD
ATOM     14  H   UNL     1      48.822   1.978   5.493  0.00  0.00    +0.000 HD
ENDBRANCH   6  10
BRANCH   1  15
ATOM     15  C   UNL     1      43.631   5.854  10.716  0.00  0.00    +0.000 C 
BRANCH  15  19
ATOM     16  C   UNL     1      46.329   7.059  12.628  0.00  0.00    +0.000 A 
ATOM     17  C   UNL     1      45.721   8.306  12.321  0.00  0.00    +0.000 A 
ATOM     18  C   UNL     1      44.665   8.006  11.497  0.00  0.00    +0.000 A 
ATOM     19  N   UNL     1      44.683   6.650  11.338  0.00  0.00    +0.000 N 
ATOM     20  N   UNL     1      45.722   6.052  11.965  0.00  0.00    +0.000 NA
BRANCH  16  22
ATOM     21  C   UNL     1      48.852   6.878  12.805  0.00  0.00    +0.000 C 
ATOM     22  C   UNL     1      47.514   6.811  13.558  0.00  0.00    +0.000 C 
ATOM     23  C   UNL     1      47.380   5.450  14.259  0.00  0.00    +0.000 C 
BRANCH  22  24
ATOM     24  N   UNL     1      47.555   7.879  14.575  0.00  0.00    +0.000 NA
ATOM     25  H   UNL     1      46.770   8.511  14.448  0.00  0.00    +0.000 HD
ATOM     26  H   UNL     1      48.406   8.417  14.393  0.00  0.00    +0.000 HD
ENDBRANCH  22  24
ENDBRANCH  16  22
ENDBRANCH  15  19
ENDBRANCH   1  15
TORSDOF 5
ENDMDL
MODEL 2
REMARK VINA RESULT:    -6.867      2.689      6.682
REMARK INTER + INTRA:          -9.146
REMARK INTER:                  -8.677
REMARK INTRA:                  -0.469
REMARK UNBOUND:                -0.473
REMARK  Name = 
REMARK  7 active torsions:
REMARK  status: ('A' for Active; 'I' for Inactive)
REMARK    1  A    between atoms: C_1  and  C_2
REMARK    2  A    between atoms: C_2  and  C_3
REMARK    3  A    between atoms: C_2  and  N_4
REMARK    4  A    between atoms: C_2  and  C_5
REMARK    5  A    between atoms: N_8  and  C_9
REMARK    6  A    between atoms: C_9  and  C_10
REMARK    7  A    between atoms: C_15  and  C_16
REMARK                            x       y       z     vdW  Elec       q    Type
REMARK                         _______ _______ _______ _____ _____    ______ ____
ROOT
ATOM      1  C   UNL     1      45.061   4.166  11.446  0.00  0.00    +0.000 C 
ATOM      2  C   UNL     1      45.345   3.027  12.282  0.00  0.00    +0.000 C 
ATOM      3  N   UNL     1      46.141   3.404  13.338  0.00  0.00    +0.000 NA
ATOM      4  C   UNL     1      46.320   4.674  13.145  0.00  0.00    +0.000 A 
ATOM      5  C   UNL     1      47.116   5.597  13.961  0.00  0.00    +0.000 A 
ATOM      6  C   UNL     1      47.212   6.877  13.565  0.00  0.00    +0.000 A 
ATOM      7  C   UNL     1      46.511   7.273  12.300  0.00  0.00    +0.000 A 
ATOM      8  N   UNL     1      45.776   6.523  11.531  0.00  0.00    +0.000 NA
ATOM      9  C   UNL     1      45.670   5.239  11.952  0.00  0.00    +0.000 A 
ENDROOT
BRANCH   6  10
ATOM     10  C   UNL     1      48.044   7.878  14.280  0.00  0.00    +0.000 C 
ATOM     11  N   UNL     1      47.420   8.971  14.797  0.00  0.00    +0.000 N 
ATOM     12  O   UNL     1      49.256   7.747  14.379  0.00  0.00    +0.000 OA
ATOM     13  H   UNL     1      46.450   9.210  14.657  0.00  0.00    +0.000 HD
ATOM     14  H   UNL     1      48.009   9.661  15.250  0.00  0.00    +0.000 HD
ENDBRANCH   6  10
BRANCH   1  15
ATOM     15  C   UNL     1      44.312   4.058  10.166  0.00  0.00    +0.000 C 
BRANCH  15  19
ATOM     16  C   UNL     1      46.457   3.018   7.577  0.00  0.00    +0.000 A 
ATOM     17  C   UNL     1      46.734   4.411   7.527  0.00  0.00    +0.000 A 
ATOM     18  C   UNL     1      45.900   4.984   8.453  0.00  0.00    +0.000 A 
ATOM     19  N   UNL     1      45.176   3.961   8.995  0.00  0.00    +0.000 N 
ATOM     20  N   UNL     1      45.450   2.759   8.437  0.00  0.00    +0.000 NA
BRANCH  16  22
ATOM     21  C   UNL     1      46.686   1.875   5.324  0.00  0.00    +0.000 C 
ATOM     22  C   UNL     1      47.148   1.907   6.789  0.00  0.00    +0.000 C 
ATOM     23  C   UNL     1      46.897   0.539   7.443  0.00  0.00    +0.000 C 
BRANCH  22  24
ATOM     24  N   UNL     1      48.599   2.173   6.762  0.00  0.00    +0.000 NA
ATOM     25  H   UNL     1      48.783   3.132   7.042  0.00  0.00    +0.000 HD
ATOM     26  H   UNL     1      48.889   2.085   5.784  0.00  0.00    +0.000 HD
ENDBRANCH  22  24
ENDBRANCH  16  22
ENDBRANCH  15  19
ENDBRANCH   1  15
TORSDOF 5
ENDMDL
MODEL 3
REMARK VINA RESULT:    -6.562      3.647      5.975
REMARK INTER + INTRA:          -8.761
REMARK INTER:                  -8.232
REMARK INTRA:                  -0.529
REMARK UNBOUND:                -0.473
REMARK  Name = 
REMARK  7 active torsions:
REMARK  status: ('A' for Active; 'I' for Inactive)
REMARK    1  A    between atoms: C_1  and  C_2
REMARK    2  A    between atoms: C_2  and  C_3
REMARK    3  A    between atoms: C_2  and  N_4
REMARK    4  A    between atoms: C_2  and  C_5
REMARK    5  A    between atoms: N_8  and  C_9
REMARK    6  A    between atoms: C_9  and  C_10
REMARK    7  A    between atoms: C_15  and  C_16
REMARK                            x       y       z     vdW  Elec       q    Type
REMARK                         _______ _______ _______ _____ _____    ______ ____
ROOT
ATOM      1  C   UNL     1      47.508   7.062  13.728  0.00  0.00    +0.000 C 
ATOM      2  C   UNL     1      46.842   8.272  13.313  0.00  0.00    +0.000 C 
ATOM      3  N   UNL     1      45.633   7.969  12.734  0.00  0.00    +0.000 NA
ATOM      4  C   UNL     1      45.581   6.675  12.795  0.00  0.00    +0.000 A 
ATOM      5  C   UNL     1      44.513   5.800  12.298  0.00  0.00    +0.000 A 
ATOM      6  C   UNL     1      44.670   4.472  12.421  0.00  0.00    +0.000 A 
ATOM      7  C   UNL     1      45.939   3.971  13.042  0.00  0.00    +0.000 A 
ATOM      8  N   UNL     1      46.923   4.677  13.519  0.00  0.00    +0.000 NA
ATOM      9  C   UNL     1      46.744   6.015  13.409  0.00  0.00    +0.000 A 
ENDROOT
BRANCH   6  10
ATOM     10  C   UNL     1      43.682   3.496  11.894  0.00  0.00    +0.000 C 
ATOM     11  N   UNL     1      43.686   2.241  12.420  0.00  0.00    +0.000 N 
ATOM     12  O   UNL     1      42.908   3.793  10.995  0.00  0.00    +0.000 OA
ATOM     13  H   UNL     1      44.366   1.884  13.074  0.00  0.00    +0.000 HD
ATOM     14  H   UNL     1      43.029   1.577  12.022  0.00  0.00    +0.000 HD
ENDBRANCH   6  10
BRANCH   1  15
ATOM     15  C   UNL     1      48.883   7.052  14.292  0.00  0.00    +0.000 C 
BRANCH  15  19
ATOM     16  C   UNL     1      48.686   5.403  17.395  0.00  0.00    +0.000 A 
ATOM     17  C   UNL     1      48.705   6.741  17.874  0.00  0.00    +0.000 A 
ATOM     18  C   UNL     1      48.856   7.527  16.760  0.00  0.00    +0.000 A 
ATOM     19  N   UNL     1      48.929   6.669  15.699  0.00  0.00    +0.000 N 
ATOM     20  N   UNL     1      48.890   5.367  16.062  0.00  0.00    +0.000 NA
BRANCH  16  22
ATOM     21  C   UNL     1      48.769   4.358  19.705  0.00  0.00    +0.000 C 
ATOM     22  C   UNL     1      48.481   4.130  18.213  0.00  0.00    +0.000 C 
ATOM     23  C   UNL     1      49.367   2.993  17.680  0.00  0.00    +0.000 C 
BRANCH  22  24
ATOM     24  N   UNL     1      47.064   3.725  18.120  0.00  0.00    +0.000 NA
ATOM     25  H   UNL     1      46.462   4.533  18.251  0.00  0.00    +0.000 HD
ATOM     26  H   UNL     1      46.894   3.093  18.906  0.00  0.00    +0.000 HD
ENDBRANCH  22  24
ENDBRANCH  16  22
ENDBRANCH  15  19
ENDBRANCH   1  15
TORSDOF 5
ENDMDL
MODEL 4
REMARK VINA RESULT:    -6.064      4.696      8.266
REMARK INTER + INTRA:          -8.132
REMARK INTER:                  -7.527
REMARK INTRA:                  -0.605
REMARK UNBOUND:                -0.473
REMARK  Name = 
REMARK  7 active torsions:
REMARK  status: ('A' for Active; 'I' for Inactive)
REMARK    1  A    between atoms: C_1  and  C_2
REMARK    2  A    between atoms: C_2  and  C_3
REMARK    3  A    between atoms: C_2  and  N_4
REMARK    4  A    between atoms: C_2  and  C_5
REMARK    5  A    between atoms: N_8  and  C_9
REMARK    6  A    between atoms: C_9  and  C_10
REMARK    7  A    between atoms: C_15  and  C_16
REMARK                            x       y       z     vdW  Elec       q    Type
REMARK                         _______ _______ _______ _____ _____    ______ ____
ROOT
ATOM      1  C   UNL     1      48.700   6.964  14.715  0.00  0.00    +0.000 C 
ATOM      2  C   UNL     1      49.071   8.273  15.189  0.00  0.00    +0.000 C 
ATOM      3  N   UNL     1      49.263   8.244  16.551  0.00  0.00    +0.000 NA
ATOM      4  C   UNL     1      49.022   7.009  16.866  0.00  0.00    +0.000 A 
ATOM      5  C   UNL     1      49.053   6.407  18.204  0.00  0.00    +0.000 A 
ATOM      6  C   UNL     1      48.727   5.110  18.325  0.00  0.00    +0.000 A 
ATOM      7  C   UNL     1      48.334   4.367  17.083  0.00  0.00    +0.000 A 
ATOM      8  N   UNL     1      48.295   4.821  15.865  0.00  0.00    +0.000 NA
ATOM      9  C   UNL     1      48.646   6.125  15.751  0.00  0.00    +0.000 A 
ENDROOT
BRANCH   6  10
ATOM     10  C   UNL     1      48.663   4.419  19.638  0.00  0.00    +0.000 C 
ATOM     11  N   UNL     1      48.373   3.089  19.644  0.00  0.00    +0.000 N 
ATOM     12  O   UNL     1      48.834   5.024  20.687  0.00  0.00    +0.000 OA
ATOM     13  H   UNL     1      48.105   2.547  18.836  0.00  0.00    +0.000 HD
ATOM     14  H   UNL     1      48.298   2.642  20.551  0.00  0.00    +0.000 HD
ENDBRANCH   6  10
BRANCH   1  15
ATOM     15  C   UNL     1      48.321   6.696  13.302  0.00  0.00    +0.000 C 
BRANCH  15  19
ATOM     16  C   UNL     1      44.940   6.014  12.605  0.00  0.00    +0.000 A 
ATOM     17  C   UNL     1      44.930   7.407  12.326  0.00  0.00    +0.000 A 
ATOM     18  C   UNL     1      46.193   7.849  12.626  0.00  0.00    +0.000 A 
ATOM     19  N   UNL     1      46.883   6.756  13.067  0.00  0.00    +0.000 N 
ATOM     20  N   UNL     1      46.127   5.636  13.123  0.00  0.00    +0.000 NA
BRANCH  16  22
ATOM     21  C   UNL     1      44.256   3.571  12.635  0.00  0.00    +0.000 C 
ATOM     22  C   UNL     1      43.802   5.019  12.390  0.00  0.00    +0.000 C 
ATOM     23  C   UNL     1      43.225   5.150  10.972  0.00  0.00    +0.000 C 
BRANCH  22  24
ATOM     24  N   UNL     1      42.736   5.292  13.374  0.00  0.00    +0.000 NA
ATOM     25  H   UNL     1      42.741   4.581  14.099  0.00  0.00    +0.000 HD
ATOM     26  H   UNL     1      41.850   5.200  12.870  0.00  0.00    +0.000 HD
ENDBRANCH  22  24
ENDBRANCH  16  22
ENDBRANCH  15  19
ENDBRANCH   1  15
TORSDOF 5
ENDMDL
MODEL 5
REMARK VINA RESULT:    -6.017      4.131      6.315
REMARK INTER + INTRA:          -8.073
REMARK INTER:                  -7.726
REMARK INTRA:                  -0.347
REMARK UNBOUND:                -0.473
REMARK  Name = 
REMARK  7 active torsions:
REMARK  status: ('A' for Active; 'I' for Inactive)
REMARK    1  A    between atoms: C_1  and  C_2
REMARK    2  A    between atoms: C_2  and  C_3
REMARK    3  A    between atoms: C_2  and  N_4
REMARK    4  A    between atoms: C_2  and  C_5
REMARK    5  A    between atoms: N_8  and  C_9
REMARK    6  A    between atoms: C_9  and  C_10
REMARK    7  A    between atoms: C_15  and  C_16
REMARK                            x       y       z     vdW  Elec       q    Type
REMARK                         _______ _______ _______ _____ _____    ______ ____
ROOT
ATOM      1  C   UNL     1      47.243   4.693  14.854  0.00  0.00    +0.000 C 
ATOM      2  C   UNL     1      47.870   5.987  14.748  0.00  0.00    +0.000 C 
ATOM      3  N   UNL     1      47.499   6.595  13.572  0.00  0.00    +0.000 NA
ATOM      4  C   UNL     1      46.711   5.729  13.016  0.00  0.00    +0.000 A 
ATOM      5  C   UNL     1      46.034   5.841  11.719  0.00  0.00    +0.000 A 
ATOM      6  C   UNL     1      45.289   4.806  11.299  0.00  0.00    +0.000 A 
ATOM      7  C   UNL     1      45.213   3.594  12.179  0.00  0.00    +0.000 A 
ATOM      8  N   UNL     1      45.768   3.422  13.343  0.00  0.00    +0.000 NA
ATOM      9  C   UNL     1      46.500   4.480  13.766  0.00  0.00    +0.000 A 
ENDROOT
BRANCH   6  10
ATOM     10  C   UNL     1      44.615   4.788   9.975  0.00  0.00    +0.000 C 
ATOM     11  N   UNL     1      45.397   4.838   8.863  0.00  0.00    +0.000 N 
ATOM     12  O   UNL     1      43.396   4.760   9.880  0.00  0.00    +0.000 OA
ATOM     13  H   UNL     1      46.395   4.982   8.858  0.00  0.00    +0.000 HD
ATOM     14  H   UNL     1      44.918   4.862   7.969  0.00  0.00    +0.000 HD
ENDBRANCH   6  10
BRANCH   1  15
ATOM     15  C   UNL     1      47.532   3.747  15.963  0.00  0.00    +0.000 C 
BRANCH  15  19
ATOM     16  C   UNL     1      50.202   4.474  18.137  0.00  0.00    +0.000 A 
ATOM     17  C   UNL     1      49.159   5.088  18.881  0.00  0.00    +0.000 A 
ATOM     18  C   UNL     1      48.031   4.951  18.111  0.00  0.00    +0.000 A 
ATOM     19  N   UNL     1      48.423   4.297  16.978  0.00  0.00    +0.000 N 
ATOM     20  N   UNL     1      49.752   4.048  16.938  0.00  0.00    +0.000 NA
BRANCH  16  22
ATOM     21  C   UNL     1      51.891   4.745  20.010  0.00  0.00    +0.000 C 
ATOM     22  C   UNL     1      51.658   4.293  18.560  0.00  0.00    +0.000 C 
ATOM     23  C   UNL     1      52.598   5.062  17.619  0.00  0.00    +0.000 C 
BRANCH  22  24
ATOM     24  N   UNL     1      51.995   2.856  18.513  0.00  0.00    +0.000 NA
ATOM     25  H   UNL     1      52.918   2.728  18.110  0.00  0.00    +0.000 HD
ATOM     26  H   UNL     1      51.324   2.426  17.871  0.00  0.00    +0.000 HD
ENDBRANCH  22  24
ENDBRANCH  16  22
ENDBRANCH  15  19
ENDBRANCH   1  15
TORSDOF 5
ENDMDL
MODEL 6
REMARK VINA RESULT:    -5.678      3.132      5.089
REMARK INTER + INTRA:          -7.644
REMARK INTER:                  -7.133
REMARK INTRA:                  -0.511
REMARK UNBOUND:                -0.473
REMARK  Name = 
REMARK  7 active torsions:
REMARK  status: ('A' for Active; 'I' for Inactive)
REMARK    1  A    between atoms: C_1  and  C_2
REMARK    2  A    between atoms: C_2  and  C_3
REMARK    3  A    between atoms: C_2  and  N_4
REMARK    4  A    between atoms: C_2  and  C_5
REMARK    5  A    between atoms: N_8  and  C_9
REMARK    6  A    between atoms: C_9  and  C_10
REMARK    7  A    between atoms: C_15  and  C_16
REMARK                            x       y       z     vdW  Elec       q    Type
REMARK                         _______ _______ _______ _____ _____    ______ ____
ROOT
ATOM      1  C   UNL     1      47.217   6.955  12.868  0.00  0.00    +0.000 C 
ATOM      2  C   UNL     1      47.753   6.243  14.000  0.00  0.00    +0.000 C 
ATOM      3  N   UNL     1      47.273   4.954  14.017  0.00  0.00    +0.000 NA
ATOM      4  C   UNL     1      46.505   4.902  12.973  0.00  0.00    +0.000 A 
ATOM      5  C   UNL     1      45.707   3.761  12.509  0.00  0.00    +0.000 A 
ATOM      6  C   UNL     1      44.938   3.925  11.421  0.00  0.00    +0.000 A 
ATOM      7  C   UNL     1      44.931   5.272  10.763  0.00  0.00    +0.000 A 
ATOM      8  N   UNL     1      45.618   6.324  11.101  0.00  0.00    +0.000 NA
ATOM      9  C   UNL     1      46.407   6.141  12.187  0.00  0.00    +0.000 A 
ENDROOT
BRANCH   6  10
ATOM     10  C   UNL     1      44.041   2.858  10.905  0.00  0.00    +0.000 C 
ATOM     11  N   UNL     1      44.462   2.140   9.829  0.00  0.00    +0.000 N 
ATOM     12  O   UNL     1      42.946   2.646  11.407  0.00  0.00    +0.000 OA
ATOM     13  H   UNL     1      45.293   2.330   9.289  0.00  0.00    +0.000 HD
ATOM     14  H   UNL     1      43.822   1.441   9.468  0.00  0.00    +0.000 HD
ENDBRANCH   6  10
BRANCH   1  15
ATOM     15  C   UNL     1      47.466   8.402  12.634  0.00  0.00    +0.000 C 
BRANCH  15  19
ATOM     16  C   UNL     1      50.934   8.636  12.088  0.00  0.00    +0.000 A 
ATOM     17  C   UNL     1      50.883   9.272  13.357  0.00  0.00    +0.000 A 
ATOM     18  C   UNL     1      49.552   9.326  13.686  0.00  0.00    +0.000 A 
ATOM     19  N   UNL     1      48.881   8.755  12.643  0.00  0.00    +0.000 N 
ATOM     20  N   UNL     1      49.692   8.381  11.627  0.00  0.00    +0.000 NA
BRANCH  16  22
ATOM     21  C   UNL     1      52.822   9.506  10.634  0.00  0.00    +0.000 C 
ATOM     22  C   UNL     1      52.181   8.271  11.285  0.00  0.00    +0.000 C 
ATOM     23  C   UNL     1      51.847   7.228  10.206  0.00  0.00    +0.000 C 
BRANCH  22  24
ATOM     24  N   UNL     1      53.193   7.712  12.203  0.00  0.00    +0.000 NA
ATOM     25  H   UNL     1      53.487   8.419  12.869  0.00  0.00    +0.000 HD
ATOM     26  H   UNL     1      54.008   7.484  11.627  0.00  0.00    +0.000 HD
ENDBRANCH  22  24
ENDBRANCH  16  22
ENDBRANCH  15  19
ENDBRANCH   1  15
TORSDOF 5
ENDMDL
MODEL 7
REMARK VINA RESULT:    -5.580      4.012      6.667
REMARK INTER + INTRA:          -7.521
REMARK INTER:                  -7.116
REMARK INTRA:                  -0.405
REMARK UNBOUND:                -0.473
REMARK  Name = 
REMARK  7 active torsions:
REMARK  status: ('A' for Active; 'I' for Inactive)
REMARK    1  A    between atoms: C_1  and  C_2
REMARK    2  A    between atoms: C_2  and  C_3
REMARK    3  A    between atoms: C_2  and  N_4
REMARK    4  A    between atoms: C_2  and  C_5
REMARK    5  A    between atoms: N_8  and  C_9
REMARK    6  A    between atoms: C_9  and  C_10
REMARK    7  A    between atoms: C_15  and  C_16
REMARK                            x       y       z     vdW  Elec       q    Type
REMARK                         _______ _______ _______ _____ _____    ______ ____
ROOT
ATOM      1  C   UNL     1      47.286   4.829  14.868  0.00  0.00    +0.000 C 
ATOM      2  C   UNL     1      48.116   5.988  14.659  0.00  0.00    +0.000 C 
ATOM      3  N   UNL     1      47.556   6.804  13.705  0.00  0.00    +0.000 NA
ATOM      4  C   UNL     1      46.472   6.178  13.367  0.00  0.00    +0.000 A 
ATOM      5  C   UNL     1      45.485   6.582  12.359  0.00  0.00    +0.000 A 
ATOM      6  C   UNL     1      44.445   5.766  12.125  0.00  0.00    +0.000 A 
ATOM      7  C   UNL     1      44.372   4.483  12.898  0.00  0.00    +0.000 A 
ATOM      8  N   UNL     1      45.194   4.060  13.814  0.00  0.00    +0.000 NA
ATOM      9  C   UNL     1      46.228   4.901  14.057  0.00  0.00    +0.000 A 
ENDROOT
BRANCH   6  10
ATOM     10  C   UNL     1      43.424   6.046  11.083  0.00  0.00    +0.000 C 
ATOM     11  N   UNL     1      42.820   7.265  11.096  0.00  0.00    +0.000 N 
ATOM     12  O   UNL     1      43.110   5.203  10.254  0.00  0.00    +0.000 OA
ATOM     13  H   UNL     1      42.936   7.966  11.812  0.00  0.00    +0.000 HD
ATOM     14  H   UNL     1      42.100   7.426  10.400  0.00  0.00    +0.000 HD
ENDBRANCH   6  10
BRANCH   1  15
ATOM     15  C   UNL     1      47.677   3.708  15.762  0.00  0.00    +0.000 C 
BRANCH  15  19
ATOM     16  C   UNL     1      48.431   5.435  18.734  0.00  0.00    +0.000 A 
ATOM     17  C   UNL     1      49.582   4.604  18.681  0.00  0.00    +0.000 A 
ATOM     18  C   UNL     1      49.401   3.796  17.587  0.00  0.00    +0.000 A 
ATOM     19  N   UNL     1      48.195   4.149  17.052  0.00  0.00    +0.000 N 
ATOM     20  N   UNL     1      47.553   5.102  17.765  0.00  0.00    +0.000 NA
BRANCH  16  22
ATOM     21  C   UNL     1      47.286   6.079  20.904  0.00  0.00    +0.000 C 
ATOM     22  C   UNL     1      48.146   6.561  19.725  0.00  0.00    +0.000 C 
ATOM     23  C   UNL     1      47.454   7.741  19.025  0.00  0.00    +0.000 C 
BRANCH  22  24
ATOM     24  N   UNL     1      49.424   7.023  20.303  0.00  0.00    +0.000 NA
ATOM     25  H   UNL     1      49.959   6.229  20.642  0.00  0.00    +0.000 HD
ATOM     26  H   UNL     1      49.180   7.591  21.119  0.00  0.00    +0.000 HD
ENDBRANCH  22  24
ENDBRANCH  16  22
ENDBRANCH  15  19
ENDBRANCH   1  15
TORSDOF 5
ENDMDL
MODEL 8
REMARK VINA RESULT:    -5.404      5.960      8.867
REMARK INTER + INTRA:          -7.299
REMARK INTER:                  -6.696
REMARK INTRA:                  -0.603
REMARK UNBOUND:                -0.473
REMARK  Name = 
REMARK  7 active torsions:
REMARK  status: ('A' for Active; 'I' for Inactive)
REMARK    1  A    between atoms: C_1  and  C_2
REMARK    2  A    between atoms: C_2  and  C_3
REMARK    3  A    between atoms: C_2  and  N_4
REMARK    4  A    between atoms: C_2  and  C_5
REMARK    5  A    between atoms: N_8  and  C_9
REMARK    6  A    between atoms: C_9  and  C_10
REMARK    7  A    between atoms: C_15  and  C_16
REMARK                            x       y       z     vdW  Elec       q    Type
REMARK                         _______ _______ _______ _____ _____    ______ ____
ROOT
ATOM      1  C   UNL     1      49.213   3.818  17.218  0.00  0.00    +0.000 C 
ATOM      2  C   UNL     1      48.581   2.793  16.426  0.00  0.00    +0.000 C 
ATOM      3  N   UNL     1      49.402   1.694  16.337  0.00  0.00    +0.000 NA
ATOM      4  C   UNL     1      50.447   2.037  17.023  0.00  0.00    +0.000 A 
ATOM      5  C   UNL     1      51.665   1.251  17.249  0.00  0.00    +0.000 A 
ATOM      6  C   UNL     1      52.659   1.808  17.958  0.00  0.00    +0.000 A 
ATOM      7  C   UNL     1      52.466   3.209  18.456  0.00  0.00    +0.000 A 
ATOM      8  N   UNL     1      51.417   3.965  18.312  0.00  0.00    +0.000 NA
ATOM      9  C   UNL     1      50.411   3.385  17.614  0.00  0.00    +0.000 A 
ENDROOT
BRANCH   6  10
ATOM     10  C   UNL     1      53.959   1.126  18.191  0.00  0.00    +0.000 C 
ATOM     11  N   UNL     1      53.934  -0.116  18.746  0.00  0.00    +0.000 N 
ATOM     12  O   UNL     1      55.021   1.668  17.922  0.00  0.00    +0.000 OA
ATOM     13  H   UNL     1      53.112  -0.580  19.103  0.00  0.00    +0.000 HD
ATOM     14  H   UNL     1      54.832  -0.551  18.931  0.00  0.00    +0.000 HD
ENDBRANCH   6  10
BRANCH   1  15
ATOM     15  C   UNL     1      48.621   5.168  17.409  0.00  0.00    +0.000 C 
BRANCH  15  19
ATOM     16  C   UNL     1      49.212   7.023  14.476  0.00  0.00    +0.000 A 
ATOM     17  C   UNL     1      50.323   7.478  15.235  0.00  0.00    +0.000 A 
ATOM     18  C   UNL     1      50.194   6.887  16.466  0.00  0.00    +0.000 A 
ATOM     19  N   UNL     1      49.053   6.138  16.408  0.00  0.00    +0.000 N 
ATOM     20  N   UNL     1      48.401   6.250  15.229  0.00  0.00    +0.000 NA
BRANCH  16  22
ATOM     21  C   UNL     1      48.575   8.817  12.801  0.00  0.00    +0.000 C 
ATOM     22  C   UNL     1      48.901   7.330  13.014  0.00  0.00    +0.000 C 
ATOM     23  C   UNL     1      47.734   6.465  12.511  0.00  0.00    +0.000 C 
BRANCH  22  24
ATOM     24  N   UNL     1      50.100   7.047  12.200  0.00  0.00    +0.000 NA
ATOM     25  H   UNL     1      50.116   7.649  11.383  0.00  0.00    +0.000 HD
ATOM     26  H   UNL     1      49.997   6.086  11.863  0.00  0.00    +0.000 HD
ENDBRANCH  22  24
ENDBRANCH  16  22
ENDBRANCH  15  19
ENDBRANCH   1  15
TORSDOF 5
ENDMDL
MODEL 9
REMARK VINA RESULT:    -5.376      3.666      6.384
REMARK INTER + INTRA:          -7.263
REMARK INTER:                  -6.667
REMARK INTRA:                  -0.595
REMARK UNBOUND:                -0.473
REMARK  Name = 
REMARK  7 active torsions:
REMARK  status: ('A' for Active; 'I' for Inactive)
REMARK    1  A    between atoms: C_1  and  C_2
REMARK    2  A    between atoms: C_2  and  C_3
REMARK    3  A    between atoms: C_2  and  N_4
REMARK    4  A    between atoms: C_2  and  C_5
REMARK    5  A    between atoms: N_8  and  C_9
REMARK    6  A    between atoms: C_9  and  C_10
REMARK    7  A    between atoms: C_15  and  C_16
REMARK                            x       y       z     vdW  Elec       q    Type
REMARK                         _______ _______ _______ _____ _____    ______ ____
ROOT
ATOM      1  C   UNL     1      47.932   7.110  14.068  0.00  0.00    +0.000 C 
ATOM      2  C   UNL     1      47.404   8.330  13.513  0.00  0.00    +0.000 C 
ATOM      3  N   UNL     1      46.264   8.064  12.791  0.00  0.00    +0.000 NA
ATOM      4  C   UNL     1      46.124   6.780  12.905  0.00  0.00    +0.000 A 
ATOM      5  C   UNL     1      45.078   5.940  12.311  0.00  0.00    +0.000 A 
ATOM      6  C   UNL     1      45.134   4.614  12.515  0.00  0.00    +0.000 A 
ATOM      7  C   UNL     1      46.278   4.078  13.323  0.00  0.00    +0.000 A 
ATOM      8  N   UNL     1      47.232   4.753  13.894  0.00  0.00    +0.000 NA
ATOM      9  C   UNL     1      47.153   6.091  13.699  0.00  0.00    +0.000 A 
ENDROOT
BRANCH   6  10
ATOM     10  C   UNL     1      44.165   3.667  11.906  0.00  0.00    +0.000 C 
ATOM     11  N   UNL     1      44.081   2.416  12.434  0.00  0.00    +0.000 N 
ATOM     12  O   UNL     1      43.483   3.984  10.941  0.00  0.00    +0.000 OA
ATOM     13  H   UNL     1      44.689   2.042  13.147  0.00  0.00    +0.000 HD
ATOM     14  H   UNL     1      43.441   1.772  11.983  0.00  0.00    +0.000 HD
ENDBRANCH   6  10
BRANCH   1  15
ATOM     15  C   UNL     1      49.218   7.054  14.812  0.00  0.00    +0.000 C 
BRANCH  15  19
ATOM     16  C   UNL     1      48.698   6.973  18.291  0.00  0.00    +0.000 A 
ATOM     17  C   UNL     1      49.425   5.758  18.164  0.00  0.00    +0.000 A 
ATOM     18  C   UNL     1      49.647   5.604  16.819  0.00  0.00    +0.000 A 
ATOM     19  N   UNL     1      49.062   6.679  16.213  0.00  0.00    +0.000 N 
ATOM     20  N   UNL     1      48.424   7.498  17.079  0.00  0.00    +0.000 NA
BRANCH  16  22
ATOM     21  C   UNL     1      47.542   6.658  20.527  0.00  0.00    +0.000 C 
ATOM     22  C   UNL     1      48.243   7.648  19.583  0.00  0.00    +0.000 C 
ATOM     23  C   UNL     1      47.308   8.829  19.280  0.00  0.00    +0.000 C 
BRANCH  22  24
ATOM     24  N   UNL     1      49.430   8.143  20.307  0.00  0.00    +0.000 NA
ATOM     25  H   UNL     1      50.110   7.395  20.414  0.00  0.00    +0.000 HD
ATOM     26  H   UNL     1      49.110   8.393  21.246  0.00  0.00    +0.000 HD
ENDBRANCH  22  24
ENDBRANCH  16  22
ENDBRANCH  15  19
ENDBRANCH   1  15
TORSDOF 5
ENDMDL
