MODEL 1
REMARK VINA RESULT:    -7.735      0.000      0.000
REMARK INTER + INTRA:         -10.648
REMARK INTER:                 -10.222
REMARK INTRA:                  -0.426
REMARK UNBOUND:                -0.426
REMARK  Name = 
REMARK  6 active torsions:
REMARK  status: ('A' for Active; 'I' for Inactive)
REMARK    1  A    between atoms: C_2  and  C_3
REMARK    2  A    between atoms: C_6  and  O_7
REMARK    3  A    between atoms: O_7  and  C_8
REMARK    4  A    between atoms: C_8  and  C_9
REMARK    5  A    between atoms: C_13  and  N_14
REMARK    6  A    between atoms: C_17  and  O_18
REMARK                            x       y       z     vdW  Elec       q    Type
REMARK                         _______ _______ _______ _____ _____    ______ ____
ROOT
ATOM      1  C   UNL     1      45.030   4.818  11.932  0.00  0.00    +0.000 A 
ATOM      2  C   UNL     1      45.365   3.680  12.666  0.00  0.00    +0.000 A 
ATOM      3  C   UNL     1      46.514   3.656  13.453  0.00  0.00    +0.000 A 
ATOM      4  C   UNL     1      47.331   4.783  13.538  0.00  0.00    +0.000 A 
ATOM      5  C   UNL     1      47.035   5.952  12.838  0.00  0.00    +0.000 A 
ATOM      6  C   UNL     1      45.902   5.921  12.023  0.00  0.00    +0.000 A 
ENDROOT
BRANCH   5   7
ATOM      7  N   UNL     1      47.766   7.114  12.979  0.00  0.00    +0.000 N 
ATOM      8  C   UNL     1      49.200   7.123  12.714  0.00  0.00    +0.000 C 
ATOM      9  C   UNL     1      49.490   8.058  11.551  0.00  0.00    +0.000 C 
ATOM     10  C   UNL     1      48.868   9.439  11.764  0.00  0.00    +0.000 C 
ATOM     11  C   UNL     1      47.383   9.358  12.121  0.00  0.00    +0.000 C 
ATOM     12  C   UNL     1      47.127   8.396  13.278  0.00  0.00    +0.000 C 
BRANCH  10  13
ATOM     13  O   UNL     1      49.584  10.161  12.766  0.00  0.00    +0.000 OA
ATOM     14  H   UNL     1      49.691  11.083  12.477  0.00  0.00    +0.000 HD
ENDBRANCH  10  13
ENDBRANCH   5   7
BRANCH   1  15
ATOM     15  C   UNL     1      43.775   4.904  11.094  0.00  0.00    +0.000 C 
ATOM     16  C   UNL     1      42.389   5.095  11.696  0.00  0.00    +0.000 C 
ATOM     17  C   UNL     1      43.084   6.264  11.105  0.00  0.00    +0.000 C 
BRANCH  15  18
ATOM     18  O   UNL     1      43.652   3.916  10.046  0.00  0.00    +0.000 OA
BRANCH  18  22
ATOM     19  C   UNL     1      46.642   2.675   7.644  0.00  0.00    +0.000 A 
ATOM     20  N   UNL     1      46.424   4.002   7.648  0.00  0.00    +0.000 NA
ATOM     21  C   UNL     1      45.458   4.423   8.485  0.00  0.00    +0.000 A 
ATOM     22  C   UNL     1      44.719   3.587   9.285  0.00  0.00    +0.000 A 
ATOM     23  C   UNL     1      45.097   2.261   9.257  0.00  0.00    +0.000 A 
ATOM     24  N   UNL     1      46.049   1.768   8.441  0.00  0.00    +0.000 NA
BRANCH  19  26
ATOM     25  N   UNL     1      48.157   1.786   5.734  0.00  0.00    +0.000 NA
ATOM     26  C   UNL     1      47.451   2.171   6.583  0.00  0.00    +0.000 C 
ENDBRANCH  19  26
ENDBRANCH  18  22
ENDBRANCH  15  18
ENDBRANCH   1  15
TORSDOF 6
ENDMDL
MODEL 2
REMARK VINA RESULT:    -7.502      1.318      2.374
REMARK INTER + INTRA:         -10.340
REMARK INTER:                  -9.981
REMARK INTRA:                  -0.359
REMARK UNBOUND:                -0.426
REMARK  Name = 
REMARK  6 active torsions:
REMARK  status: ('A' for Active; 'I' for Inactive)
REMARK    1  A    between atoms: C_2  and  C_3
REMARK    2  A    between atoms: C_6  and  O_7
REMARK    3  A    between atoms: O_7  and  C_8
REMARK    4  A    between atoms: C_8  and  C_9
REMARK    5  A    between atoms: C_13  and  N_14
REMARK    6  A    between atoms: C_17  and  O_18
REMARK                            x       y       z     vdW  Elec       q    Type
REMARK                         _______ _______ _______ _____ _____    ______ ____
ROOT
ATOM      1  C   UNL     1      44.885   5.841  11.768  0.00  0.00    +0.000 A 
ATOM      2  C   UNL     1      44.239   7.033  11.437  0.00  0.00    +0.000 A 
ATOM      3  C   UNL     1      44.897   8.254  11.557  0.00  0.00    +0.000 A 
ATOM      4  C   UNL     1      46.224   8.298  11.986  0.00  0.00    +0.000 A 
ATOM      5  C   UNL     1      46.922   7.136  12.315  0.00  0.00    +0.000 A 
ATOM      6  C   UNL     1      46.214   5.937  12.228  0.00  0.00    +0.000 A 
ENDROOT
BRANCH   5   7
ATOM      7  N   UNL     1      48.262   7.137  12.645  0.00  0.00    +0.000 N 
ATOM      8  C   UNL     1      49.269   7.501  11.655  0.00  0.00    +0.000 C 
ATOM      9  C   UNL     1      50.000   8.751  12.119  0.00  0.00    +0.000 C 
ATOM     10  C   UNL     1      50.528   8.602  13.546  0.00  0.00    +0.000 C 
ATOM     11  C   UNL     1      49.446   8.137  14.521  0.00  0.00    +0.000 C 
ATOM     12  C   UNL     1      48.719   6.894  14.014  0.00  0.00    +0.000 C 
BRANCH  10  13
ATOM     13  O   UNL     1      51.644   7.711  13.576  0.00  0.00    +0.000 OA
ATOM     14  H   UNL     1      52.219   7.898  12.816  0.00  0.00    +0.000 HD
ENDBRANCH  10  13
ENDBRANCH   5   7
BRANCH   1  15
ATOM     15  C   UNL     1      44.224   4.490  11.619  0.00  0.00    +0.000 C 
ATOM     16  C   UNL     1      44.821   3.209  12.187  0.00  0.00    +0.000 C 
ATOM     17  C   UNL     1      43.715   3.873  12.919  0.00  0.00    +0.000 C 
BRANCH  15  18
ATOM     18  O   UNL     1      43.724   4.178  10.298  0.00  0.00    +0.000 OA
BRANCH  18  22
ATOM     19  C   UNL     1      46.342   2.564   7.691  0.00  0.00    +0.000 A 
ATOM     20  N   UNL     1      45.650   1.680   8.430  0.00  0.00    +0.000 NA
ATOM     21  C   UNL     1      44.742   2.215   9.267  0.00  0.00    +0.000 A 
ATOM     22  C   UNL     1      44.517   3.562   9.393  0.00  0.00    +0.000 A 
ATOM     23  C   UNL     1      45.224   4.361   8.519  0.00  0.00    +0.000 A 
ATOM     24  N   UNL     1      46.152   3.896   7.660  0.00  0.00    +0.000 NA
BRANCH  19  26
ATOM     25  N   UNL     1      48.411   1.670   6.406  0.00  0.00    +0.000 NA
ATOM     26  C   UNL     1      47.488   2.059   7.010  0.00  0.00    +0.000 C 
ENDBRANCH  19  26
ENDBRANCH  18  22
ENDBRANCH  15  18
ENDBRANCH   1  15
TORSDOF 6
ENDMDL
MODEL 3
REMARK VINA RESULT:    -7.449      2.563      3.761
REMARK INTER + INTRA:         -10.269
REMARK INTER:                 -10.424
REMARK INTRA:                   0.154
REMARK UNBOUND:                -0.426
REMARK  Name = 
REMARK  6 active torsions:
REMARK  status: ('A' for Active; 'I' for Inactive)
REMARK    1  A    between atoms: C_2  and  C_3
REMARK    2  A    between atoms: C_6  and  O_7
REMARK    3  A    between atoms: O_7  and  C_8
REMARK    4  A    between atoms: C_8  and  C_9
REMARK    5  A    between atoms: C_13  and  N_14
REMARK    6  A    between atoms: C_17  and  O_18
REMARK                            x       y       z     vdW  Elec       q    Type
REMARK                         _______ _______ _______ _____ _____    ______ ____
ROOT
ATOM      1  C   UNL     1      45.397   5.334  12.431  0.00  0.00    +0.000 A 
ATOM      2  C   UNL     1      46.002   6.351  11.690  0.00  0.00    +0.000 A 
ATOM      3  C   UNL     1      47.179   6.947  12.133  0.00  0.00    +0.000 A 
ATOM      4  C   UNL     1      47.785   6.516  13.314  0.00  0.00    +0.000 A 
ATOM      5  C   UNL     1      47.232   5.493  14.084  0.00  0.00    +0.000 A 
ATOM      6  C   UNL     1      46.027   4.954  13.633  0.00  0.00    +0.000 A 
ENDROOT
BRANCH   5   7
ATOM      7  N   UNL     1      47.857   4.977  15.201  0.00  0.00    +0.000 N 
ATOM      8  C   UNL     1      48.768   5.800  15.988  0.00  0.00    +0.000 C 
ATOM      9  C   UNL     1      48.210   5.964  17.392  0.00  0.00    +0.000 C 
ATOM     10  C   UNL     1      47.856   4.616  18.023  0.00  0.00    +0.000 C 
ATOM     11  C   UNL     1      46.969   3.765  17.114  0.00  0.00    +0.000 C 
ATOM     12  C   UNL     1      47.549   3.639  15.708  0.00  0.00    +0.000 C 
BRANCH  10  13
ATOM     13  O   UNL     1      49.041   3.903  18.375  0.00  0.00    +0.000 OA
ATOM     14  H   UNL     1      49.572   4.449  18.979  0.00  0.00    +0.000 HD
ENDBRANCH  10  13
ENDBRANCH   5   7
BRANCH   1  15
ATOM     15  C   UNL     1      44.140   4.632  11.972  0.00  0.00    +0.000 C 
ATOM     16  C   UNL     1      43.764   3.227  12.422  0.00  0.00    +0.000 C 
ATOM     17  C   UNL     1      43.102   4.388  13.064  0.00  0.00    +0.000 C 
BRANCH  15  18
ATOM     18  O   UNL     1      43.855   4.717  10.557  0.00  0.00    +0.000 OA
BRANCH  18  22
ATOM     19  C   UNL     1      46.119   2.590   7.988  0.00  0.00    +0.000 A 
ATOM     20  N   UNL     1      45.383   1.859   8.843  0.00  0.00    +0.000 NA
ATOM     21  C   UNL     1      44.591   2.566   9.669  0.00  0.00    +0.000 A 
ATOM     22  C   UNL     1      44.520   3.937   9.676  0.00  0.00    +0.000 A 
ATOM     23  C   UNL     1      45.254   4.569   8.694  0.00  0.00    +0.000 A 
ATOM     24  N   UNL     1      46.073   3.926   7.838  0.00  0.00    +0.000 NA
BRANCH  19  26
ATOM     25  N   UNL     1      48.046   1.377   6.743  0.00  0.00    +0.000 NA
ATOM     26  C   UNL     1      47.161   1.899   7.300  0.00  0.00    +0.000 C 
ENDBRANCH  19  26
ENDBRANCH  18  22
ENDBRANCH  15  18
ENDBRANCH   1  15
TORSDOF 6
ENDMDL
MODEL 4
REMARK VINA RESULT:    -7.342      2.077      3.104
REMARK INTER + INTRA:         -10.129
REMARK INTER:                  -9.833
REMARK INTRA:                  -0.296
REMARK UNBOUND:                -0.426
REMARK  Name = 
REMARK  6 active torsions:
REMARK  status: ('A' for Active; 'I' for Inactive)
REMARK    1  A    between atoms: C_2  and  C_3
REMARK    2  A    between atoms: C_6  and  O_7
REMARK    3  A    between atoms: O_7  and  C_8
REMARK    4  A    between atoms: C_8  and  C_9
REMARK    5  A    between atoms: C_13  and  N_14
REMARK    6  A    between atoms: C_17  and  O_18
REMARK                            x       y       z     vdW  Elec       q    Type
REMARK                         _______ _______ _______ _____ _____    ______ ____
ROOT
ATOM      1  C   UNL     1      44.787   5.528  11.777  0.00  0.00    +0.000 A 
ATOM      2  C   UNL     1      44.855   6.845  11.321  0.00  0.00    +0.000 A 
ATOM      3  C   UNL     1      45.783   7.734  11.857  0.00  0.00    +0.000 A 
ATOM      4  C   UNL     1      46.677   7.309  12.840  0.00  0.00    +0.000 A 
ATOM      5  C   UNL     1      46.663   6.000  13.320  0.00  0.00    +0.000 A 
ATOM      6  C   UNL     1      45.688   5.152  12.794  0.00  0.00    +0.000 A 
ENDROOT
BRANCH   5   7
ATOM      7  N   UNL     1      47.597   5.522  14.217  0.00  0.00    +0.000 N 
ATOM      8  C   UNL     1      48.721   6.355  14.630  0.00  0.00    +0.000 C 
ATOM      9  C   UNL     1      48.632   6.614  16.126  0.00  0.00    +0.000 C 
ATOM     10  C   UNL     1      48.470   5.315  16.917  0.00  0.00    +0.000 C 
ATOM     11  C   UNL     1      47.330   4.447  16.383  0.00  0.00    +0.000 C 
ATOM     12  C   UNL     1      47.440   4.225  14.877  0.00  0.00    +0.000 C 
BRANCH  10  13
ATOM     13  O   UNL     1      49.695   4.580  16.928  0.00  0.00    +0.000 OA
ATOM     14  H   UNL     1      50.370   5.098  17.398  0.00  0.00    +0.000 HD
ENDBRANCH  10  13
ENDBRANCH   5   7
BRANCH   1  15
ATOM     15  C   UNL     1      43.822   4.517  11.200  0.00  0.00    +0.000 C 
ATOM     16  C   UNL     1      43.689   3.098  11.738  0.00  0.00    +0.000 C 
ATOM     17  C   UNL     1      42.680   4.113  12.128  0.00  0.00    +0.000 C 
BRANCH  15  18
ATOM     18  O   UNL     1      43.791   4.431   9.757  0.00  0.00    +0.000 OA
BRANCH  18  22
ATOM     19  C   UNL     1      46.746   2.760   7.582  0.00  0.00    +0.000 A 
ATOM     20  N   UNL     1      46.716   4.104   7.571  0.00  0.00    +0.000 NA
ATOM     21  C   UNL     1      45.760   4.664   8.334  0.00  0.00    +0.000 A 
ATOM     22  C   UNL     1      44.855   3.949   9.077  0.00  0.00    +0.000 A 
ATOM     23  C   UNL     1      45.044   2.582   9.076  0.00  0.00    +0.000 A 
ATOM     24  N   UNL     1      45.974   1.953   8.332  0.00  0.00    +0.000 NA
BRANCH  19  26
ATOM     25  N   UNL     1      48.245   1.672   5.764  0.00  0.00    +0.000 NA
ATOM     26  C   UNL     1      47.552   2.138   6.583  0.00  0.00    +0.000 C 
ENDBRANCH  19  26
ENDBRANCH  18  22
ENDBRANCH  15  18
ENDBRANCH   1  15
TORSDOF 6
ENDMDL
MODEL 5
REMARK VINA RESULT:    -6.750      2.907      7.294
REMARK INTER + INTRA:          -9.346
REMARK INTER:                  -9.043
REMARK INTRA:                  -0.303
REMARK UNBOUND:                -0.426
REMARK  Name = 
REMARK  6 active torsions:
REMARK  status: ('A' for Active; 'I' for Inactive)
REMARK    1  A    between atoms: C_2  and  C_3
REMARK    2  A    between atoms: C_6  and  O_7
REMARK    3  A    between atoms: O_7  and  C_8
REMARK    4  A    between atoms: C_8  and  C_9
REMARK    5  A    between atoms: C_13  and  N_14
REMARK    6  A    between atoms: C_17  and  O_18
REMARK                            x       y       z     vdW  Elec       q    Type
REMARK                         _______ _______ _______ _____ _____    ______ ____
ROOT
ATOM      1  C   UNL     1      45.240   4.943  11.913  0.00  0.00    +0.000 A 
ATOM      2  C   UNL     1      44.266   4.282  12.663  0.00  0.00    +0.000 A 
ATOM      3  C   UNL     1      43.525   3.244  12.106  0.00  0.00    +0.000 A 
ATOM      4  C   UNL     1      43.767   2.833  10.794  0.00  0.00    +0.000 A 
ATOM      5  C   UNL     1      44.738   3.448  10.005  0.00  0.00    +0.000 A 
ATOM      6  C   UNL     1      45.426   4.516  10.583  0.00  0.00    +0.000 A 
ENDROOT
BRANCH   5   7
ATOM      7  N   UNL     1      45.070   3.002   8.743  0.00  0.00    +0.000 N 
ATOM      8  C   UNL     1      45.405   3.950   7.686  0.00  0.00    +0.000 C 
ATOM      9  C   UNL     1      46.843   3.722   7.246  0.00  0.00    +0.000 C 
ATOM     10  C   UNL     1      47.104   2.256   6.899  0.00  0.00    +0.000 C 
ATOM     11  C   UNL     1      46.654   1.307   8.010  0.00  0.00    +0.000 C 
ATOM     12  C   UNL     1      45.215   1.577   8.441  0.00  0.00    +0.000 C 
BRANCH  10  13
ATOM     13  O   UNL     1      46.475   1.914   5.664  0.00  0.00    +0.000 OA
ATOM     14  H   UNL     1      46.636   2.623   5.019  0.00  0.00    +0.000 HD
ENDBRANCH  10  13
ENDBRANCH   5   7
BRANCH   1  15
ATOM     15  C   UNL     1      46.093   6.051  12.487  0.00  0.00    +0.000 C 
ATOM     16  C   UNL     1      46.310   7.381  11.778  0.00  0.00    +0.000 C 
ATOM     17  C   UNL     1      45.332   7.310  12.890  0.00  0.00    +0.000 C 
BRANCH  15  18
ATOM     18  O   UNL     1      47.371   5.643  13.027  0.00  0.00    +0.000 OA
BRANCH  18  22
ATOM     19  C   UNL     1      47.927   4.800  16.930  0.00  0.00    +0.000 A 
ATOM     20  N   UNL     1      48.495   5.942  16.504  0.00  0.00    +0.000 NA
ATOM     21  C   UNL     1      48.271   6.249  15.213  0.00  0.00    +0.000 A 
ATOM     22  C   UNL     1      47.529   5.472  14.359  0.00  0.00    +0.000 A 
ATOM     23  C   UNL     1      46.926   4.374  14.936  0.00  0.00    +0.000 A 
ATOM     24  N   UNL     1      47.111   4.003  16.218  0.00  0.00    +0.000 NA
BRANCH  19  26
ATOM     25  N   UNL     1      48.751   3.955  19.241  0.00  0.00    +0.000 NA
ATOM     26  C   UNL     1      48.368   4.309  18.194  0.00  0.00    +0.000 C 
ENDBRANCH  19  26
ENDBRANCH  18  22
ENDBRANCH  15  18
ENDBRANCH   1  15
TORSDOF 6
ENDMDL
MODEL 6
REMARK VINA RESULT:    -6.705      2.984      7.207
REMARK INTER + INTRA:          -9.286
REMARK INTER:                  -9.415
REMARK INTRA:                   0.129
REMARK UNBOUND:                -0.426
REMARK  Name = 
REMARK  6 active torsions:
REMARK  status: ('A' for Active; 'I' for Inactive)
REMARK    1  A    between atoms: C_2  and  C_3
REMARK    2  A    between atoms: C_6  and  O_7
REMARK    3  A    between atoms: O_7  and  C_8
REMARK    4  A    between atoms: C_8  and  C_9
REMARK    5  A    between atoms: C_13  and  N_14
REMARK    6  A    between atoms: C_17  and  O_18
REMARK                            x       y       z     vdW  Elec       q    Type
REMARK                         _______ _______ _______ _____ _____    ______ ____
ROOT
ATOM      1  C   UNL     1      47.196   8.385  12.210  0.00  0.00    +0.000 A 
ATOM      2  C   UNL     1      46.541   9.613  12.122  0.00  0.00    +0.000 A 
ATOM      3  C   UNL     1      45.212   9.680  11.713  0.00  0.00    +0.000 A 
ATOM      4  C   UNL     1      44.509   8.513  11.413  0.00  0.00    +0.000 A 
ATOM      5  C   UNL     1      45.110   7.258  11.500  0.00  0.00    +0.000 A 
ATOM      6  C   UNL     1      46.457   7.236  11.866  0.00  0.00    +0.000 A 
ENDROOT
BRANCH   5   7
ATOM      7  N   UNL     1      44.417   6.081  11.307  0.00  0.00    +0.000 N 
ATOM      8  C   UNL     1      45.109   4.878  10.858  0.00  0.00    +0.000 C 
ATOM      9  C   UNL     1      44.996   3.805  11.930  0.00  0.00    +0.000 C 
ATOM     10  C   UNL     1      43.546   3.587  12.364  0.00  0.00    +0.000 C 
ATOM     11  C   UNL     1      42.850   4.894  12.742  0.00  0.00    +0.000 C 
ATOM     12  C   UNL     1      43.000   5.954  11.654  0.00  0.00    +0.000 C 
BRANCH  10  13
ATOM     13  O   UNL     1      42.815   2.908  11.343  0.00  0.00    +0.000 OA
ATOM     14  H   UNL     1      41.979   2.581  11.716  0.00  0.00    +0.000 HD
ENDBRANCH  10  13
ENDBRANCH   5   7
BRANCH   1  15
ATOM     15  C   UNL     1      48.626   8.259  12.684  0.00  0.00    +0.000 C 
ATOM     16  C   UNL     1      49.650   7.365  11.998  0.00  0.00    +0.000 C 
ATOM     17  C   UNL     1      49.674   8.822  11.728  0.00  0.00    +0.000 C 
BRANCH  15  18
ATOM     18  O   UNL     1      48.803   8.095  14.109  0.00  0.00    +0.000 OA
BRANCH  18  22
ATOM     19  C   UNL     1      47.859   4.748  16.150  0.00  0.00    +0.000 A 
ATOM     20  N   UNL     1      47.489   4.755  14.857  0.00  0.00    +0.000 NA
ATOM     21  C   UNL     1      47.845   5.851  14.163  0.00  0.00    +0.000 A 
ATOM     22  C   UNL     1      48.529   6.912  14.702  0.00  0.00    +0.000 A 
ATOM     23  C   UNL     1      48.930   6.748  16.012  0.00  0.00    +0.000 A 
ATOM     24  N   UNL     1      48.604   5.682  16.769  0.00  0.00    +0.000 NA
BRANCH  19  26
ATOM     25  N   UNL     1      46.749   2.906  17.602  0.00  0.00    +0.000 NA
ATOM     26  C   UNL     1      47.264   3.746  16.972  0.00  0.00    +0.000 C 
ENDBRANCH  19  26
ENDBRANCH  18  22
ENDBRANCH  15  18
ENDBRANCH   1  15
TORSDOF 6
ENDMDL
MODEL 7
REMARK VINA RESULT:    -6.466      3.811      6.235
REMARK INTER + INTRA:          -8.971
REMARK INTER:                  -8.738
REMARK INTRA:                  -0.233
REMARK UNBOUND:                -0.426
REMARK  Name = 
REMARK  6 active torsions:
REMARK  status: ('A' for Active; 'I' for Inactive)
REMARK    1  A    between atoms: C_2  and  C_3
REMARK    2  A    between atoms: C_6  and  O_7
REMARK    3  A    between atoms: O_7  and  C_8
REMARK    4  A    between atoms: C_8  and  C_9
REMARK    5  A    between atoms: C_13  and  N_14
REMARK    6  A    between atoms: C_17  and  O_18
REMARK                            x       y       z     vdW  Elec       q    Type
REMARK                         _______ _______ _______ _____ _____    ______ ____
ROOT
ATOM      1  C   UNL     1      49.160   7.466  14.129  0.00  0.00    +0.000 A 
ATOM      2  C   UNL     1      50.430   8.044  14.100  0.00  0.00    +0.000 A 
ATOM      3  C   UNL     1      51.324   7.846  15.149  0.00  0.00    +0.000 A 
ATOM      4  C   UNL     1      50.969   7.042  16.233  0.00  0.00    +0.000 A 
ATOM      5  C   UNL     1      49.719   6.427  16.305  0.00  0.00    +0.000 A 
ATOM      6  C   UNL     1      48.834   6.689  15.258  0.00  0.00    +0.000 A 
ENDROOT
BRANCH   5   7
ATOM      7  N   UNL     1      49.375   5.548  17.311  0.00  0.00    +0.000 N 
ATOM      8  C   UNL     1      48.047   5.592  17.912  0.00  0.00    +0.000 C 
ATOM      9  C   UNL     1      47.331   4.278  17.645  0.00  0.00    +0.000 C 
ATOM     10  C   UNL     1      48.182   3.075  18.057  0.00  0.00    +0.000 C 
ATOM     11  C   UNL     1      49.590   3.129  17.464  0.00  0.00    +0.000 C 
ATOM     12  C   UNL     1      50.270   4.469  17.732  0.00  0.00    +0.000 C 
BRANCH  10  13
ATOM     13  O   UNL     1      48.243   2.970  19.480  0.00  0.00    +0.000 OA
ATOM     14  H   UNL     1      47.954   3.811  19.872  0.00  0.00    +0.000 HD
ENDBRANCH  10  13
ENDBRANCH   5   7
BRANCH   1  15
ATOM     15  C   UNL     1      48.170   7.624  12.998  0.00  0.00    +0.000 C 
ATOM     16  C   UNL     1      48.183   8.812  12.045  0.00  0.00    +0.000 C 
ATOM     17  C   UNL     1      48.770   7.526  11.598  0.00  0.00    +0.000 C 
BRANCH  15  18
ATOM     18  O   UNL     1      46.789   7.360  13.331  0.00  0.00    +0.000 OA
BRANCH  18  22
ATOM     19  C   UNL     1      44.734   4.127  12.074  0.00  0.00    +0.000 A 
ATOM     20  N   UNL     1      44.678   5.194  11.258  0.00  0.00    +0.000 NA
ATOM     21  C   UNL     1      45.402   6.258  11.653  0.00  0.00    +0.000 A 
ATOM     22  C   UNL     1      46.148   6.293  12.804  0.00  0.00    +0.000 A 
ATOM     23  C   UNL     1      46.196   5.109  13.510  0.00  0.00    +0.000 A 
ATOM     24  N   UNL     1      45.493   4.008  13.178  0.00  0.00    +0.000 NA
BRANCH  19  26
ATOM     25  N   UNL     1      43.023   2.232  11.609  0.00  0.00    +0.000 NA
ATOM     26  C   UNL     1      43.773   3.099  11.837  0.00  0.00    +0.000 C 
ENDBRANCH  19  26
ENDBRANCH  18  22
ENDBRANCH  15  18
ENDBRANCH   1  15
TORSDOF 6
ENDMDL
MODEL 8
REMARK VINA RESULT:    -6.081      3.098      8.032
REMARK INTER + INTRA:          -8.462
REMARK INTER:                  -7.971
REMARK INTRA:                  -0.490
REMARK UNBOUND:                -0.426
REMARK  Name = 
REMARK  6 active torsions:
REMARK  status: ('A' for Active; 'I' for Inactive)
REMARK    1  A    between atoms: C_2  and  C_3
REMARK    2  A    between atoms: C_6  and  O_7
REMARK    3  A    between atoms: O_7  and  C_8
REMARK    4  A    between atoms: C_8  and  C_9
REMARK    5  A    between atoms: C_13  and  N_14
REMARK    6  A    between atoms: C_17  and  O_18
REMARK                            x       y       z     vdW  Elec       q    Type
REMARK                         _______ _______ _______ _____ _____    ______ ____
ROOT
ATOM      1  C   UNL     1      47.533   7.872  12.429  0.00  0.00    +0.000 A 
ATOM      2  C   UNL     1      46.938   9.135  12.443  0.00  0.00    +0.000 A 
ATOM      3  C   UNL     1      45.561   9.272  12.289  0.00  0.00    +0.000 A 
ATOM      4  C   UNL     1      44.754   8.143  12.145  0.00  0.00    +0.000 A 
ATOM      5  C   UNL     1      45.294   6.857  12.139  0.00  0.00    +0.000 A 
ATOM      6  C   UNL     1      46.683   6.764  12.248  0.00  0.00    +0.000 A 
ENDROOT
BRANCH   5   7
ATOM      7  N   UNL     1      44.516   5.719  12.099  0.00  0.00    +0.000 N 
ATOM      8  C   UNL     1      43.475   5.568  11.088  0.00  0.00    +0.000 C 
ATOM      9  C   UNL     1      43.805   4.377  10.203  0.00  0.00    +0.000 C 
ATOM     10  C   UNL     1      44.088   3.119  11.026  0.00  0.00    +0.000 C 
ATOM     11  C   UNL     1      45.124   3.363  12.123  0.00  0.00    +0.000 C 
ATOM     12  C   UNL     1      44.772   4.577  12.978  0.00  0.00    +0.000 C 
BRANCH  10  13
ATOM     13  O   UNL     1      42.879   2.606  11.586  0.00  0.00    +0.000 OA
ATOM     14  H   UNL     1      43.096   2.055  12.357  0.00  0.00    +0.000 HD
ENDBRANCH  10  13
ENDBRANCH   5   7
BRANCH   1  15
ATOM     15  C   UNL     1      49.018   7.672  12.629  0.00  0.00    +0.000 C 
ATOM     16  C   UNL     1      49.987   7.455  11.475  0.00  0.00    +0.000 C 
ATOM     17  C   UNL     1      49.898   8.799  12.097  0.00  0.00    +0.000 C 
BRANCH  15  18
ATOM     18  O   UNL     1      49.391   6.749  13.678  0.00  0.00    +0.000 OA
BRANCH  18  22
ATOM     19  C   UNL     1      48.654   7.258  17.609  0.00  0.00    +0.000 A 
ATOM     20  N   UNL     1      49.026   8.368  16.948  0.00  0.00    +0.000 NA
ATOM     21  C   UNL     1      49.226   8.210  15.627  0.00  0.00    +0.000 A 
ATOM     22  C   UNL     1      49.081   7.015  14.967  0.00  0.00    +0.000 A 
ATOM     23  C   UNL     1      48.611   5.972  15.737  0.00  0.00    +0.000 A 
ATOM     24  N   UNL     1      48.396   6.056  17.064  0.00  0.00    +0.000 NA
BRANCH  19  26
ATOM     25  N   UNL     1      48.694   7.395  20.200  0.00  0.00    +0.000 NA
ATOM     26  C   UNL     1      48.705   7.324  19.033  0.00  0.00    +0.000 C 
ENDBRANCH  19  26
ENDBRANCH  18  22
ENDBRANCH  15  18
ENDBRANCH   1  15
TORSDOF 6
ENDMDL
MODEL 9
REMARK VINA RESULT:    -5.764      3.894      7.681
REMARK INTER + INTRA:          -8.043
REMARK INTER:                  -8.337
REMARK INTRA:                   0.295
REMARK UNBOUND:                -0.426
REMARK  Name = 
REMARK  6 active torsions:
REMARK  status: ('A' for Active; 'I' for Inactive)
REMARK    1  A    between atoms: C_2  and  C_3
REMARK    2  A    between atoms: C_6  and  O_7
REMARK    3  A    between atoms: O_7  and  C_8
REMARK    4  A    between atoms: C_8  and  C_9
REMARK    5  A    between atoms: C_13  and  N_14
REMARK    6  A    between atoms: C_17  and  O_18
REMARK                            x       y       z     vdW  Elec       q    Type
REMARK                         _______ _______ _______ _____ _____    ______ ____
ROOT
ATOM      1  C   UNL     1      48.230   6.794  14.241  0.00  0.00    +0.000 A 
ATOM      2  C   UNL     1      48.766   7.662  13.289  0.00  0.00    +0.000 A 
ATOM      3  C   UNL     1      48.335   7.617  11.966  0.00  0.00    +0.000 A 
ATOM      4  C   UNL     1      47.338   6.719  11.581  0.00  0.00    +0.000 A 
ATOM      5  C   UNL     1      46.758   5.841  12.495  0.00  0.00    +0.000 A 
ATOM      6  C   UNL     1      47.250   5.882  13.800  0.00  0.00    +0.000 A 
ENDROOT
BRANCH   5   7
ATOM      7  N   UNL     1      45.703   5.012  12.169  0.00  0.00    +0.000 N 
ATOM      8  C   UNL     1      44.945   4.332  13.214  0.00  0.00    +0.000 C 
ATOM      9  C   UNL     1      43.503   4.812  13.181  0.00  0.00    +0.000 C 
ATOM     10  C   UNL     1      42.902   4.705  11.778  0.00  0.00    +0.000 C 
ATOM     11  C   UNL     1      43.783   5.363  10.717  0.00  0.00    +0.000 C 
ATOM     12  C   UNL     1      45.227   4.874  10.792  0.00  0.00    +0.000 C 
BRANCH  10  13
ATOM     13  O   UNL     1      42.652   3.340  11.445  0.00  0.00    +0.000 OA
ATOM     14  H   UNL     1      43.418   2.803  11.710  0.00  0.00    +0.000 HD
ENDBRANCH  10  13
ENDBRANCH   5   7
BRANCH   1  15
ATOM     15  C   UNL     1      48.640   6.830  15.695  0.00  0.00    +0.000 C 
ATOM     16  C   UNL     1      50.082   7.030  16.145  0.00  0.00    +0.000 C 
ATOM     17  C   UNL     1      49.149   8.182  16.189  0.00  0.00    +0.000 C 
BRANCH  15  18
ATOM     18  O   UNL     1      48.072   5.799  16.534  0.00  0.00    +0.000 OA
BRANCH  18  22
ATOM     19  C   UNL     1      50.334   2.562  17.345  0.00  0.00    +0.000 A 
ATOM     20  N   UNL     1      50.668   3.677  18.017  0.00  0.00    +0.000 NA
ATOM     21  C   UNL     1      49.885   4.746  17.783  0.00  0.00    +0.000 A 
ATOM     22  C   UNL     1      48.818   4.740  16.920  0.00  0.00    +0.000 A 
ATOM     23  C   UNL     1      48.522   3.514  16.359  0.00  0.00    +0.000 A 
ATOM     24  N   UNL     1      49.266   2.406  16.543  0.00  0.00    +0.000 NA
BRANCH  19  26
ATOM     25  N   UNL     1      52.118   0.677  17.338  0.00  0.00    +0.000 NA
ATOM     26  C   UNL     1      51.295   1.507  17.354  0.00  0.00    +0.000 C 
ENDBRANCH  19  26
ENDBRANCH  18  22
ENDBRANCH  15  18
ENDBRANCH   1  15
TORSDOF 6
ENDMDL
