MODEL 1
REMARK VINA RESULT:    -7.649      0.000      0.000
REMARK INTER + INTRA:         -12.447
REMARK INTER:                 -11.003
REMARK INTRA:                  -1.444
REMARK UNBOUND:                -1.444
REMARK  Name = 
REMARK  8 active torsions:
REMARK  status: ('A' for Active; 'I' for Inactive)
REMARK    1  A    between atoms: N_1  and  C_2
REMARK    2  A    between atoms: C_2  and  C_3
REMARK    3  A    between atoms: C_3  and  N_4
REMARK    4  A    between atoms: C_3  and  C_17
REMARK    5  A    between atoms: C_5  and  C_7
REMARK    6  A    between atoms: C_20  and  C_21
REMARK    7  A    between atoms: C_21  and  N_22
REMARK    8  A    between atoms: C_23  and  C_25
REMARK                            x       y       z     vdW  Elec       q    Type
REMARK                         _______ _______ _______ _____ _____    ______ ____
ROOT
ATOM      1  C   UNL     1      48.338   7.074  14.193  0.00  0.00    +0.000 C 
ENDROOT
BRANCH   1   2
ATOM      2  C   UNL     1      47.317   6.293  13.356  0.00  0.00    +0.000 A 
ATOM      3  C   UNL     1      46.859   5.040  13.784  0.00  0.00    +0.000 A 
ATOM      4  C   UNL     1      45.919   4.323  13.030  0.00  0.00    +0.000 A 
ATOM      5  C   UNL     1      45.412   4.840  11.829  0.00  0.00    +0.000 A 
ATOM      6  C   UNL     1      45.848   6.103  11.411  0.00  0.00    +0.000 A 
ATOM      7  C   UNL     1      46.792   6.815  12.161  0.00  0.00    +0.000 A 
BRANCH   5   8
ATOM      8  C   UNL     1      44.412   4.061  11.013  0.00  0.00    +0.000 C 
BRANCH   8   9
ATOM      9  N   UNL     1      45.059   3.170  10.081  0.00  0.00    +0.000 N 
ATOM     10  C   UNL     1      45.352   3.571   8.798  0.00  0.00    +0.000 C 
ATOM     11  O   UNL     1      45.044   4.681   8.370  0.00  0.00    +0.000 OA
ATOM     12  H   UNL     1      45.412   2.289  10.420  0.00  0.00    +0.000 HD
BRANCH  10  13
ATOM     13  C   UNL     1      46.052   2.599   7.985  0.00  0.00    +0.000 A 
ATOM     14  C   UNL     1      46.742   2.709   6.787  0.00  0.00    +0.000 A 
ATOM     15  C   UNL     1      47.240   1.429   6.442  0.00  0.00    +0.000 A 
ATOM     16  C   UNL     1      46.851   0.558   7.431  0.00  0.00    +0.000 A 
ATOM     17  N   UNL     1      46.137   1.272   8.357  0.00  0.00    +0.000 N 
ATOM     18  H   UNL     1      45.722   0.897   9.203  0.00  0.00    +0.000 HD
ENDBRANCH  10  13
ENDBRANCH   8   9
ENDBRANCH   5   8
ENDBRANCH   1   2
BRANCH   1  19
ATOM     19  N   UNL     1      48.254   6.610  15.573  0.00  0.00    +0.000 N 
ATOM     20  C   UNL     1      49.333   6.276  16.344  0.00  0.00    +0.000 C 
ATOM     21  O   UNL     1      50.480   6.253  15.917  0.00  0.00    +0.000 OA
ATOM     22  H   UNL     1      47.338   6.654  15.996  0.00  0.00    +0.000 HD
BRANCH  20  23
ATOM     23  C   UNL     1      49.021   5.889  17.728  0.00  0.00    +0.000 A 
ATOM     24  C   UNL     1      49.274   4.599  18.173  0.00  0.00    +0.000 A 
ATOM     25  S   UNL     1      48.754   4.318  19.775  0.00  0.00    +0.000 S 
ATOM     26  C   UNL     1      48.216   5.924  19.943  0.00  0.00    +0.000 A 
ATOM     27  N   UNL     1      47.626   6.355  21.092  0.00  0.00    +0.000 NA
ATOM     28  C   UNL     1      47.285   7.601  21.083  0.00  0.00    +0.000 A 
ATOM     29  N   UNL     1      47.498   8.459  20.038  0.00  0.00    +0.000 N 
ATOM     30  C   UNL     1      48.113   8.078  18.871  0.00  0.00    +0.000 A 
ATOM     31  O   UNL     1      48.324   8.884  17.975  0.00  0.00    +0.000 OA
ATOM     32  C   UNL     1      48.461   6.670  18.805  0.00  0.00    +0.000 A 
ATOM     33  H   UNL     1      47.228   9.430  20.100  0.00  0.00    +0.000 HD
ENDBRANCH  20  23
ENDBRANCH   1  19
BRANCH   1  34
ATOM     34  C   UNL     1      48.133   8.618  14.078  0.00  0.00    +0.000 C 
BRANCH  34  35
ATOM     35  N   UNL     1      47.341   9.203  15.168  0.00  0.00    +0.000 NA
ATOM     36  H   UNL     1      47.781   8.970  16.057  0.00  0.00    +0.000 HD
ATOM     37  H   UNL     1      46.416   8.774  15.183  0.00  0.00    +0.000 HD
ENDBRANCH  34  35
ENDBRANCH   1  34
TORSDOF 8
ENDMDL
MODEL 2
REMARK VINA RESULT:    -7.355      1.343      2.158
REMARK INTER + INTRA:         -12.023
REMARK INTER:                 -11.043
REMARK INTRA:                  -0.980
REMARK UNBOUND:                -1.444
REMARK  Name = 
REMARK  8 active torsions:
REMARK  status: ('A' for Active; 'I' for Inactive)
REMARK    1  A    between atoms: N_1  and  C_2
REMARK    2  A    between atoms: C_2  and  C_3
REMARK    3  A    between atoms: C_3  and  N_4
REMARK    4  A    between atoms: C_3  and  C_17
REMARK    5  A    between atoms: C_5  and  C_7
REMARK    6  A    between atoms: C_20  and  C_21
REMARK    7  A    between atoms: C_21  and  N_22
REMARK    8  A    between atoms: C_23  and  C_25
REMARK                            x       y       z     vdW  Elec       q    Type
REMARK                         _______ _______ _______ _____ _____    ______ ____
ROOT
ATOM      1  C   UNL     1      48.090   7.670  13.725  0.00  0.00    +0.000 C 
ENDROOT
BRANCH   1   2
ATOM      2  C   UNL     1      47.130   6.703  13.021  0.00  0.00    +0.000 A 
ATOM      3  C   UNL     1      46.582   7.030  11.774  0.00  0.00    +0.000 A 
ATOM      4  C   UNL     1      45.712   6.148  11.118  0.00  0.00    +0.000 A 
ATOM      5  C   UNL     1      45.364   4.917  11.693  0.00  0.00    +0.000 A 
ATOM      6  C   UNL     1      45.929   4.575  12.927  0.00  0.00    +0.000 A 
ATOM      7  C   UNL     1      46.793   5.459  13.584  0.00  0.00    +0.000 A 
BRANCH   5   8
ATOM      8  C   UNL     1      44.416   3.976  10.993  0.00  0.00    +0.000 C 
BRANCH   8   9
ATOM      9  N   UNL     1      45.110   3.088  10.093  0.00  0.00    +0.000 N 
ATOM     10  C   UNL     1      45.279   3.407   8.766  0.00  0.00    +0.000 C 
ATOM     11  O   UNL     1      44.818   4.434   8.273  0.00  0.00    +0.000 OA
ATOM     12  H   UNL     1      45.584   2.285  10.477  0.00  0.00    +0.000 HD
BRANCH  10  13
ATOM     13  C   UNL     1      46.043   2.455   7.988  0.00  0.00    +0.000 A 
ATOM     14  C   UNL     1      46.865   2.601   6.881  0.00  0.00    +0.000 A 
ATOM     15  C   UNL     1      47.368   1.324   6.529  0.00  0.00    +0.000 A 
ATOM     16  C   UNL     1      46.850   0.420   7.423  0.00  0.00    +0.000 A 
ATOM     17  N   UNL     1      46.054   1.109   8.300  0.00  0.00    +0.000 N 
ATOM     18  H   UNL     1      45.538   0.708   9.074  0.00  0.00    +0.000 HD
ENDBRANCH  10  13
ENDBRANCH   8   9
ENDBRANCH   5   8
ENDBRANCH   1   2
BRANCH   1  19
ATOM     19  N   UNL     1      47.988   7.455  15.164  0.00  0.00    +0.000 N 
ATOM     20  C   UNL     1      49.006   6.993  15.952  0.00  0.00    +0.000 C 
ATOM     21  O   UNL     1      50.087   6.631  15.506  0.00  0.00    +0.000 OA
ATOM     22  H   UNL     1      47.136   7.782  15.598  0.00  0.00    +0.000 HD
BRANCH  20  23
ATOM     23  C   UNL     1      48.701   6.908  17.388  0.00  0.00    +0.000 A 
ATOM     24  C   UNL     1      48.348   8.045  18.101  0.00  0.00    +0.000 A 
ATOM     25  S   UNL     1      48.129   7.758  19.771  0.00  0.00    +0.000 S 
ATOM     26  C   UNL     1      48.451   6.097  19.587  0.00  0.00    +0.000 A 
ATOM     27  N   UNL     1      48.453   5.255  20.657  0.00  0.00    +0.000 NA
ATOM     28  C   UNL     1      48.696   4.021  20.366  0.00  0.00    +0.000 A 
ATOM     29  N   UNL     1      48.916   3.548  19.100  0.00  0.00    +0.000 N 
ATOM     30  C   UNL     1      48.895   4.353  17.987  0.00  0.00    +0.000 A 
ATOM     31  O   UNL     1      49.055   3.887  16.867  0.00  0.00    +0.000 OA
ATOM     32  C   UNL     1      48.689   5.762  18.267  0.00  0.00    +0.000 A 
ATOM     33  H   UNL     1      49.078   2.566  18.933  0.00  0.00    +0.000 HD
ENDBRANCH  20  23
ENDBRANCH   1  19
BRANCH   1  34
ATOM     34  C   UNL     1      47.818   9.157  13.332  0.00  0.00    +0.000 C 
BRANCH  34  35
ATOM     35  N   UNL     1      48.232  10.133  14.348  0.00  0.00    +0.000 NA
ATOM     36  H   UNL     1      47.790   9.894  15.234  0.00  0.00    +0.000 HD
ATOM     37  H   UNL     1      47.884  11.057  14.092  0.00  0.00    +0.000 HD
ENDBRANCH  34  35
ENDBRANCH   1  34
TORSDOF 8
ENDMDL
MODEL 3
REMARK VINA RESULT:    -7.310      2.881      4.553
REMARK INTER + INTRA:         -11.960
REMARK INTER:                 -10.726
REMARK INTRA:                  -1.233
REMARK UNBOUND:                -1.444
REMARK  Name = 
REMARK  8 active torsions:
REMARK  status: ('A' for Active; 'I' for Inactive)
REMARK    1  A    between atoms: N_1  and  C_2
REMARK    2  A    between atoms: C_2  and  C_3
REMARK    3  A    between atoms: C_3  and  N_4
REMARK    4  A    between atoms: C_3  and  C_17
REMARK    5  A    between atoms: C_5  and  C_7
REMARK    6  A    between atoms: C_20  and  C_21
REMARK    7  A    between atoms: C_21  and  N_22
REMARK    8  A    between atoms: C_23  and  C_25
REMARK                            x       y       z     vdW  Elec       q    Type
REMARK                         _______ _______ _______ _____ _____    ______ ____
ROOT
ATOM      1  C   UNL     1      47.135   5.109  15.080  0.00  0.00    +0.000 C 
ENDROOT
BRANCH   1   2
ATOM      2  C   UNL     1      46.282   4.840  13.835  0.00  0.00    +0.000 A 
ATOM      3  C   UNL     1      46.217   3.552  13.285  0.00  0.00    +0.000 A 
ATOM      4  C   UNL     1      45.432   3.294  12.153  0.00  0.00    +0.000 A 
ATOM      5  C   UNL     1      44.694   4.317  11.538  0.00  0.00    +0.000 A 
ATOM      6  C   UNL     1      44.737   5.598  12.098  0.00  0.00    +0.000 A 
ATOM      7  C   UNL     1      45.526   5.856  13.226  0.00  0.00    +0.000 A 
BRANCH   5   8
ATOM      8  C   UNL     1      43.862   4.040  10.311  0.00  0.00    +0.000 C 
BRANCH   8   9
ATOM      9  N   UNL     1      44.600   3.294   9.321  0.00  0.00    +0.000 N 
ATOM     10  C   UNL     1      45.500   3.914   8.486  0.00  0.00    +0.000 C 
ATOM     11  O   UNL     1      45.689   5.128   8.509  0.00  0.00    +0.000 OA
ATOM     12  H   UNL     1      44.544   2.287   9.334  0.00  0.00    +0.000 HD
BRANCH  10  13
ATOM     13  C   UNL     1      46.213   3.040   7.579  0.00  0.00    +0.000 A 
ATOM     14  C   UNL     1      46.722   3.234   6.303  0.00  0.00    +0.000 A 
ATOM     15  C   UNL     1      47.337   2.030   5.882  0.00  0.00    +0.000 A 
ATOM     16  C   UNL     1      47.198   1.121   6.902  0.00  0.00    +0.000 A 
ATOM     17  N   UNL     1      46.521   1.737   7.921  0.00  0.00    +0.000 N 
ATOM     18  H   UNL     1      46.271   1.316   8.808  0.00  0.00    +0.000 HD
ENDBRANCH  10  13
ENDBRANCH   8   9
ENDBRANCH   5   8
ENDBRANCH   1   2
BRANCH   1  19
ATOM     19  N   UNL     1      48.314   5.867  14.677  0.00  0.00    +0.000 N 
ATOM     20  C   UNL     1      48.953   6.783  15.466  0.00  0.00    +0.000 C 
ATOM     21  O   UNL     1      48.542   7.120  16.569  0.00  0.00    +0.000 OA
ATOM     22  H   UNL     1      48.729   5.598  13.796  0.00  0.00    +0.000 HD
BRANCH  20  23
ATOM     23  C   UNL     1      50.158   7.388  14.879  0.00  0.00    +0.000 A 
ATOM     24  C   UNL     1      51.366   7.355  15.561  0.00  0.00    +0.000 A 
ATOM     25  S   UNL     1      52.621   8.193  14.761  0.00  0.00    +0.000 S 
ATOM     26  C   UNL     1      51.603   8.587  13.455  0.00  0.00    +0.000 A 
ATOM     27  N   UNL     1      52.052   9.335  12.410  0.00  0.00    +0.000 NA
ATOM     28  C   UNL     1      51.176   9.540  11.483  0.00  0.00    +0.000 A 
ATOM     29  N   UNL     1      49.899   9.048  11.497  0.00  0.00    +0.000 N 
ATOM     30  C   UNL     1      49.410   8.266  12.515  0.00  0.00    +0.000 A 
ATOM     31  O   UNL     1      48.275   7.810  12.471  0.00  0.00    +0.000 OA
ATOM     32  C   UNL     1      50.336   8.058  13.612  0.00  0.00    +0.000 A 
ATOM     33  H   UNL     1      49.266   9.225  10.730  0.00  0.00    +0.000 HD
ENDBRANCH  20  23
ENDBRANCH   1  19
BRANCH   1  34
ATOM     34  C   UNL     1      47.512   3.791  15.830  0.00  0.00    +0.000 C 
BRANCH  34  35
ATOM     35  N   UNL     1      46.731   3.550  17.051  0.00  0.00    +0.000 NA
ATOM     36  H   UNL     1      46.026   2.840  16.856  0.00  0.00    +0.000 HD
ATOM     37  H   UNL     1      46.225   4.398  17.303  0.00  0.00    +0.000 HD
ENDBRANCH  34  35
ENDBRANCH   1  34
TORSDOF 8
ENDMDL
MODEL 4
REMARK VINA RESULT:    -6.923      4.987      9.379
REMARK INTER + INTRA:         -11.403
REMARK INTER:                 -10.585
REMARK INTRA:                  -0.818
REMARK UNBOUND:                -1.444
REMARK  Name = 
REMARK  8 active torsions:
REMARK  status: ('A' for Active; 'I' for Inactive)
REMARK    1  A    between atoms: N_1  and  C_2
REMARK    2  A    between atoms: C_2  and  C_3
REMARK    3  A    between atoms: C_3  and  N_4
REMARK    4  A    between atoms: C_3  and  C_17
REMARK    5  A    between atoms: C_5  and  C_7
REMARK    6  A    between atoms: C_20  and  C_21
REMARK    7  A    between atoms: C_21  and  N_22
REMARK    8  A    between atoms: C_23  and  C_25
REMARK                            x       y       z     vdW  Elec       q    Type
REMARK                         _______ _______ _______ _____ _____    ______ ____
ROOT
ATOM      1  C   UNL     1      47.579   4.210  17.351  0.00  0.00    +0.000 C 
ENDROOT
BRANCH   1   2
ATOM      2  C   UNL     1      49.035   3.740  17.453  0.00  0.00    +0.000 A 
ATOM      3  C   UNL     1      50.052   4.648  17.779  0.00  0.00    +0.000 A 
ATOM      4  C   UNL     1      51.385   4.227  17.885  0.00  0.00    +0.000 A 
ATOM      5  C   UNL     1      51.737   2.887  17.664  0.00  0.00    +0.000 A 
ATOM      6  C   UNL     1      50.722   1.972  17.362  0.00  0.00    +0.000 A 
ATOM      7  C   UNL     1      49.392   2.396  17.251  0.00  0.00    +0.000 A 
BRANCH   5   8
ATOM      8  C   UNL     1      53.174   2.439  17.763  0.00  0.00    +0.000 C 
BRANCH   8   9
ATOM      9  N   UNL     1      53.290   1.153  18.404  0.00  0.00    +0.000 N 
ATOM     10  C   UNL     1      53.893   0.091  17.770  0.00  0.00    +0.000 C 
ATOM     11  O   UNL     1      54.322   0.170  16.621  0.00  0.00    +0.000 OA
ATOM     12  H   UNL     1      53.038   1.074  19.377  0.00  0.00    +0.000 HD
BRANCH  10  13
ATOM     13  C   UNL     1      53.994  -1.125  18.548  0.00  0.00    +0.000 A 
ATOM     14  C   UNL     1      55.076  -1.913  18.911  0.00  0.00    +0.000 A 
ATOM     15  C   UNL     1      54.597  -2.994  19.690  0.00  0.00    +0.000 A 
ATOM     16  C   UNL     1      53.235  -2.853  19.793  0.00  0.00    +0.000 A 
ATOM     17  N   UNL     1      52.880  -1.723  19.104  0.00  0.00    +0.000 N 
ATOM     18  H   UNL     1      51.939  -1.361  19.003  0.00  0.00    +0.000 HD
ENDBRANCH  10  13
ENDBRANCH   8   9
ENDBRANCH   5   8
ENDBRANCH   1   2
BRANCH   1  19
ATOM     19  N   UNL     1      47.413   4.930  16.093  0.00  0.00    +0.000 N 
ATOM     20  C   UNL     1      47.253   4.332  14.874  0.00  0.00    +0.000 C 
ATOM     21  O   UNL     1      47.319   3.120  14.708  0.00  0.00    +0.000 OA
ATOM     22  H   UNL     1      47.301   5.931  16.172  0.00  0.00    +0.000 HD
BRANCH  20  23
ATOM     23  C   UNL     1      47.044   5.251  13.745  0.00  0.00    +0.000 A 
ATOM     24  C   UNL     1      48.061   6.098  13.330  0.00  0.00    +0.000 A 
ATOM     25  S   UNL     1      47.594   7.155  12.073  0.00  0.00    +0.000 S 
ATOM     26  C   UNL     1      46.031   6.483  12.011  0.00  0.00    +0.000 A 
ATOM     27  N   UNL     1      45.091   6.958  11.148  0.00  0.00    +0.000 NA
ATOM     28  C   UNL     1      43.958   6.341  11.198  0.00  0.00    +0.000 A 
ATOM     29  N   UNL     1      43.685   5.280  12.019  0.00  0.00    +0.000 N 
ATOM     30  C   UNL     1      44.608   4.749  12.886  0.00  0.00    +0.000 A 
ATOM     31  O   UNL     1      44.341   3.773  13.574  0.00  0.00    +0.000 OA
ATOM     32  C   UNL     1      45.881   5.446  12.913  0.00  0.00    +0.000 A 
ATOM     33  H   UNL     1      42.784   4.824  11.997  0.00  0.00    +0.000 HD
ENDBRANCH  20  23
ENDBRANCH   1  19
BRANCH   1  34
ATOM     34  C   UNL     1      47.152   5.071  18.583  0.00  0.00    +0.000 C 
BRANCH  34  35
ATOM     35  N   UNL     1      47.164   6.519  18.337  0.00  0.00    +0.000 NA
ATOM     36  H   UNL     1      46.740   6.992  19.134  0.00  0.00    +0.000 HD
ATOM     37  H   UNL     1      46.577   6.731  17.530  0.00  0.00    +0.000 HD
ENDBRANCH  34  35
ENDBRANCH   1  34
TORSDOF 8
ENDMDL
MODEL 5
REMARK VINA RESULT:    -6.918      3.896      8.685
REMARK INTER + INTRA:         -11.395
REMARK INTER:                 -10.293
REMARK INTRA:                  -1.102
REMARK UNBOUND:                -1.444
REMARK  Name = 
REMARK  8 active torsions:
REMARK  status: ('A' for Active; 'I' for Inactive)
REMARK    1  A    between atoms: N_1  and  C_2
REMARK    2  A    between atoms: C_2  and  C_3
REMARK    3  A    between atoms: C_3  and  N_4
REMARK    4  A    between atoms: C_3  and  C_17
REMARK    5  A    between atoms: C_5  and  C_7
REMARK    6  A    between atoms: C_20  and  C_21
REMARK    7  A    between atoms: C_21  and  N_22
REMARK    8  A    between atoms: C_23  and  C_25
REMARK                            x       y       z     vdW  Elec       q    Type
REMARK                         _______ _______ _______ _____ _____    ______ ____
ROOT
ATOM      1  C   UNL     1      47.908   7.086  13.723  0.00  0.00    +0.000 C 
ENDROOT
BRANCH   1   2
ATOM      2  C   UNL     1      48.261   6.277  14.976  0.00  0.00    +0.000 A 
ATOM      3  C   UNL     1      47.524   5.134  15.313  0.00  0.00    +0.000 A 
ATOM      4  C   UNL     1      47.845   4.382  16.452  0.00  0.00    +0.000 A 
ATOM      5  C   UNL     1      48.910   4.754  17.285  0.00  0.00    +0.000 A 
ATOM      6  C   UNL     1      49.665   5.881  16.939  0.00  0.00    +0.000 A 
ATOM      7  C   UNL     1      49.339   6.635  15.805  0.00  0.00    +0.000 A 
BRANCH   5   8
ATOM      8  C   UNL     1      49.245   3.952  18.518  0.00  0.00    +0.000 C 
BRANCH   8   9
ATOM      9  N   UNL     1      50.549   3.344  18.423  0.00  0.00    +0.000 N 
ATOM     10  C   UNL     1      50.775   2.268  17.596  0.00  0.00    +0.000 C 
ATOM     11  O   UNL     1      49.881   1.748  16.935  0.00  0.00    +0.000 OA
ATOM     12  H   UNL     1      51.328   3.798  18.875  0.00  0.00    +0.000 HD
BRANCH  10  13
ATOM     13  C   UNL     1      52.142   1.791  17.554  0.00  0.00    +0.000 A 
ATOM     14  C   UNL     1      53.357   2.425  17.766  0.00  0.00    +0.000 A 
ATOM     15  C   UNL     1      54.391   1.471  17.600  0.00  0.00    +0.000 A 
ATOM     16  C   UNL     1      53.796   0.272  17.290  0.00  0.00    +0.000 A 
ATOM     17  N   UNL     1      52.440   0.474  17.266  0.00  0.00    +0.000 N 
ATOM     18  H   UNL     1      51.739  -0.231  17.066  0.00  0.00    +0.000 HD
ENDBRANCH  10  13
ENDBRANCH   8   9
ENDBRANCH   5   8
ENDBRANCH   1   2
BRANCH   1  19
ATOM     19  N   UNL     1      47.233   6.203  12.778  0.00  0.00    +0.000 N 
ATOM     20  C   UNL     1      46.247   6.599  11.917  0.00  0.00    +0.000 C 
ATOM     21  O   UNL     1      45.772   7.728  11.916  0.00  0.00    +0.000 OA
ATOM     22  H   UNL     1      47.615   5.271  12.699  0.00  0.00    +0.000 HD
BRANCH  20  23
ATOM     23  C   UNL     1      45.746   5.555  11.011  0.00  0.00    +0.000 A 
ATOM     24  C   UNL     1      45.971   5.642   9.645  0.00  0.00    +0.000 A 
ATOM     25  S   UNL     1      45.229   4.388   8.753  0.00  0.00    +0.000 S 
ATOM     26  C   UNL     1      44.624   3.662  10.169  0.00  0.00    +0.000 A 
ATOM     27  N   UNL     1      43.859   2.537  10.114  0.00  0.00    +0.000 NA
ATOM     28  C   UNL     1      43.485   2.087  11.266  0.00  0.00    +0.000 A 
ATOM     29  N   UNL     1      43.824   2.649  12.468  0.00  0.00    +0.000 N 
ATOM     30  C   UNL     1      44.615   3.766  12.574  0.00  0.00    +0.000 A 
ATOM     31  O   UNL     1      44.931   4.214  13.668  0.00  0.00    +0.000 OA
ATOM     32  C   UNL     1      45.011   4.347  11.305  0.00  0.00    +0.000 A 
ATOM     33  H   UNL     1      43.519   2.237  13.338  0.00  0.00    +0.000 HD
ENDBRANCH  20  23
ENDBRANCH   1  19
BRANCH   1  34
ATOM     34  C   UNL     1      49.164   7.771  13.093  0.00  0.00    +0.000 C 
BRANCH  34  35
ATOM     35  N   UNL     1      49.917   6.913  12.168  0.00  0.00    +0.000 NA
ATOM     36  H   UNL     1      50.639   6.420  12.690  0.00  0.00    +0.000 HD
ATOM     37  H   UNL     1      50.399   7.494  11.484  0.00  0.00    +0.000 HD
ENDBRANCH  34  35
ENDBRANCH   1  34
TORSDOF 8
ENDMDL
MODEL 6
REMARK VINA RESULT:    -6.819      3.137      4.679
REMARK INTER + INTRA:         -11.253
REMARK INTER:                  -9.861
REMARK INTRA:                  -1.392
REMARK UNBOUND:                -1.444
REMARK  Name = 
REMARK  8 active torsions:
REMARK  status: ('A' for Active; 'I' for Inactive)
REMARK    1  A    between atoms: N_1  and  C_2
REMARK    2  A    between atoms: C_2  and  C_3
REMARK    3  A    between atoms: C_3  and  N_4
REMARK    4  A    between atoms: C_3  and  C_17
REMARK    5  A    between atoms: C_5  and  C_7
REMARK    6  A    between atoms: C_20  and  C_21
REMARK    7  A    between atoms: C_21  and  N_22
REMARK    8  A    between atoms: C_23  and  C_25
REMARK                            x       y       z     vdW  Elec       q    Type
REMARK                         _______ _______ _______ _____ _____    ______ ____
ROOT
ATOM      1  C   UNL     1      47.207   5.864  14.734  0.00  0.00    +0.000 C 
ENDROOT
BRANCH   1   2
ATOM      2  C   UNL     1      46.313   5.233  13.659  0.00  0.00    +0.000 A 
ATOM      3  C   UNL     1      46.374   3.857  13.405  0.00  0.00    +0.000 A 
ATOM      4  C   UNL     1      45.554   3.269  12.431  0.00  0.00    +0.000 A 
ATOM      5  C   UNL     1      44.653   4.043  11.685  0.00  0.00    +0.000 A 
ATOM      6  C   UNL     1      44.571   5.414  11.953  0.00  0.00    +0.000 A 
ATOM      7  C   UNL     1      45.395   6.001  12.921  0.00  0.00    +0.000 A 
BRANCH   5   8
ATOM      8  C   UNL     1      43.782   3.412  10.628  0.00  0.00    +0.000 C 
BRANCH   8   9
ATOM      9  N   UNL     1      44.566   2.790   9.590  0.00  0.00    +0.000 N 
ATOM     10  C   UNL     1      45.219   3.543   8.641  0.00  0.00    +0.000 C 
ATOM     11  O   UNL     1      45.136   4.768   8.604  0.00  0.00    +0.000 OA
ATOM     12  H   UNL     1      44.737   1.797   9.643  0.00  0.00    +0.000 HD
BRANCH  10  13
ATOM     13  C   UNL     1      46.017   2.795   7.692  0.00  0.00    +0.000 A 
ATOM     14  C   UNL     1      46.546   3.126   6.454  0.00  0.00    +0.000 A 
ATOM     15  C   UNL     1      47.255   2.004   5.959  0.00  0.00    +0.000 A 
ATOM     16  C   UNL     1      47.151   1.008   6.899  0.00  0.00    +0.000 A 
ATOM     17  N   UNL     1      46.405   1.493   7.940  0.00  0.00    +0.000 N 
ATOM     18  H   UNL     1      46.160   0.984   8.782  0.00  0.00    +0.000 HD
ENDBRANCH  10  13
ENDBRANCH   8   9
ENDBRANCH   5   8
ENDBRANCH   1   2
BRANCH   1  19
ATOM     19  N   UNL     1      48.310   6.552  14.071  0.00  0.00    +0.000 N 
ATOM     20  C   UNL     1      48.362   7.902  13.856  0.00  0.00    +0.000 C 
ATOM     21  O   UNL     1      47.440   8.660  14.127  0.00  0.00    +0.000 OA
ATOM     22  H   UNL     1      49.122   5.987  13.868  0.00  0.00    +0.000 HD
BRANCH  20  23
ATOM     23  C   UNL     1      49.596   8.390  13.221  0.00  0.00    +0.000 A 
ATOM     24  C   UNL     1      49.545   9.068  12.012  0.00  0.00    +0.000 A 
ATOM     25  S   UNL     1      51.084   9.465  11.390  0.00  0.00    +0.000 S 
ATOM     26  C   UNL     1      51.869   8.787  12.740  0.00  0.00    +0.000 A 
ATOM     27  N   UNL     1      53.226   8.768  12.833  0.00  0.00    +0.000 NA
ATOM     28  C   UNL     1      53.681   8.238  13.919  0.00  0.00    +0.000 A 
ATOM     29  N   UNL     1      52.901   7.744  14.930  0.00  0.00    +0.000 N 
ATOM     30  C   UNL     1      51.529   7.766  14.894  0.00  0.00    +0.000 A 
ATOM     31  O   UNL     1      50.865   7.352  15.835  0.00  0.00    +0.000 OA
ATOM     32  C   UNL     1      50.967   8.295  13.665  0.00  0.00    +0.000 A 
ATOM     33  H   UNL     1      53.316   7.361  15.767  0.00  0.00    +0.000 HD
ENDBRANCH  20  23
ENDBRANCH   1  19
BRANCH   1  34
ATOM     34  C   UNL     1      47.711   4.810  15.771  0.00  0.00    +0.000 C 
BRANCH  34  35
ATOM     35  N   UNL     1      49.040   5.100  16.326  0.00  0.00    +0.000 NA
ATOM     36  H   UNL     1      49.738   4.971  15.595  0.00  0.00    +0.000 HD
ATOM     37  H   UNL     1      49.257   4.422  17.057  0.00  0.00    +0.000 HD
ENDBRANCH  34  35
ENDBRANCH   1  34
TORSDOF 8
ENDMDL
MODEL 7
REMARK VINA RESULT:    -6.734      2.582      3.509
REMARK INTER + INTRA:         -11.130
REMARK INTER:                 -10.161
REMARK INTRA:                  -0.969
REMARK UNBOUND:                -1.444
REMARK  Name = 
REMARK  8 active torsions:
REMARK  status: ('A' for Active; 'I' for Inactive)
REMARK    1  A    between atoms: N_1  and  C_2
REMARK    2  A    between atoms: C_2  and  C_3
REMARK    3  A    between atoms: C_3  and  N_4
REMARK    4  A    between atoms: C_3  and  C_17
REMARK    5  A    between atoms: C_5  and  C_7
REMARK    6  A    between atoms: C_20  and  C_21
REMARK    7  A    between atoms: C_21  and  N_22
REMARK    8  A    between atoms: C_23  and  C_25
REMARK                            x       y       z     vdW  Elec       q    Type
REMARK                         _______ _______ _______ _____ _____    ______ ____
ROOT
ATOM      1  C   UNL     1      46.976   4.765  15.168  0.00  0.00    +0.000 C 
ENDROOT
BRANCH   1   2
ATOM      2  C   UNL     1      46.203   4.669  13.848  0.00  0.00    +0.000 A 
ATOM      3  C   UNL     1      45.706   5.825  13.231  0.00  0.00    +0.000 A 
ATOM      4  C   UNL     1      45.007   5.748  12.018  0.00  0.00    +0.000 A 
ATOM      5  C   UNL     1      44.783   4.513  11.392  0.00  0.00    +0.000 A 
ATOM      6  C   UNL     1      45.299   3.358  11.992  0.00  0.00    +0.000 A 
ATOM      7  C   UNL     1      45.992   3.436  13.206  0.00  0.00    +0.000 A 
BRANCH   5   8
ATOM      8  C   UNL     1      44.018   4.431  10.095  0.00  0.00    +0.000 C 
BRANCH   8   9
ATOM      9  N   UNL     1      44.717   3.644   9.109  0.00  0.00    +0.000 N 
ATOM     10  C   UNL     1      45.755   4.175   8.379  0.00  0.00    +0.000 C 
ATOM     11  O   UNL     1      46.110   5.345   8.497  0.00  0.00    +0.000 OA
ATOM     12  H   UNL     1      44.520   2.657   9.051  0.00  0.00    +0.000 HD
BRANCH  10  13
ATOM     13  C   UNL     1      46.407   3.260   7.466  0.00  0.00    +0.000 A 
ATOM     14  C   UNL     1      46.716   1.912   7.559  0.00  0.00    +0.000 A 
ATOM     15  C   UNL     1      47.355   1.518   6.358  0.00  0.00    +0.000 A 
ATOM     16  C   UNL     1      47.426   2.626   5.550  0.00  0.00    +0.000 A 
ATOM     17  N   UNL     1      46.852   3.671   6.224  0.00  0.00    +0.000 N 
ATOM     18  H   UNL     1      46.757   4.620   5.879  0.00  0.00    +0.000 HD
ENDBRANCH  10  13
ENDBRANCH   8   9
ENDBRANCH   5   8
ENDBRANCH   1   2
BRANCH   1  19
ATOM     19  N   UNL     1      47.880   5.908  15.092  0.00  0.00    +0.000 N 
ATOM     20  C   UNL     1      48.621   6.380  16.140  0.00  0.00    +0.000 C 
ATOM     21  O   UNL     1      48.532   5.936  17.277  0.00  0.00    +0.000 OA
ATOM     22  H   UNL     1      48.032   6.286  14.168  0.00  0.00    +0.000 HD
BRANCH  20  23
ATOM     23  C   UNL     1      49.510   7.508  15.823  0.00  0.00    +0.000 A 
ATOM     24  C   UNL     1      50.486   7.381  14.845  0.00  0.00    +0.000 A 
ATOM     25  S   UNL     1      51.479   8.763  14.692  0.00  0.00    +0.000 S 
ATOM     26  C   UNL     1      50.606   9.593  15.895  0.00  0.00    +0.000 A 
ATOM     27  N   UNL     1      50.956  10.851  16.280  0.00  0.00    +0.000 NA
ATOM     28  C   UNL     1      50.194  11.364  17.189  0.00  0.00    +0.000 A 
ATOM     29  N   UNL     1      49.102  10.741  17.731  0.00  0.00    +0.000 N 
ATOM     30  C   UNL     1      48.693   9.485  17.354  0.00  0.00    +0.000 A 
ATOM     31  O   UNL     1      47.687   8.978  17.831  0.00  0.00    +0.000 OA
ATOM     32  C   UNL     1      49.554   8.839  16.380  0.00  0.00    +0.000 A 
ATOM     33  H   UNL     1      48.531  11.204  18.423  0.00  0.00    +0.000 HD
ENDBRANCH  20  23
ENDBRANCH   1  19
BRANCH   1  34
ATOM     34  C   UNL     1      47.732   3.440  15.505  0.00  0.00    +0.000 C 
BRANCH  34  35
ATOM     35  N   UNL     1      47.530   2.964  16.880  0.00  0.00    +0.000 NA
ATOM     36  H   UNL     1      46.828   2.225  16.873  0.00  0.00    +0.000 HD
ATOM     37  H   UNL     1      47.148   3.720  17.447  0.00  0.00    +0.000 HD
ENDBRANCH  34  35
ENDBRANCH   1  34
TORSDOF 8
ENDMDL
MODEL 8
REMARK VINA RESULT:    -6.703      2.793      4.033
REMARK INTER + INTRA:         -11.086
REMARK INTER:                  -9.981
REMARK INTRA:                  -1.105
REMARK UNBOUND:                -1.444
REMARK  Name = 
REMARK  8 active torsions:
REMARK  status: ('A' for Active; 'I' for Inactive)
REMARK    1  A    between atoms: N_1  and  C_2
REMARK    2  A    between atoms: C_2  and  C_3
REMARK    3  A    between atoms: C_3  and  N_4
REMARK    4  A    between atoms: C_3  and  C_17
REMARK    5  A    between atoms: C_5  and  C_7
REMARK    6  A    between atoms: C_20  and  C_21
REMARK    7  A    between atoms: C_21  and  N_22
REMARK    8  A    between atoms: C_23  and  C_25
REMARK                            x       y       z     vdW  Elec       q    Type
REMARK                         _______ _______ _______ _____ _____    ______ ____
ROOT
ATOM      1  C   UNL     1      47.447   4.938  15.705  0.00  0.00    +0.000 C 
ENDROOT
BRANCH   1   2
ATOM      2  C   UNL     1      46.828   5.115  14.313  0.00  0.00    +0.000 A 
ATOM      3  C   UNL     1      47.309   6.103  13.444  0.00  0.00    +0.000 A 
ATOM      4  C   UNL     1      46.757   6.267  12.166  0.00  0.00    +0.000 A 
ATOM      5  C   UNL     1      45.706   5.449  11.725  0.00  0.00    +0.000 A 
ATOM      6  C   UNL     1      45.238   4.445  12.580  0.00  0.00    +0.000 A 
ATOM      7  C   UNL     1      45.787   4.287  13.859  0.00  0.00    +0.000 A 
BRANCH   5   8
ATOM      8  C   UNL     1      45.102   5.637  10.355  0.00  0.00    +0.000 C 
BRANCH   8   9
ATOM      9  N   UNL     1      45.773   4.836   9.361  0.00  0.00    +0.000 N 
ATOM     10  C   UNL     1      45.267   3.619   8.966  0.00  0.00    +0.000 C 
ATOM     11  O   UNL     1      44.253   3.137   9.463  0.00  0.00    +0.000 OA
ATOM     12  H   UNL     1      46.552   5.238   8.862  0.00  0.00    +0.000 HD
BRANCH  10  13
ATOM     13  C   UNL     1      46.007   2.946   7.920  0.00  0.00    +0.000 A 
ATOM     14  C   UNL     1      46.491   3.379   6.694  0.00  0.00    +0.000 A 
ATOM     15  C   UNL     1      47.155   2.293   6.070  0.00  0.00    +0.000 A 
ATOM     16  C   UNL     1      47.068   1.218   6.920  0.00  0.00    +0.000 A 
ATOM     17  N   UNL     1      46.376   1.620   8.032  0.00  0.00    +0.000 N 
ATOM     18  H   UNL     1      46.156   1.042   8.835  0.00  0.00    +0.000 HD
ENDBRANCH  10  13
ENDBRANCH   8   9
ENDBRANCH   5   8
ENDBRANCH   1   2
BRANCH   1  19
ATOM     19  N   UNL     1      48.813   5.448  15.671  0.00  0.00    +0.000 N 
ATOM     20  C   UNL     1      49.253   6.530  16.382  0.00  0.00    +0.000 C 
ATOM     21  O   UNL     1      48.514   7.234  17.057  0.00  0.00    +0.000 OA
ATOM     22  H   UNL     1      49.481   4.879  15.170  0.00  0.00    +0.000 HD
BRANCH  20  23
ATOM     23  C   UNL     1      50.686   6.833  16.242  0.00  0.00    +0.000 A 
ATOM     24  C   UNL     1      51.101   7.996  15.609  0.00  0.00    +0.000 A 
ATOM     25  S   UNL     1      52.797   8.120  15.460  0.00  0.00    +0.000 S 
ATOM     26  C   UNL     1      53.035   6.646  16.278  0.00  0.00    +0.000 A 
ATOM     27  N   UNL     1      54.283   6.140  16.475  0.00  0.00    +0.000 NA
ATOM     28  C   UNL     1      54.312   5.025  17.126  0.00  0.00    +0.000 A 
ATOM     29  N   UNL     1      53.208   4.380  17.616  0.00  0.00    +0.000 N 
ATOM     30  C   UNL     1      51.932   4.866  17.467  0.00  0.00    +0.000 A 
ATOM     31  O   UNL     1      50.973   4.284  17.956  0.00  0.00    +0.000 OA
ATOM     32  C   UNL     1      51.839   6.087  16.688  0.00  0.00    +0.000 A 
ATOM     33  H   UNL     1      53.297   3.521  18.138  0.00  0.00    +0.000 HD
ENDBRANCH  20  23
ENDBRANCH   1  19
BRANCH   1  34
ATOM     34  C   UNL     1      47.385   3.454  16.190  0.00  0.00    +0.000 C 
BRANCH  34  35
ATOM     35  N   UNL     1      46.676   3.266  17.464  0.00  0.00    +0.000 NA
ATOM     36  H   UNL     1      46.429   4.180  17.841  0.00  0.00    +0.000 HD
ATOM     37  H   UNL     1      47.305   2.834  18.140  0.00  0.00    +0.000 HD
ENDBRANCH  34  35
ENDBRANCH   1  34
TORSDOF 8
ENDMDL
MODEL 9
REMARK VINA RESULT:    -6.493      3.624      9.220
REMARK INTER + INTRA:         -10.784
REMARK INTER:                  -9.577
REMARK INTRA:                  -1.207
REMARK UNBOUND:                -1.444
REMARK  Name = 
REMARK  8 active torsions:
REMARK  status: ('A' for Active; 'I' for Inactive)
REMARK    1  A    between atoms: N_1  and  C_2
REMARK    2  A    between atoms: C_2  and  C_3
REMARK    3  A    between atoms: C_3  and  N_4
REMARK    4  A    between atoms: C_3  and  C_17
REMARK    5  A    between atoms: C_5  and  C_7
REMARK    6  A    between atoms: C_20  and  C_21
REMARK    7  A    between atoms: C_21  and  N_22
REMARK    8  A    between atoms: C_23  and  C_25
REMARK                            x       y       z     vdW  Elec       q    Type
REMARK                         _______ _______ _______ _____ _____    ______ ____
ROOT
ATOM      1  C   UNL     1      47.597   6.686  13.693  0.00  0.00    +0.000 C 
ENDROOT
BRANCH   1   2
ATOM      2  C   UNL     1      48.151   6.094  14.995  0.00  0.00    +0.000 A 
ATOM      3  C   UNL     1      47.601   4.921  15.531  0.00  0.00    +0.000 A 
ATOM      4  C   UNL     1      48.108   4.366  16.714  0.00  0.00    +0.000 A 
ATOM      5  C   UNL     1      49.175   4.971  17.395  0.00  0.00    +0.000 A 
ATOM      6  C   UNL     1      49.743   6.128  16.850  0.00  0.00    +0.000 A 
ATOM      7  C   UNL     1      49.232   6.685  15.671  0.00  0.00    +0.000 A 
BRANCH   5   8
ATOM      8  C   UNL     1      49.708   4.381  18.677  0.00  0.00    +0.000 C 
BRANCH   8   9
ATOM      9  N   UNL     1      50.643   3.312  18.426  0.00  0.00    +0.000 N 
ATOM     10  C   UNL     1      51.996   3.550  18.356  0.00  0.00    +0.000 C 
ATOM     11  O   UNL     1      52.471   4.678  18.461  0.00  0.00    +0.000 OA
ATOM     12  H   UNL     1      50.303   2.362  18.429  0.00  0.00    +0.000 HD
BRANCH  10  13
ATOM     13  C   UNL     1      52.825   2.380  18.156  0.00  0.00    +0.000 A 
ATOM     14  C   UNL     1      54.182   2.230  17.911  0.00  0.00    +0.000 A 
ATOM     15  C   UNL     1      54.464   0.846  17.802  0.00  0.00    +0.000 A 
ATOM     16  C   UNL     1      53.281   0.172  17.983  0.00  0.00    +0.000 A 
ATOM     17  N   UNL     1      52.299   1.104  18.197  0.00  0.00    +0.000 N 
ATOM     18  H   UNL     1      51.319   0.906  18.364  0.00  0.00    +0.000 HD
ENDBRANCH  10  13
ENDBRANCH   8   9
ENDBRANCH   5   8
ENDBRANCH   1   2
BRANCH   1  19
ATOM     19  N   UNL     1      46.749   5.685  13.055  0.00  0.00    +0.000 N 
ATOM     20  C   UNL     1      45.472   5.914  12.622  0.00  0.00    +0.000 C 
ATOM     21  O   UNL     1      44.881   6.970  12.808  0.00  0.00    +0.000 OA
ATOM     22  H   UNL     1      47.198   4.808  12.830  0.00  0.00    +0.000 HD
BRANCH  20  23
ATOM     23  C   UNL     1      44.822   4.777  11.953  0.00  0.00    +0.000 A 
ATOM     24  C   UNL     1      43.946   3.958  12.650  0.00  0.00    +0.000 A 
ATOM     25  S   UNL     1      43.372   2.638  11.730  0.00  0.00    +0.000 S 
ATOM     26  C   UNL     1      44.238   3.146  10.355  0.00  0.00    +0.000 A 
ATOM     27  N   UNL     1      44.207   2.432   9.197  0.00  0.00    +0.000 NA
ATOM     28  C   UNL     1      44.897   2.945   8.233  0.00  0.00    +0.000 A 
ATOM     29  N   UNL     1      45.598   4.118   8.316  0.00  0.00    +0.000 N 
ATOM     30  C   UNL     1      45.636   4.887   9.453  0.00  0.00    +0.000 A 
ATOM     31  O   UNL     1      46.240   5.951   9.476  0.00  0.00    +0.000 OA
ATOM     32  C   UNL     1      44.927   4.322  10.587  0.00  0.00    +0.000 A 
ATOM     33  H   UNL     1      46.101   4.480   7.519  0.00  0.00    +0.000 HD
ENDBRANCH  20  23
ENDBRANCH   1  19
BRANCH   1  34
ATOM     34  C   UNL     1      48.733   7.186  12.745  0.00  0.00    +0.000 C 
BRANCH  34  35
ATOM     35  N   UNL     1      48.281   7.520  11.388  0.00  0.00    +0.000 NA
ATOM     36  H   UNL     1      48.218   8.533  11.301  0.00  0.00    +0.000 HD
ATOM     37  H   UNL     1      47.338   7.158  11.246  0.00  0.00    +0.000 HD
ENDBRANCH  34  35
ENDBRANCH   1  34
TORSDOF 8
ENDMDL
