MODEL 1
REMARK VINA RESULT:    -7.951      0.000      0.000
REMARK INTER + INTRA:         -12.956
REMARK INTER:                 -11.669
REMARK INTRA:                  -1.286
REMARK UNBOUND:                -1.286
REMARK  Name = 
REMARK  9 active torsions:
REMARK  status: ('A' for Active; 'I' for Inactive)
REMARK    1  A    between atoms: C_1  and  O_2
REMARK    2  A    between atoms: O_2  and  C_3
REMARK    3  A    between atoms: C_5  and  C_6
REMARK    4  A    between atoms: C_6  and  N_7
REMARK    5  A    between atoms: C_8  and  C_10
REMARK    6  A    between atoms: C_22  and  C_23
REMARK    7  A    between atoms: C_23  and  N_24
REMARK    8  A    between atoms: C_25  and  C_27
REMARK    9  A    between atoms: C_29  and  C_30
REMARK                            x       y       z     vdW  Elec       q    Type
REMARK                         _______ _______ _______ _____ _____    ______ ____
ROOT
ATOM      1  C   UNL     1      46.070   6.261  12.494  0.00  0.00    +0.000 A 
ATOM      2  C   UNL     1      46.878   7.104  13.273  0.00  0.00    +0.000 A 
ATOM      3  C   UNL     1      46.713   8.495  13.248  0.00  0.00    +0.000 A 
ATOM      4  C   UNL     1      45.735   9.038  12.410  0.00  0.00    +0.000 A 
ATOM      5  C   UNL     1      44.895   8.201  11.667  0.00  0.00    +0.000 A 
ATOM      6  C   UNL     1      45.041   6.803  11.706  0.00  0.00    +0.000 A 
ENDROOT
BRANCH   1   8
ATOM      7  C   UNL     1      46.559   4.359  13.794  0.00  0.00    +0.000 C 
ATOM      8  O   UNL     1      46.205   4.896  12.518  0.00  0.00    +0.000 OA
ENDBRANCH   1   8
BRANCH   3   9
ATOM      9  C   UNL     1      47.614   9.379  14.075  0.00  0.00    +0.000 C 
BRANCH   9  10
ATOM     10  N   UNL     1      47.631   8.946  15.449  0.00  0.00    +0.000 N 
ATOM     11  C   UNL     1      48.744   8.380  16.014  0.00  0.00    +0.000 C 
ATOM     12  O   UNL     1      49.797   8.258  15.394  0.00  0.00    +0.000 OA
ATOM     13  H   UNL     1      46.730   8.834  15.902  0.00  0.00    +0.000 HD
BRANCH  11  14
ATOM     14  C   UNL     1      48.631   7.983  17.425  0.00  0.00    +0.000 A 
ATOM     15  C   UNL     1      48.454   8.954  18.401  0.00  0.00    +0.000 A 
ATOM     16  S   UNL     1      48.289   8.320  19.975  0.00  0.00    +0.000 S 
ATOM     17  C   UNL     1      48.498   6.726  19.415  0.00  0.00    +0.000 A 
ATOM     18  N   UNL     1      48.487   5.677  20.278  0.00  0.00    +0.000 NA
ATOM     19  C   UNL     1      48.684   4.527  19.723  0.00  0.00    +0.000 A 
ATOM     20  N   UNL     1      48.885   4.334  18.381  0.00  0.00    +0.000 N 
ATOM     21  C   UNL     1      48.880   5.362  17.470  0.00  0.00    +0.000 A 
ATOM     22  O   UNL     1      49.024   5.148  16.269  0.00  0.00    +0.000 OA
ATOM     23  C   UNL     1      48.674   6.679  18.045  0.00  0.00    +0.000 A 
ATOM     24  H   UNL     1      49.028   3.407  18.007  0.00  0.00    +0.000 HD
ENDBRANCH  11  14
ENDBRANCH   9  10
ENDBRANCH   3   9
BRANCH   6  25
ATOM     25  C   UNL     1      44.065   5.935  10.941  0.00  0.00    +0.000 C 
BRANCH  25  26
ATOM     26  N   UNL     1      44.763   4.970  10.121  0.00  0.00    +0.000 N 
ATOM     27  C   UNL     1      44.345   3.667   9.992  0.00  0.00    +0.000 C 
ATOM     28  O   UNL     1      43.371   3.215  10.581  0.00  0.00    +0.000 OA
ATOM     29  H   UNL     1      45.416   5.338   9.445  0.00  0.00    +0.000 HD
BRANCH  27  30
ATOM     30  C   UNL     1      45.146   2.862   9.084  0.00  0.00    +0.000 A 
ATOM     31  C   UNL     1      46.047   3.226   8.094  0.00  0.00    +0.000 A 
ATOM     32  C   UNL     1      46.576   2.046   7.515  0.00  0.00    +0.000 A 
ATOM     33  C   UNL     1      45.994   0.978   8.160  0.00  0.00    +0.000 A 
ATOM     34  N   UNL     1      45.137   1.479   9.109  0.00  0.00    +0.000 N 
ATOM     35  H   UNL     1      44.572   0.931   9.749  0.00  0.00    +0.000 HD
BRANCH  32  36
ATOM     36  C   UNL     1      47.543   1.971   6.462  0.00  0.00    +0.000 C 
ATOM     37  N   UNL     1      48.326   1.886   5.610  0.00  0.00    +0.000 NA
ENDBRANCH  32  36
ENDBRANCH  27  30
ENDBRANCH  25  26
ENDBRANCH   6  25
TORSDOF 8
ENDMDL
MODEL 2
REMARK VINA RESULT:    -7.851      1.291      1.980
REMARK INTER + INTRA:         -12.810
REMARK INTER:                 -11.786
REMARK INTRA:                  -1.024
REMARK UNBOUND:                -1.286
REMARK  Name = 
REMARK  9 active torsions:
REMARK  status: ('A' for Active; 'I' for Inactive)
REMARK    1  A    between atoms: C_1  and  O_2
REMARK    2  A    between atoms: O_2  and  C_3
REMARK    3  A    between atoms: C_5  and  C_6
REMARK    4  A    between atoms: C_6  and  N_7
REMARK    5  A    between atoms: C_8  and  C_10
REMARK    6  A    between atoms: C_22  and  C_23
REMARK    7  A    between atoms: C_23  and  N_24
REMARK    8  A    between atoms: C_25  and  C_27
REMARK    9  A    between atoms: C_29  and  C_30
REMARK                            x       y       z     vdW  Elec       q    Type
REMARK                         _______ _______ _______ _____ _____    ______ ____
ROOT
ATOM      1  C   UNL     1      44.875   8.178  11.757  0.00  0.00    +0.000 A 
ATOM      2  C   UNL     1      45.848   8.843  12.520  0.00  0.00    +0.000 A 
ATOM      3  C   UNL     1      46.803   8.133  13.257  0.00  0.00    +0.000 A 
ATOM      4  C   UNL     1      46.762   6.736  13.237  0.00  0.00    +0.000 A 
ATOM      5  C   UNL     1      45.825   6.067  12.441  0.00  0.00    +0.000 A 
ATOM      6  C   UNL     1      44.878   6.776  11.681  0.00  0.00    +0.000 A 
ENDROOT
BRANCH   1   8
ATOM      7  C   UNL     1      44.009  10.279  11.135  0.00  0.00    +0.000 C 
ATOM      8  O   UNL     1      43.941   8.856  11.015  0.00  0.00    +0.000 OA
ENDBRANCH   1   8
BRANCH   3   9
ATOM      9  C   UNL     1      47.820   8.874  14.090  0.00  0.00    +0.000 C 
BRANCH   9  10
ATOM     10  N   UNL     1      48.039   8.201  15.345  0.00  0.00    +0.000 N 
ATOM     11  C   UNL     1      49.146   7.422  15.563  0.00  0.00    +0.000 C 
ATOM     12  O   UNL     1      50.031   7.299  14.721  0.00  0.00    +0.000 OA
ATOM     13  H   UNL     1      47.236   8.109  15.958  0.00  0.00    +0.000 HD
BRANCH  11  14
ATOM     14  C   UNL     1      49.251   6.791  16.887  0.00  0.00    +0.000 A 
ATOM     15  C   UNL     1      49.831   7.489  17.938  0.00  0.00    +0.000 A 
ATOM     16  S   UNL     1      49.825   6.634  19.413  0.00  0.00    +0.000 S 
ATOM     17  C   UNL     1      49.091   5.280  18.689  0.00  0.00    +0.000 A 
ATOM     18  N   UNL     1      48.822   4.162  19.413  0.00  0.00    +0.000 NA
ATOM     19  C   UNL     1      48.289   3.201  18.734  0.00  0.00    +0.000 A 
ATOM     20  N   UNL     1      47.998   3.261  17.396  0.00  0.00    +0.000 N 
ATOM     21  C   UNL     1      48.230   4.378  16.631  0.00  0.00    +0.000 A 
ATOM     22  O   UNL     1      47.919   4.410  15.443  0.00  0.00    +0.000 OA
ATOM     23  C   UNL     1      48.840   5.484  17.345  0.00  0.00    +0.000 A 
ATOM     24  H   UNL     1      47.575   2.476  16.923  0.00  0.00    +0.000 HD
ENDBRANCH  11  14
ENDBRANCH   9  10
ENDBRANCH   3   9
BRANCH   6  25
ATOM     25  C   UNL     1      43.930   6.011  10.781  0.00  0.00    +0.000 C 
BRANCH  25  26
ATOM     26  N   UNL     1      44.643   5.028   9.995  0.00  0.00    +0.000 N 
ATOM     27  C   UNL     1      44.315   3.694  10.003  0.00  0.00    +0.000 C 
ATOM     28  O   UNL     1      43.417   3.229  10.696  0.00  0.00    +0.000 OA
ATOM     29  H   UNL     1      45.221   5.380   9.246  0.00  0.00    +0.000 HD
BRANCH  27  30
ATOM     30  C   UNL     1      45.112   2.870   9.109  0.00  0.00    +0.000 A 
ATOM     31  C   UNL     1      46.060   3.211   8.155  0.00  0.00    +0.000 A 
ATOM     32  C   UNL     1      46.559   2.018   7.574  0.00  0.00    +0.000 A 
ATOM     33  C   UNL     1      45.911   0.966   8.182  0.00  0.00    +0.000 A 
ATOM     34  N   UNL     1      45.044   1.488   9.110  0.00  0.00    +0.000 N 
ATOM     35  H   UNL     1      44.436   0.955   9.723  0.00  0.00    +0.000 HD
BRANCH  32  36
ATOM     36  C   UNL     1      47.556   1.919   6.553  0.00  0.00    +0.000 C 
ATOM     37  N   UNL     1      48.372   1.817   5.734  0.00  0.00    +0.000 NA
ENDBRANCH  32  36
ENDBRANCH  27  30
ENDBRANCH  25  26
ENDBRANCH   6  25
TORSDOF 8
ENDMDL
MODEL 3
REMARK VINA RESULT:    -7.443      2.780      3.663
REMARK INTER + INTRA:         -12.211
REMARK INTER:                 -10.960
REMARK INTRA:                  -1.251
REMARK UNBOUND:                -1.286
REMARK  Name = 
REMARK  9 active torsions:
REMARK  status: ('A' for Active; 'I' for Inactive)
REMARK    1  A    between atoms: C_1  and  O_2
REMARK    2  A    between atoms: O_2  and  C_3
REMARK    3  A    between atoms: C_5  and  C_6
REMARK    4  A    between atoms: C_6  and  N_7
REMARK    5  A    between atoms: C_8  and  C_10
REMARK    6  A    between atoms: C_22  and  C_23
REMARK    7  A    between atoms: C_23  and  N_24
REMARK    8  A    between atoms: C_25  and  C_27
REMARK    9  A    between atoms: C_29  and  C_30
REMARK                            x       y       z     vdW  Elec       q    Type
REMARK                         _______ _______ _______ _____ _____    ______ ____
ROOT
ATOM      1  C   UNL     1      46.580   6.135  13.270  0.00  0.00    +0.000 A 
ATOM      2  C   UNL     1      47.675   6.753  13.893  0.00  0.00    +0.000 A 
ATOM      3  C   UNL     1      48.239   6.226  15.061  0.00  0.00    +0.000 A 
ATOM      4  C   UNL     1      47.676   5.073  15.616  0.00  0.00    +0.000 A 
ATOM      5  C   UNL     1      46.614   4.425  14.975  0.00  0.00    +0.000 A 
ATOM      6  C   UNL     1      46.059   4.937  13.788  0.00  0.00    +0.000 A 
ENDROOT
BRANCH   1   8
ATOM      7  C   UNL     1      45.200   7.779  12.300  0.00  0.00    +0.000 C 
ATOM      8  O   UNL     1      46.024   6.626  12.116  0.00  0.00    +0.000 OA
ENDBRANCH   1   8
BRANCH   3   9
ATOM      9  C   UNL     1      49.399   6.927  15.725  0.00  0.00    +0.000 C 
BRANCH   9  10
ATOM     10  N   UNL     1      50.354   5.971  16.223  0.00  0.00    +0.000 N 
ATOM     11  C   UNL     1      50.656   5.881  17.558  0.00  0.00    +0.000 C 
ATOM     12  O   UNL     1      50.092   6.573  18.400  0.00  0.00    +0.000 OA
ATOM     13  H   UNL     1      50.980   5.554  15.542  0.00  0.00    +0.000 HD
BRANCH  11  14
ATOM     14  C   UNL     1      51.647   4.863  17.937  0.00  0.00    +0.000 A 
ATOM     15  C   UNL     1      52.841   5.252  18.528  0.00  0.00    +0.000 A 
ATOM     16  S   UNL     1      53.852   3.945  18.952  0.00  0.00    +0.000 S 
ATOM     17  C   UNL     1      52.750   2.815  18.316  0.00  0.00    +0.000 A 
ATOM     18  N   UNL     1      53.025   1.484  18.341  0.00  0.00    +0.000 NA
ATOM     19  C   UNL     1      52.116   0.741  17.801  0.00  0.00    +0.000 A 
ATOM     20  N   UNL     1      50.956   1.211  17.244  0.00  0.00    +0.000 N 
ATOM     21  C   UNL     1      50.626   2.545  17.218  0.00  0.00    +0.000 A 
ATOM     22  O   UNL     1      49.558   2.926  16.745  0.00  0.00    +0.000 OA
ATOM     23  C   UNL     1      51.621   3.424  17.803  0.00  0.00    +0.000 A 
ATOM     24  H   UNL     1      50.281   0.577  16.842  0.00  0.00    +0.000 HD
ENDBRANCH  11  14
ENDBRANCH   9  10
ENDBRANCH   3   9
BRANCH   6  25
ATOM     25  C   UNL     1      44.959   4.165  13.093  0.00  0.00    +0.000 C 
BRANCH  25  26
ATOM     26  N   UNL     1      45.330   3.848  11.731  0.00  0.00    +0.000 N 
ATOM     27  C   UNL     1      44.426   3.379  10.808  0.00  0.00    +0.000 C 
ATOM     28  O   UNL     1      43.249   3.165  11.071  0.00  0.00    +0.000 OA
ATOM     29  H   UNL     1      46.209   4.219  11.403  0.00  0.00    +0.000 HD
BRANCH  27  30
ATOM     30  C   UNL     1      44.976   3.167   9.478  0.00  0.00    +0.000 A 
ATOM     31  C   UNL     1      46.046   2.399   9.044  0.00  0.00    +0.000 A 
ATOM     32  C   UNL     1      46.144   2.524   7.636  0.00  0.00    +0.000 A 
ATOM     33  C   UNL     1      45.131   3.364   7.229  0.00  0.00    +0.000 A 
ATOM     34  N   UNL     1      44.428   3.743   8.346  0.00  0.00    +0.000 N 
ATOM     35  H   UNL     1      43.617   4.352   8.360  0.00  0.00    +0.000 HD
BRANCH  32  36
ATOM     36  C   UNL     1      47.107   1.891   6.788  0.00  0.00    +0.000 C 
ATOM     37  N   UNL     1      47.904   1.381   6.116  0.00  0.00    +0.000 NA
ENDBRANCH  32  36
ENDBRANCH  27  30
ENDBRANCH  25  26
ENDBRANCH   6  25
TORSDOF 8
ENDMDL
MODEL 4
REMARK VINA RESULT:    -6.893      3.804      5.108
REMARK INTER + INTRA:         -11.403
REMARK INTER:                 -10.091
REMARK INTRA:                  -1.313
REMARK UNBOUND:                -1.286
REMARK  Name = 
REMARK  9 active torsions:
REMARK  status: ('A' for Active; 'I' for Inactive)
REMARK    1  A    between atoms: C_1  and  O_2
REMARK    2  A    between atoms: O_2  and  C_3
REMARK    3  A    between atoms: C_5  and  C_6
REMARK    4  A    between atoms: C_6  and  N_7
REMARK    5  A    between atoms: C_8  and  C_10
REMARK    6  A    between atoms: C_22  and  C_23
REMARK    7  A    between atoms: C_23  and  N_24
REMARK    8  A    between atoms: C_25  and  C_27
REMARK    9  A    between atoms: C_29  and  C_30
REMARK                            x       y       z     vdW  Elec       q    Type
REMARK                         _______ _______ _______ _____ _____    ______ ____
ROOT
ATOM      1  C   UNL     1      45.591   8.083  12.299  0.00  0.00    +0.000 A 
ATOM      2  C   UNL     1      46.607   8.542  13.152  0.00  0.00    +0.000 A 
ATOM      3  C   UNL     1      47.496   7.652  13.768  0.00  0.00    +0.000 A 
ATOM      4  C   UNL     1      47.342   6.282  13.533  0.00  0.00    +0.000 A 
ATOM      5  C   UNL     1      46.362   5.821  12.647  0.00  0.00    +0.000 A 
ATOM      6  C   UNL     1      45.481   6.713  12.008  0.00  0.00    +0.000 A 
ENDROOT
BRANCH   1   8
ATOM      7  C   UNL     1      45.041  10.324  11.829  0.00  0.00    +0.000 C 
ATOM      8  O   UNL     1      44.721   8.940  11.674  0.00  0.00    +0.000 OA
ENDBRANCH   1   8
BRANCH   3   9
ATOM      9  C   UNL     1      48.562   8.171  14.701  0.00  0.00    +0.000 C 
BRANCH   9  10
ATOM     10  N   UNL     1      49.856   8.129  14.071  0.00  0.00    +0.000 N 
ATOM     11  C   UNL     1      50.545   9.273  13.761  0.00  0.00    +0.000 C 
ATOM     12  O   UNL     1      50.118  10.388  14.049  0.00  0.00    +0.000 OA
ATOM     13  H   UNL     1      50.122   7.253  13.633  0.00  0.00    +0.000 HD
BRANCH  11  14
ATOM     14  C   UNL     1      51.856   9.094  13.121  0.00  0.00    +0.000 A 
ATOM     15  C   UNL     1      52.987   9.655  13.699  0.00  0.00    +0.000 A 
ATOM     16  S   UNL     1      54.430   9.307  12.859  0.00  0.00    +0.000 S 
ATOM     17  C   UNL     1      53.588   8.434  11.664  0.00  0.00    +0.000 A 
ATOM     18  N   UNL     1      54.247   7.876  10.615  0.00  0.00    +0.000 NA
ATOM     19  C   UNL     1      53.485   7.265   9.769  0.00  0.00    +0.000 A 
ATOM     20  N   UNL     1      52.123   7.161   9.883  0.00  0.00    +0.000 N 
ATOM     21  C   UNL     1      51.419   7.688  10.938  0.00  0.00    +0.000 A 
ATOM     22  O   UNL     1      50.203   7.540  11.027  0.00  0.00    +0.000 OA
ATOM     23  C   UNL     1      52.229   8.395  11.912  0.00  0.00    +0.000 A 
ATOM     24  H   UNL     1      51.583   6.664   9.189  0.00  0.00    +0.000 HD
ENDBRANCH  11  14
ENDBRANCH   9  10
ENDBRANCH   3   9
BRANCH   6  25
ATOM     25  C   UNL     1      44.484   6.175  11.005  0.00  0.00    +0.000 C 
BRANCH  25  26
ATOM     26  N   UNL     1      45.082   5.150  10.178  0.00  0.00    +0.000 N 
ATOM     27  C   UNL     1      44.463   3.950   9.922  0.00  0.00    +0.000 C 
ATOM     28  O   UNL     1      43.375   3.643  10.395  0.00  0.00    +0.000 OA
ATOM     29  H   UNL     1      45.849   5.435   9.587  0.00  0.00    +0.000 HD
BRANCH  27  30
ATOM     30  C   UNL     1      45.198   3.070   9.027  0.00  0.00    +0.000 A 
ATOM     31  C   UNL     1      46.083   3.348   7.996  0.00  0.00    +0.000 A 
ATOM     32  C   UNL     1      46.539   2.121   7.455  0.00  0.00    +0.000 A 
ATOM     33  C   UNL     1      45.930   1.109   8.164  0.00  0.00    +0.000 A 
ATOM     34  N   UNL     1      45.127   1.691   9.115  0.00  0.00    +0.000 N 
ATOM     35  H   UNL     1      44.558   1.199   9.795  0.00  0.00    +0.000 HD
BRANCH  32  36
ATOM     36  C   UNL     1      47.468   1.955   6.379  0.00  0.00    +0.000 C 
ATOM     37  N   UNL     1      48.238   1.828   5.520  0.00  0.00    +0.000 NA
ENDBRANCH  32  36
ENDBRANCH  27  30
ENDBRANCH  25  26
ENDBRANCH   6  25
TORSDOF 8
ENDMDL
MODEL 5
REMARK VINA RESULT:    -6.890      5.298      9.655
REMARK INTER + INTRA:         -11.399
REMARK INTER:                 -10.380
REMARK INTRA:                  -1.019
REMARK UNBOUND:                -1.286
REMARK  Name = 
REMARK  9 active torsions:
REMARK  status: ('A' for Active; 'I' for Inactive)
REMARK    1  A    between atoms: C_1  and  O_2
REMARK    2  A    between atoms: O_2  and  C_3
REMARK    3  A    between atoms: C_5  and  C_6
REMARK    4  A    between atoms: C_6  and  N_7
REMARK    5  A    between atoms: C_8  and  C_10
REMARK    6  A    between atoms: C_22  and  C_23
REMARK    7  A    between atoms: C_23  and  N_24
REMARK    8  A    between atoms: C_25  and  C_27
REMARK    9  A    between atoms: C_29  and  C_30
REMARK                            x       y       z     vdW  Elec       q    Type
REMARK                         _______ _______ _______ _____ _____    ______ ____
ROOT
ATOM      1  C   UNL     1      50.703   4.575  17.802  0.00  0.00    +0.000 A 
ATOM      2  C   UNL     1      49.314   4.575  17.600  0.00  0.00    +0.000 A 
ATOM      3  C   UNL     1      48.635   3.412  17.215  0.00  0.00    +0.000 A 
ATOM      4  C   UNL     1      49.373   2.242  17.015  0.00  0.00    +0.000 A 
ATOM      5  C   UNL     1      50.750   2.222  17.260  0.00  0.00    +0.000 A 
ATOM      6  C   UNL     1      51.433   3.382  17.669  0.00  0.00    +0.000 A 
ENDROOT
BRANCH   1   8
ATOM      7  C   UNL     1      50.704   6.491  19.172  0.00  0.00    +0.000 C 
ATOM      8  O   UNL     1      51.383   5.700  18.195  0.00  0.00    +0.000 OA
ENDBRANCH   1   8
BRANCH   3   9
ATOM      9  C   UNL     1      47.145   3.448  16.978  0.00  0.00    +0.000 C 
BRANCH   9  10
ATOM     10  N   UNL     1      46.814   4.411  15.959  0.00  0.00    +0.000 N 
ATOM     11  C   UNL     1      46.945   4.125  14.625  0.00  0.00    +0.000 C 
ATOM     12  O   UNL     1      47.303   3.018  14.229  0.00  0.00    +0.000 OA
ATOM     13  H   UNL     1      46.733   5.378  16.255  0.00  0.00    +0.000 HD
BRANCH  11  14
ATOM     14  C   UNL     1      46.573   5.193  13.687  0.00  0.00    +0.000 A 
ATOM     15  C   UNL     1      47.483   6.199  13.393  0.00  0.00    +0.000 A 
ATOM     16  S   UNL     1      46.911   7.327  12.248  0.00  0.00    +0.000 S 
ATOM     17  C   UNL     1      45.407   6.538  12.141  0.00  0.00    +0.000 A 
ATOM     18  N   UNL     1      44.425   7.017  11.333  0.00  0.00    +0.000 NA
ATOM     19  C   UNL     1      43.327   6.338  11.367  0.00  0.00    +0.000 A 
ATOM     20  N   UNL     1      43.125   5.221  12.136  0.00  0.00    +0.000 N 
ATOM     21  C   UNL     1      44.097   4.689  12.949  0.00  0.00    +0.000 A 
ATOM     22  O   UNL     1      43.894   3.663  13.593  0.00  0.00    +0.000 OA
ATOM     23  C   UNL     1      45.349   5.422  12.954  0.00  0.00    +0.000 A 
ATOM     24  H   UNL     1      42.243   4.730  12.114  0.00  0.00    +0.000 HD
ENDBRANCH  11  14
ENDBRANCH   9  10
ENDBRANCH   3   9
BRANCH   6  25
ATOM     25  C   UNL     1      52.909   3.296  17.990  0.00  0.00    +0.000 C 
BRANCH  25  26
ATOM     26  N   UNL     1      53.451   2.013  17.598  0.00  0.00    +0.000 N 
ATOM     27  C   UNL     1      54.088   1.177  18.484  0.00  0.00    +0.000 C 
ATOM     28  O   UNL     1      54.274   1.463  19.660  0.00  0.00    +0.000 OA
ATOM     29  H   UNL     1      53.127   1.634  16.721  0.00  0.00    +0.000 HD
BRANCH  27  30
ATOM     30  C   UNL     1      54.518  -0.091  17.914  0.00  0.00    +0.000 A 
ATOM     31  C   UNL     1      54.666  -0.497  16.596  0.00  0.00    +0.000 A 
ATOM     32  C   UNL     1      55.138  -1.832  16.590  0.00  0.00    +0.000 A 
ATOM     33  C   UNL     1      55.275  -2.224  17.904  0.00  0.00    +0.000 A 
ATOM     34  N   UNL     1      54.904  -1.165  18.696  0.00  0.00    +0.000 N 
ATOM     35  H   UNL     1      54.909  -1.150  19.710  0.00  0.00    +0.000 HD
BRANCH  32  36
ATOM     36  C   UNL     1      55.431  -2.629  15.438  0.00  0.00    +0.000 C 
ATOM     37  N   UNL     1      55.647  -3.286  14.506  0.00  0.00    +0.000 NA
ENDBRANCH  32  36
ENDBRANCH  27  30
ENDBRANCH  25  26
ENDBRANCH   6  25
TORSDOF 8
ENDMDL
MODEL 6
REMARK VINA RESULT:    -6.759      3.617      8.754
REMARK INTER + INTRA:         -11.207
REMARK INTER:                  -9.828
REMARK INTRA:                  -1.379
REMARK UNBOUND:                -1.286
REMARK  Name = 
REMARK  9 active torsions:
REMARK  status: ('A' for Active; 'I' for Inactive)
REMARK    1  A    between atoms: C_1  and  O_2
REMARK    2  A    between atoms: O_2  and  C_3
REMARK    3  A    between atoms: C_5  and  C_6
REMARK    4  A    between atoms: C_6  and  N_7
REMARK    5  A    between atoms: C_8  and  C_10
REMARK    6  A    between atoms: C_22  and  C_23
REMARK    7  A    between atoms: C_23  and  N_24
REMARK    8  A    between atoms: C_25  and  C_27
REMARK    9  A    between atoms: C_29  and  C_30
REMARK                            x       y       z     vdW  Elec       q    Type
REMARK                         _______ _______ _______ _____ _____    ______ ____
ROOT
ATOM      1  C   UNL     1      48.615   6.247  15.514  0.00  0.00    +0.000 A 
ATOM      2  C   UNL     1      48.371   6.522  14.160  0.00  0.00    +0.000 A 
ATOM      3  C   UNL     1      48.467   7.825  13.655  0.00  0.00    +0.000 A 
ATOM      4  C   UNL     1      48.795   8.861  14.534  0.00  0.00    +0.000 A 
ATOM      5  C   UNL     1      49.086   8.587  15.875  0.00  0.00    +0.000 A 
ATOM      6  C   UNL     1      49.013   7.277  16.382  0.00  0.00    +0.000 A 
ENDROOT
BRANCH   1   8
ATOM      7  C   UNL     1      47.272   4.342  15.856  0.00  0.00    +0.000 C 
ATOM      8  O   UNL     1      48.542   4.975  16.024  0.00  0.00    +0.000 OA
ENDBRANCH   1   8
BRANCH   3   9
ATOM      9  C   UNL     1      48.172   8.097  12.200  0.00  0.00    +0.000 C 
BRANCH   9  10
ATOM     10  N   UNL     1      47.498   6.975  11.599  0.00  0.00    +0.000 N 
ATOM     11  C   UNL     1      46.139   6.962  11.416  0.00  0.00    +0.000 C 
ATOM     12  O   UNL     1      45.435   7.924  11.710  0.00  0.00    +0.000 OA
ATOM     13  H   UNL     1      48.015   6.103  11.555  0.00  0.00    +0.000 HD
BRANCH  11  14
ATOM     14  C   UNL     1      45.575   5.758  10.790  0.00  0.00    +0.000 A 
ATOM     15  C   UNL     1      45.766   5.534   9.433  0.00  0.00    +0.000 A 
ATOM     16  S   UNL     1      45.093   4.069   8.880  0.00  0.00    +0.000 S 
ATOM     17  C   UNL     1      44.478   3.704  10.424  0.00  0.00    +0.000 A 
ATOM     18  N   UNL     1      43.761   2.570  10.639  0.00  0.00    +0.000 NA
ATOM     19  C   UNL     1      43.332   2.430  11.850  0.00  0.00    +0.000 A 
ATOM     20  N   UNL     1      43.562   3.323  12.864  0.00  0.00    +0.000 N 
ATOM     21  C   UNL     1      44.301   4.469  12.699  0.00  0.00    +0.000 A 
ATOM     22  O   UNL     1      44.520   5.226  13.642  0.00  0.00    +0.000 OA
ATOM     23  C   UNL     1      44.797   4.678  11.351  0.00  0.00    +0.000 A 
ATOM     24  H   UNL     1      43.204   3.153  13.793  0.00  0.00    +0.000 HD
ENDBRANCH  11  14
ENDBRANCH   9  10
ENDBRANCH   3   9
BRANCH   6  25
ATOM     25  C   UNL     1      49.405   7.019  17.821  0.00  0.00    +0.000 C 
BRANCH  25  26
ATOM     26  N   UNL     1      50.410   5.981  17.906  0.00  0.00    +0.000 N 
ATOM     27  C   UNL     1      50.312   4.925  18.780  0.00  0.00    +0.000 C 
ATOM     28  O   UNL     1      49.387   4.796  19.573  0.00  0.00    +0.000 OA
ATOM     29  H   UNL     1      51.055   5.912  17.133  0.00  0.00    +0.000 HD
BRANCH  27  30
ATOM     30  C   UNL     1      51.393   3.957  18.682  0.00  0.00    +0.000 A 
ATOM     31  C   UNL     1      51.615   2.925  17.782  0.00  0.00    +0.000 A 
ATOM     32  C   UNL     1      52.838   2.294  18.119  0.00  0.00    +0.000 A 
ATOM     33  C   UNL     1      53.348   2.951  19.218  0.00  0.00    +0.000 A 
ATOM     34  N   UNL     1      52.472   3.956  19.547  0.00  0.00    +0.000 N 
ATOM     35  H   UNL     1      52.584   4.617  20.308  0.00  0.00    +0.000 HD
BRANCH  32  36
ATOM     36  C   UNL     1      53.443   1.187  17.443  0.00  0.00    +0.000 C 
ATOM     37  N   UNL     1      53.926   0.299  16.874  0.00  0.00    +0.000 NA
ENDBRANCH  32  36
ENDBRANCH  27  30
ENDBRANCH  25  26
ENDBRANCH   6  25
TORSDOF 8
ENDMDL
MODEL 7
REMARK VINA RESULT:    -6.691      3.676      9.065
REMARK INTER + INTRA:         -11.107
REMARK INTER:                  -9.899
REMARK INTRA:                  -1.208
REMARK UNBOUND:                -1.286
REMARK  Name = 
REMARK  9 active torsions:
REMARK  status: ('A' for Active; 'I' for Inactive)
REMARK    1  A    between atoms: C_1  and  O_2
REMARK    2  A    between atoms: O_2  and  C_3
REMARK    3  A    between atoms: C_5  and  C_6
REMARK    4  A    between atoms: C_6  and  N_7
REMARK    5  A    between atoms: C_8  and  C_10
REMARK    6  A    between atoms: C_22  and  C_23
REMARK    7  A    between atoms: C_23  and  N_24
REMARK    8  A    between atoms: C_25  and  C_27
REMARK    9  A    between atoms: C_29  and  C_30
REMARK                            x       y       z     vdW  Elec       q    Type
REMARK                         _______ _______ _______ _____ _____    ______ ____
ROOT
ATOM      1  C   UNL     1      48.672   6.198  15.840  0.00  0.00    +0.000 A 
ATOM      2  C   UNL     1      47.916   6.376  14.672  0.00  0.00    +0.000 A 
ATOM      3  C   UNL     1      48.230   7.382  13.749  0.00  0.00    +0.000 A 
ATOM      4  C   UNL     1      49.309   8.228  14.023  0.00  0.00    +0.000 A 
ATOM      5  C   UNL     1      50.096   8.025  15.161  0.00  0.00    +0.000 A 
ATOM      6  C   UNL     1      49.799   7.002  16.079  0.00  0.00    +0.000 A 
ENDROOT
BRANCH   1   8
ATOM      7  C   UNL     1      47.548   4.168  16.246  0.00  0.00    +0.000 C 
ATOM      8  O   UNL     1      48.390   5.208  16.747  0.00  0.00    +0.000 OA
ENDBRANCH   1   8
BRANCH   3   9
ATOM      9  C   UNL     1      47.382   7.569  12.515  0.00  0.00    +0.000 C 
BRANCH   9  10
ATOM     10  N   UNL     1      46.713   6.343  12.165  0.00  0.00    +0.000 N 
ATOM     11  C   UNL     1      45.390   6.319  11.806  0.00  0.00    +0.000 C 
ATOM     12  O   UNL     1      44.722   7.345  11.716  0.00  0.00    +0.000 OA
ATOM     13  H   UNL     1      47.170   5.480  12.441  0.00  0.00    +0.000 HD
BRANCH  11  14
ATOM     14  C   UNL     1      44.827   5.003  11.471  0.00  0.00    +0.000 A 
ATOM     15  C   UNL     1      44.085   4.310  12.419  0.00  0.00    +0.000 A 
ATOM     16  S   UNL     1      43.462   2.828  11.850  0.00  0.00    +0.000 S 
ATOM     17  C   UNL     1      44.203   3.036  10.333  0.00  0.00    +0.000 A 
ATOM     18  N   UNL     1      44.081   2.091   9.363  0.00  0.00    +0.000 NA
ATOM     19  C   UNL     1      44.715   2.363   8.270  0.00  0.00    +0.000 A 
ATOM     20  N   UNL     1      45.456   3.497   8.061  0.00  0.00    +0.000 N 
ATOM     21  C   UNL     1      45.587   4.488   9.004  0.00  0.00    +0.000 A 
ATOM     22  O   UNL     1      46.226   5.510   8.767  0.00  0.00    +0.000 OA
ATOM     23  C   UNL     1      44.901   4.225  10.256  0.00  0.00    +0.000 A 
ATOM     24  H   UNL     1      45.924   3.654   7.181  0.00  0.00    +0.000 HD
ENDBRANCH  11  14
ENDBRANCH   9  10
ENDBRANCH   3   9
BRANCH   6  25
ATOM     25  C   UNL     1      50.719   6.777  17.259  0.00  0.00    +0.000 C 
BRANCH  25  26
ATOM     26  N   UNL     1      51.293   5.449  17.222  0.00  0.00    +0.000 N 
ATOM     27  C   UNL     1      51.158   4.555  18.258  0.00  0.00    +0.000 C 
ATOM     28  O   UNL     1      50.571   4.820  19.299  0.00  0.00    +0.000 OA
ATOM     29  H   UNL     1      51.576   5.103  16.317  0.00  0.00    +0.000 HD
BRANCH  27  30
ATOM     30  C   UNL     1      51.760   3.254  18.014  0.00  0.00    +0.000 A 
ATOM     31  C   UNL     1      53.087   2.850  17.994  0.00  0.00    +0.000 A 
ATOM     32  C   UNL     1      53.127   1.459  17.729  0.00  0.00    +0.000 A 
ATOM     33  C   UNL     1      51.825   1.030  17.593  0.00  0.00    +0.000 A 
ATOM     34  N   UNL     1      51.006   2.119  17.772  0.00  0.00    +0.000 N 
ATOM     35  H   UNL     1      49.993   2.112  17.741  0.00  0.00    +0.000 HD
BRANCH  32  36
ATOM     36  C   UNL     1      54.298   0.642  17.629  0.00  0.00    +0.000 C 
ATOM     37  N   UNL     1      55.261  -0.001  17.551  0.00  0.00    +0.000 NA
ENDBRANCH  32  36
ENDBRANCH  27  30
ENDBRANCH  25  26
ENDBRANCH   6  25
TORSDOF 8
ENDMDL
MODEL 8
REMARK VINA RESULT:    -6.661      5.583      9.918
REMARK INTER + INTRA:         -11.063
REMARK INTER:                  -9.821
REMARK INTRA:                  -1.242
REMARK UNBOUND:                -1.286
REMARK  Name = 
REMARK  9 active torsions:
REMARK  status: ('A' for Active; 'I' for Inactive)
REMARK    1  A    between atoms: C_1  and  O_2
REMARK    2  A    between atoms: O_2  and  C_3
REMARK    3  A    between atoms: C_5  and  C_6
REMARK    4  A    between atoms: C_6  and  N_7
REMARK    5  A    between atoms: C_8  and  C_10
REMARK    6  A    between atoms: C_22  and  C_23
REMARK    7  A    between atoms: C_23  and  N_24
REMARK    8  A    between atoms: C_25  and  C_27
REMARK    9  A    between atoms: C_29  and  C_30
REMARK                            x       y       z     vdW  Elec       q    Type
REMARK                         _______ _______ _______ _____ _____    ______ ____
ROOT
ATOM      1  C   UNL     1      50.890   3.949  18.087  0.00  0.00    +0.000 A 
ATOM      2  C   UNL     1      49.534   4.227  17.857  0.00  0.00    +0.000 A 
ATOM      3  C   UNL     1      48.706   3.310  17.197  0.00  0.00    +0.000 A 
ATOM      4  C   UNL     1      49.261   2.109  16.748  0.00  0.00    +0.000 A 
ATOM      5  C   UNL     1      50.601   1.805  17.016  0.00  0.00    +0.000 A 
ATOM      6  C   UNL     1      51.431   2.712  17.698  0.00  0.00    +0.000 A 
ENDROOT
BRANCH   1   8
ATOM      7  C   UNL     1      51.182   5.326  19.976  0.00  0.00    +0.000 C 
ATOM      8  O   UNL     1      51.713   4.827  18.746  0.00  0.00    +0.000 OA
ENDBRANCH   1   8
BRANCH   3   9
ATOM      9  C   UNL     1      47.258   3.647  16.939  0.00  0.00    +0.000 C 
BRANCH   9  10
ATOM     10  N   UNL     1      47.142   4.643  15.906  0.00  0.00    +0.000 N 
ATOM     11  C   UNL     1      47.149   4.309  14.576  0.00  0.00    +0.000 C 
ATOM     12  O   UNL     1      47.204   3.141  14.200  0.00  0.00    +0.000 OA
ATOM     13  H   UNL     1      47.317   5.605  16.178  0.00  0.00    +0.000 HD
BRANCH  11  14
ATOM     14  C   UNL     1      47.023   5.419  13.621  0.00  0.00    +0.000 A 
ATOM     15  C   UNL     1      46.001   5.406  12.681  0.00  0.00    +0.000 A 
ATOM     16  S   UNL     1      45.967   6.792  11.688  0.00  0.00    +0.000 S 
ATOM     17  C   UNL     1      47.347   7.437  12.447  0.00  0.00    +0.000 A 
ATOM     18  N   UNL     1      47.871   8.626  12.047  0.00  0.00    +0.000 NA
ATOM     19  C   UNL     1      48.932   8.985  12.689  0.00  0.00    +0.000 A 
ATOM     20  N   UNL     1      49.513   8.262  13.698  0.00  0.00    +0.000 N 
ATOM     21  C   UNL     1      49.005   7.069  14.151  0.00  0.00    +0.000 A 
ATOM     22  O   UNL     1      49.530   6.469  15.086  0.00  0.00    +0.000 OA
ATOM     23  C   UNL     1      47.817   6.615  13.453  0.00  0.00    +0.000 A 
ATOM     24  H   UNL     1      50.341   8.601  14.167  0.00  0.00    +0.000 HD
ENDBRANCH  11  14
ENDBRANCH   9  10
ENDBRANCH   3   9
BRANCH   6  25
ATOM     25  C   UNL     1      52.853   2.310  18.026  0.00  0.00    +0.000 C 
BRANCH  25  26
ATOM     26  N   UNL     1      52.964   0.876  18.177  0.00  0.00    +0.000 N 
ATOM     27  C   UNL     1      54.170   0.241  18.354  0.00  0.00    +0.000 C 
ATOM     28  O   UNL     1      55.243   0.833  18.367  0.00  0.00    +0.000 OA
ATOM     29  H   UNL     1      52.117   0.378  18.406  0.00  0.00    +0.000 HD
BRANCH  27  30
ATOM     30  C   UNL     1      54.074  -1.198  18.540  0.00  0.00    +0.000 A 
ATOM     31  C   UNL     1      54.878  -2.233  18.084  0.00  0.00    +0.000 A 
ATOM     32  C   UNL     1      54.351  -3.455  18.572  0.00  0.00    +0.000 A 
ATOM     33  C   UNL     1      53.236  -3.150  19.321  0.00  0.00    +0.000 A 
ATOM     34  N   UNL     1      53.080  -1.786  19.301  0.00  0.00    +0.000 N 
ATOM     35  H   UNL     1      52.350  -1.263  19.773  0.00  0.00    +0.000 HD
BRANCH  32  36
ATOM     36  C   UNL     1      54.880  -4.765  18.341  0.00  0.00    +0.000 C 
ATOM     37  N   UNL     1      55.327  -5.817  18.143  0.00  0.00    +0.000 NA
ENDBRANCH  32  36
ENDBRANCH  27  30
ENDBRANCH  25  26
ENDBRANCH   6  25
TORSDOF 8
ENDMDL
MODEL 9
REMARK VINA RESULT:    -6.631      3.830      8.896
REMARK INTER + INTRA:         -11.018
REMARK INTER:                  -9.565
REMARK INTRA:                  -1.453
REMARK UNBOUND:                -1.286
REMARK  Name = 
REMARK  9 active torsions:
REMARK  status: ('A' for Active; 'I' for Inactive)
REMARK    1  A    between atoms: C_1  and  O_2
REMARK    2  A    between atoms: O_2  and  C_3
REMARK    3  A    between atoms: C_5  and  C_6
REMARK    4  A    between atoms: C_6  and  N_7
REMARK    5  A    between atoms: C_8  and  C_10
REMARK    6  A    between atoms: C_22  and  C_23
REMARK    7  A    between atoms: C_23  and  N_24
REMARK    8  A    between atoms: C_25  and  C_27
REMARK    9  A    between atoms: C_29  and  C_30
REMARK                            x       y       z     vdW  Elec       q    Type
REMARK                         _______ _______ _______ _____ _____    ______ ____
ROOT
ATOM      1  C   UNL     1      48.750   5.097  17.053  0.00  0.00    +0.000 A 
ATOM      2  C   UNL     1      48.466   5.826  15.887  0.00  0.00    +0.000 A 
ATOM      3  C   UNL     1      48.671   7.210  15.827  0.00  0.00    +0.000 A 
ATOM      4  C   UNL     1      49.150   7.865  16.966  0.00  0.00    +0.000 A 
ATOM      5  C   UNL     1      49.480   7.139  18.115  0.00  0.00    +0.000 A 
ATOM      6  C   UNL     1      49.297   5.745  18.172  0.00  0.00    +0.000 A 
ENDROOT
BRANCH   1   8
ATOM      7  C   UNL     1      47.224   3.332  17.376  0.00  0.00    +0.000 C 
ATOM      8  O   UNL     1      48.571   3.739  17.125  0.00  0.00    +0.000 OA
ENDBRANCH   1   8
BRANCH   3   9
ATOM      9  C   UNL     1      48.332   7.972  14.570  0.00  0.00    +0.000 C 
BRANCH   9  10
ATOM     10  N   UNL     1      47.107   7.482  13.992  0.00  0.00    +0.000 N 
ATOM     11  C   UNL     1      47.085   6.842  12.780  0.00  0.00    +0.000 C 
ATOM     12  O   UNL     1      48.113   6.610  12.149  0.00  0.00    +0.000 OA
ATOM     13  H   UNL     1      46.243   7.849  14.377  0.00  0.00    +0.000 HD
BRANCH  11  14
ATOM     14  C   UNL     1      45.771   6.390  12.302  0.00  0.00    +0.000 A 
ATOM     15  C   UNL     1      44.888   7.306  11.747  0.00  0.00    +0.000 A 
ATOM     16  S   UNL     1      43.433   6.607  11.196  0.00  0.00    +0.000 S 
ATOM     17  C   UNL     1      43.911   5.061  11.724  0.00  0.00    +0.000 A 
ATOM     18  N   UNL     1      43.092   3.988  11.571  0.00  0.00    +0.000 NA
ATOM     19  C   UNL     1      43.568   2.882  12.040  0.00  0.00    +0.000 A 
ATOM     20  N   UNL     1      44.791   2.755  12.644  0.00  0.00    +0.000 N 
ATOM     21  C   UNL     1      45.662   3.807  12.798  0.00  0.00    +0.000 A 
ATOM     22  O   UNL     1      46.767   3.647  13.309  0.00  0.00    +0.000 OA
ATOM     23  C   UNL     1      45.169   5.076  12.297  0.00  0.00    +0.000 A 
ATOM     24  H   UNL     1      45.109   1.859  12.985  0.00  0.00    +0.000 HD
ENDBRANCH  11  14
ENDBRANCH   9  10
ENDBRANCH   3   9
BRANCH   6  25
ATOM     25  C   UNL     1      49.734   4.993  19.411  0.00  0.00    +0.000 C 
BRANCH  25  26
ATOM     26  N   UNL     1      50.709   3.976  19.082  0.00  0.00    +0.000 N 
ATOM     27  C   UNL     1      52.063   4.201  19.143  0.00  0.00    +0.000 C 
ATOM     28  O   UNL     1      52.549   5.283  19.450  0.00  0.00    +0.000 OA
ATOM     29  H   UNL     1      50.377   3.023  19.054  0.00  0.00    +0.000 HD
BRANCH  27  30
ATOM     30  C   UNL     1      52.883   3.043  18.827  0.00  0.00    +0.000 A 
ATOM     31  C   UNL     1      52.900   2.211  17.716  0.00  0.00    +0.000 A 
ATOM     32  C   UNL     1      53.915   1.240  17.900  0.00  0.00    +0.000 A 
ATOM     33  C   UNL     1      54.507   1.493  19.118  0.00  0.00    +0.000 A 
ATOM     34  N   UNL     1      53.883   2.586  19.667  0.00  0.00    +0.000 N 
ATOM     35  H   UNL     1      54.109   3.015  20.558  0.00  0.00    +0.000 HD
BRANCH  32  36
ATOM     36  C   UNL     1      54.271   0.195  16.990  0.00  0.00    +0.000 C 
ATOM     37  N   UNL     1      54.555  -0.639  16.235  0.00  0.00    +0.000 NA
ENDBRANCH  32  36
ENDBRANCH  27  30
ENDBRANCH  25  26
ENDBRANCH   6  25
TORSDOF 8
ENDMDL
