MODEL 1
REMARK VINA RESULT:    -8.649      0.000      0.000
REMARK INTER + INTRA:         -13.092
REMARK INTER:                 -12.441
REMARK INTRA:                  -0.651
REMARK UNBOUND:                -0.651
REMARK  Name = 
REMARK  8 active torsions:
REMARK  status: ('A' for Active; 'I' for Inactive)
REMARK    1  A    between atoms: N_1  and  C_2
REMARK    2  A    between atoms: C_2  and  C_3
REMARK    3  A    between atoms: C_3  and  N_4
REMARK    4  A    between atoms: C_3  and  C_17
REMARK    5  A    between atoms: C_5  and  C_7
REMARK    6  A    between atoms: C_20  and  O_21
REMARK    7  A    between atoms: O_21  and  C_22
REMARK    8  A    between atoms: C_22  and  C_23
REMARK                            x       y       z     vdW  Elec       q    Type
REMARK                         _______ _______ _______ _____ _____    ______ ____
ROOT
ATOM      1  C   UNL     1      46.645   7.625  12.821  0.00  0.00    +0.000 C 
ENDROOT
BRANCH   1   2
ATOM      2  C   UNL     1      46.021   6.373  12.214  0.00  0.00    +0.000 A 
ATOM      3  C   UNL     1      45.793   6.286  10.833  0.00  0.00    +0.000 A 
ATOM      4  C   UNL     1      45.303   5.101  10.268  0.00  0.00    +0.000 A 
ATOM      5  C   UNL     1      45.052   3.988  11.070  0.00  0.00    +0.000 A 
ATOM      6  C   UNL     1      45.223   4.086  12.450  0.00  0.00    +0.000 A 
ATOM      7  C   UNL     1      45.715   5.260  13.014  0.00  0.00    +0.000 A 
BRANCH   5   8
ATOM      8  O   UNL     1      44.660   2.846  10.417  0.00  0.00    +0.000 OA
BRANCH   8   9
ATOM      9  C   UNL     1      44.433   3.025   9.014  0.00  0.00    +0.000 C 
BRANCH   9  10
ATOM     10  C   UNL     1      45.605   2.519   8.204  0.00  0.00    +0.000 A 
ATOM     11  C   UNL     1      46.249   3.350   7.292  0.00  0.00    +0.000 A 
ATOM     12  C   UNL     1      47.297   2.830   6.538  0.00  0.00    +0.000 A 
ATOM     13  C   UNL     1      47.674   1.505   6.717  0.00  0.00    +0.000 A 
ATOM     14  C   UNL     1      46.982   0.745   7.640  0.00  0.00    +0.000 A 
ATOM     15  N   UNL     1      45.956   1.217   8.379  0.00  0.00    +0.000 NA
ENDBRANCH   9  10
ENDBRANCH   8   9
ENDBRANCH   5   8
ENDBRANCH   1   2
BRANCH   1  16
ATOM     16  N   UNL     1      47.122   7.291  14.157  0.00  0.00    +0.000 N 
ATOM     17  C   UNL     1      48.316   6.677  14.416  0.00  0.00    +0.000 C 
ATOM     18  O   UNL     1      49.128   6.416  13.539  0.00  0.00    +0.000 OA
ATOM     19  H   UNL     1      46.449   7.393  14.908  0.00  0.00    +0.000 HD
BRANCH  17  20
ATOM     20  C   UNL     1      48.584   6.391  15.835  0.00  0.00    +0.000 A 
ATOM     21  C   UNL     1      49.108   7.380  16.654  0.00  0.00    +0.000 A 
ATOM     22  S   UNL     1      49.343   6.875  18.267  0.00  0.00    +0.000 S 
ATOM     23  C   UNL     1      48.805   5.301  17.913  0.00  0.00    +0.000 A 
ATOM     24  N   UNL     1      48.790   4.329  18.869  0.00  0.00    +0.000 NA
ATOM     25  C   UNL     1      48.411   3.170  18.447  0.00  0.00    +0.000 A 
ATOM     26  N   UNL     1      48.026   2.893  17.160  0.00  0.00    +0.000 N 
ATOM     27  C   UNL     1      47.927   3.861  16.195  0.00  0.00    +0.000 A 
ATOM     28  O   UNL     1      47.410   3.621  15.110  0.00  0.00    +0.000 OA
ATOM     29  C   UNL     1      48.414   5.172  16.593  0.00  0.00    +0.000 A 
ATOM     30  H   UNL     1      47.695   1.975  16.903  0.00  0.00    +0.000 HD
ENDBRANCH  17  20
ENDBRANCH   1  16
BRANCH   1  31
ATOM     31  C   UNL     1      45.639   8.813  12.876  0.00  0.00    +0.000 C 
BRANCH  31  32
ATOM     32  N   UNL     1      46.215  10.113  12.506  0.00  0.00    +0.000 NA
ATOM     33  H   UNL     1      45.613  10.856  12.858  0.00  0.00    +0.000 HD
ATOM     34  H   UNL     1      46.219  10.206  11.490  0.00  0.00    +0.000 HD
ENDBRANCH  31  32
ENDBRANCH   1  31
TORSDOF 8
ENDMDL
MODEL 2
REMARK VINA RESULT:    -8.468      1.847      2.447
REMARK INTER + INTRA:         -12.832
REMARK INTER:                 -11.608
REMARK INTRA:                  -1.224
REMARK UNBOUND:                -0.651
REMARK  Name = 
REMARK  8 active torsions:
REMARK  status: ('A' for Active; 'I' for Inactive)
REMARK    1  A    between atoms: N_1  and  C_2
REMARK    2  A    between atoms: C_2  and  C_3
REMARK    3  A    between atoms: C_3  and  N_4
REMARK    4  A    between atoms: C_3  and  C_17
REMARK    5  A    between atoms: C_5  and  C_7
REMARK    6  A    between atoms: C_20  and  O_21
REMARK    7  A    between atoms: O_21  and  C_22
REMARK    8  A    between atoms: C_22  and  C_23
REMARK                            x       y       z     vdW  Elec       q    Type
REMARK                         _______ _______ _______ _____ _____    ______ ____
ROOT
ATOM      1  C   UNL     1      47.885   6.812  13.614  0.00  0.00    +0.000 C 
ENDROOT
BRANCH   1   2
ATOM      2  C   UNL     1      46.867   5.974  12.848  0.00  0.00    +0.000 A 
ATOM      3  C   UNL     1      46.352   6.419  11.622  0.00  0.00    +0.000 A 
ATOM      4  C   UNL     1      45.485   5.607  10.879  0.00  0.00    +0.000 A 
ATOM      5  C   UNL     1      45.138   4.338  11.340  0.00  0.00    +0.000 A 
ATOM      6  C   UNL     1      45.600   3.912  12.585  0.00  0.00    +0.000 A 
ATOM      7  C   UNL     1      46.466   4.715  13.323  0.00  0.00    +0.000 A 
BRANCH   5   8
ATOM      8  O   UNL     1      44.357   3.581  10.503  0.00  0.00    +0.000 OA
BRANCH   8   9
ATOM      9  C   UNL     1      44.434   3.966   9.126  0.00  0.00    +0.000 C 
BRANCH   9  10
ATOM     10  C   UNL     1      45.461   3.140   8.386  0.00  0.00    +0.000 A 
ATOM     11  C   UNL     1      46.266   3.717   7.409  0.00  0.00    +0.000 A 
ATOM     12  C   UNL     1      47.170   2.910   6.723  0.00  0.00    +0.000 A 
ATOM     13  C   UNL     1      47.248   1.558   7.034  0.00  0.00    +0.000 A 
ATOM     14  C   UNL     1      46.412   1.062   8.016  0.00  0.00    +0.000 A 
ATOM     15  N   UNL     1      45.519   1.815   8.690  0.00  0.00    +0.000 NA
ENDBRANCH   9  10
ENDBRANCH   8   9
ENDBRANCH   5   8
ENDBRANCH   1   2
BRANCH   1  16
ATOM     16  N   UNL     1      47.881   6.370  15.003  0.00  0.00    +0.000 N 
ATOM     17  C   UNL     1      49.000   6.278  15.784  0.00  0.00    +0.000 C 
ATOM     18  O   UNL     1      50.106   6.632  15.398  0.00  0.00    +0.000 OA
ATOM     19  H   UNL     1      47.012   5.971  15.341  0.00  0.00    +0.000 HD
BRANCH  17  20
ATOM     20  C   UNL     1      48.778   5.767  17.147  0.00  0.00    +0.000 A 
ATOM     21  C   UNL     1      48.959   4.420  17.421  0.00  0.00    +0.000 A 
ATOM     22  S   UNL     1      48.668   4.011  19.051  0.00  0.00    +0.000 S 
ATOM     23  C   UNL     1      48.237   5.610  19.435  0.00  0.00    +0.000 A 
ATOM     24  N   UNL     1      47.833   5.949  20.693  0.00  0.00    +0.000 NA
ATOM     25  C   UNL     1      47.483   7.184  20.827  0.00  0.00    +0.000 A 
ATOM     26  N   UNL     1      47.516   8.120  19.825  0.00  0.00    +0.000 N 
ATOM     27  C   UNL     1      48.012   7.848  18.578  0.00  0.00    +0.000 A 
ATOM     28  O   UNL     1      48.198   8.744  17.762  0.00  0.00    +0.000 OA
ATOM     29  C   UNL     1      48.350   6.453  18.346  0.00  0.00    +0.000 A 
ATOM     30  H   UNL     1      47.274   9.083  20.007  0.00  0.00    +0.000 HD
ENDBRANCH  17  20
ENDBRANCH   1  16
BRANCH   1  31
ATOM     31  C   UNL     1      47.579   8.335  13.519  0.00  0.00    +0.000 C 
BRANCH  31  32
ATOM     32  N   UNL     1      47.151   8.948  14.785  0.00  0.00    +0.000 NA
ATOM     33  H   UNL     1      47.364   8.313  15.552  0.00  0.00    +0.000 HD
ATOM     34  H   UNL     1      46.137   9.062  14.781  0.00  0.00    +0.000 HD
ENDBRANCH  31  32
ENDBRANCH   1  31
TORSDOF 8
ENDMDL
MODEL 3
REMARK VINA RESULT:    -8.011      1.952      2.511
REMARK INTER + INTRA:         -12.174
REMARK INTER:                 -11.129
REMARK INTRA:                  -1.045
REMARK UNBOUND:                -0.651
REMARK  Name = 
REMARK  8 active torsions:
REMARK  status: ('A' for Active; 'I' for Inactive)
REMARK    1  A    between atoms: N_1  and  C_2
REMARK    2  A    between atoms: C_2  and  C_3
REMARK    3  A    between atoms: C_3  and  N_4
REMARK    4  A    between atoms: C_3  and  C_17
REMARK    5  A    between atoms: C_5  and  C_7
REMARK    6  A    between atoms: C_20  and  O_21
REMARK    7  A    between atoms: O_21  and  C_22
REMARK    8  A    between atoms: C_22  and  C_23
REMARK                            x       y       z     vdW  Elec       q    Type
REMARK                         _______ _______ _______ _____ _____    ______ ____
ROOT
ATOM      1  C   UNL     1      48.494   6.445  13.523  0.00  0.00    +0.000 C 
ENDROOT
BRANCH   1   2
ATOM      2  C   UNL     1      47.225   5.811  12.963  0.00  0.00    +0.000 A 
ATOM      3  C   UNL     1      46.476   6.463  11.973  0.00  0.00    +0.000 A 
ATOM      4  C   UNL     1      45.361   5.839  11.399  0.00  0.00    +0.000 A 
ATOM      5  C   UNL     1      44.992   4.553  11.792  0.00  0.00    +0.000 A 
ATOM      6  C   UNL     1      45.697   3.922  12.816  0.00  0.00    +0.000 A 
ATOM      7  C   UNL     1      46.809   4.537  13.385  0.00  0.00    +0.000 A 
BRANCH   5   8
ATOM      8  O   UNL     1      43.943   3.988  11.111  0.00  0.00    +0.000 OA
BRANCH   8   9
ATOM      9  C   UNL     1      43.875   4.362   9.730  0.00  0.00    +0.000 C 
BRANCH   9  10
ATOM     10  C   UNL     1      44.876   3.586   8.906  0.00  0.00    +0.000 A 
ATOM     11  C   UNL     1      45.039   2.217   9.094  0.00  0.00    +0.000 A 
ATOM     12  C   UNL     1      46.003   1.549   8.342  0.00  0.00    +0.000 A 
ATOM     13  C   UNL     1      46.767   2.260   7.427  0.00  0.00    +0.000 A 
ATOM     14  C   UNL     1      46.545   3.618   7.302  0.00  0.00    +0.000 A 
ATOM     15  N   UNL     1      45.627   4.296   8.022  0.00  0.00    +0.000 NA
ENDBRANCH   9  10
ENDBRANCH   8   9
ENDBRANCH   5   8
ENDBRANCH   1   2
BRANCH   1  16
ATOM     16  N   UNL     1      48.200   6.938  14.862  0.00  0.00    +0.000 N 
ATOM     17  C   UNL     1      49.063   6.852  15.921  0.00  0.00    +0.000 C 
ATOM     18  O   UNL     1      50.199   6.410  15.812  0.00  0.00    +0.000 OA
ATOM     19  H   UNL     1      47.242   7.221  15.032  0.00  0.00    +0.000 HD
BRANCH  17  20
ATOM     20  C   UNL     1      48.550   7.374  17.197  0.00  0.00    +0.000 A 
ATOM     21  C   UNL     1      48.401   8.741  17.378  0.00  0.00    +0.000 A 
ATOM     22  S   UNL     1      47.785   9.163  18.912  0.00  0.00    +0.000 S 
ATOM     23  C   UNL     1      47.748   7.537  19.408  0.00  0.00    +0.000 A 
ATOM     24  N   UNL     1      47.347   7.192  20.665  0.00  0.00    +0.000 NA
ATOM     25  C   UNL     1      47.423   5.929  20.921  0.00  0.00    +0.000 A 
ATOM     26  N   UNL     1      47.844   4.973  20.033  0.00  0.00    +0.000 N 
ATOM     27  C   UNL     1      48.156   5.263  18.730  0.00  0.00    +0.000 A 
ATOM     28  O   UNL     1      48.353   4.370  17.914  0.00  0.00    +0.000 OA
ATOM     29  C   UNL     1      48.163   6.680  18.405  0.00  0.00    +0.000 A 
ATOM     30  H   UNL     1      47.836   3.995  20.280  0.00  0.00    +0.000 HD
ENDBRANCH  17  20
ENDBRANCH   1  16
BRANCH   1  31
ATOM     31  C   UNL     1      49.024   7.593  12.616  0.00  0.00    +0.000 C 
BRANCH  31  32
ATOM     32  N   UNL     1      50.466   7.532  12.340  0.00  0.00    +0.000 NA
ATOM     33  H   UNL     1      50.610   7.177  11.395  0.00  0.00    +0.000 HD
ATOM     34  H   UNL     1      50.904   6.857  12.968  0.00  0.00    +0.000 HD
ENDBRANCH  31  32
ENDBRANCH   1  31
TORSDOF 8
ENDMDL
MODEL 4
REMARK VINA RESULT:    -7.667      2.788      4.142
REMARK INTER + INTRA:         -11.680
REMARK INTER:                 -10.373
REMARK INTRA:                  -1.308
REMARK UNBOUND:                -0.651
REMARK  Name = 
REMARK  8 active torsions:
REMARK  status: ('A' for Active; 'I' for Inactive)
REMARK    1  A    between atoms: N_1  and  C_2
REMARK    2  A    between atoms: C_2  and  C_3
REMARK    3  A    between atoms: C_3  and  N_4
REMARK    4  A    between atoms: C_3  and  C_17
REMARK    5  A    between atoms: C_5  and  C_7
REMARK    6  A    between atoms: C_20  and  O_21
REMARK    7  A    between atoms: O_21  and  C_22
REMARK    8  A    between atoms: C_22  and  C_23
REMARK                            x       y       z     vdW  Elec       q    Type
REMARK                         _______ _______ _______ _____ _____    ______ ____
ROOT
ATOM      1  C   UNL     1      46.799   5.671  14.155  0.00  0.00    +0.000 C 
ENDROOT
BRANCH   1   2
ATOM      2  C   UNL     1      46.166   5.130  12.877  0.00  0.00    +0.000 A 
ATOM      3  C   UNL     1      45.558   3.867  12.861  0.00  0.00    +0.000 A 
ATOM      4  C   UNL     1      44.901   3.410  11.710  0.00  0.00    +0.000 A 
ATOM      5  C   UNL     1      44.829   4.213  10.573  0.00  0.00    +0.000 A 
ATOM      6  C   UNL     1      45.481   5.446  10.563  0.00  0.00    +0.000 A 
ATOM      7  C   UNL     1      46.130   5.905  11.707  0.00  0.00    +0.000 A 
BRANCH   5   8
ATOM      8  O   UNL     1      44.090   3.720   9.527  0.00  0.00    +0.000 OA
BRANCH   8   9
ATOM      9  C   UNL     1      44.426   2.377   9.157  0.00  0.00    +0.000 C 
BRANCH   9  10
ATOM     10  C   UNL     1      45.543   2.358   8.139  0.00  0.00    +0.000 A 
ATOM     11  C   UNL     1      46.404   1.267   8.052  0.00  0.00    +0.000 A 
ATOM     12  C   UNL     1      47.445   1.308   7.128  0.00  0.00    +0.000 A 
ATOM     13  C   UNL     1      47.594   2.427   6.318  0.00  0.00    +0.000 A 
ATOM     14  C   UNL     1      46.698   3.469   6.469  0.00  0.00    +0.000 A 
ATOM     15  N   UNL     1      45.687   3.464   7.361  0.00  0.00    +0.000 NA
ENDBRANCH   9  10
ENDBRANCH   8   9
ENDBRANCH   5   8
ENDBRANCH   1   2
BRANCH   1  16
ATOM     16  N   UNL     1      47.994   6.420  13.786  0.00  0.00    +0.000 N 
ATOM     17  C   UNL     1      48.046   7.782  13.679  0.00  0.00    +0.000 C 
ATOM     18  O   UNL     1      47.096   8.503  13.957  0.00  0.00    +0.000 OA
ATOM     19  H   UNL     1      48.777   5.871  13.450  0.00  0.00    +0.000 HD
BRANCH  17  20
ATOM     20  C   UNL     1      49.342   8.333  13.252  0.00  0.00    +0.000 A 
ATOM     21  C   UNL     1      49.419   9.126  12.117  0.00  0.00    +0.000 A 
ATOM     22  S   UNL     1      50.996   9.683  11.779  0.00  0.00    +0.000 S 
ATOM     23  C   UNL     1      51.639   8.839  13.108  0.00  0.00    +0.000 A 
ATOM     24  N   UNL     1      52.976   8.860  13.376  0.00  0.00    +0.000 NA
ATOM     25  C   UNL     1      53.331   8.131  14.380  0.00  0.00    +0.000 A 
ATOM     26  N   UNL     1      52.472   7.395  15.156  0.00  0.00    +0.000 N 
ATOM     27  C   UNL     1      51.113   7.429  14.986  0.00  0.00    +0.000 A 
ATOM     28  O   UNL     1      50.361   6.908  15.803  0.00  0.00    +0.000 OA
ATOM     29  C   UNL     1      50.661   8.173  13.822  0.00  0.00    +0.000 A 
ATOM     30  H   UNL     1      52.807   6.882  15.958  0.00  0.00    +0.000 HD
ENDBRANCH  17  20
ENDBRANCH   1  16
BRANCH   1  31
ATOM     31  C   UNL     1      47.147   4.537  15.162  0.00  0.00    +0.000 C 
BRANCH  31  32
ATOM     32  N   UNL     1      48.376   4.768  15.935  0.00  0.00    +0.000 NA
ATOM     33  H   UNL     1      49.075   4.079  15.663  0.00  0.00    +0.000 HD
ATOM     34  H   UNL     1      48.188   4.608  16.926  0.00  0.00    +0.000 HD
ENDBRANCH  31  32
ENDBRANCH   1  31
TORSDOF 8
ENDMDL
MODEL 5
REMARK VINA RESULT:    -7.639      2.528      4.540
REMARK INTER + INTRA:         -11.640
REMARK INTER:                 -10.242
REMARK INTRA:                  -1.399
REMARK UNBOUND:                -0.651
REMARK  Name = 
REMARK  8 active torsions:
REMARK  status: ('A' for Active; 'I' for Inactive)
REMARK    1  A    between atoms: N_1  and  C_2
REMARK    2  A    between atoms: C_2  and  C_3
REMARK    3  A    between atoms: C_3  and  N_4
REMARK    4  A    between atoms: C_3  and  C_17
REMARK    5  A    between atoms: C_5  and  C_7
REMARK    6  A    between atoms: C_20  and  O_21
REMARK    7  A    between atoms: O_21  and  C_22
REMARK    8  A    between atoms: C_22  and  C_23
REMARK                            x       y       z     vdW  Elec       q    Type
REMARK                         _______ _______ _______ _____ _____    ______ ____
ROOT
ATOM      1  C   UNL     1      47.071   5.570  14.567  0.00  0.00    +0.000 C 
ENDROOT
BRANCH   1   2
ATOM      2  C   UNL     1      46.373   5.067  13.308  0.00  0.00    +0.000 A 
ATOM      3  C   UNL     1      45.998   3.721  13.188  0.00  0.00    +0.000 A 
ATOM      4  C   UNL     1      45.279   3.282  12.069  0.00  0.00    +0.000 A 
ATOM      5  C   UNL     1      44.912   4.181  11.069  0.00  0.00    +0.000 A 
ATOM      6  C   UNL     1      45.331   5.508  11.154  0.00  0.00    +0.000 A 
ATOM      7  C   UNL     1      46.041   5.949  12.267  0.00  0.00    +0.000 A 
BRANCH   5   8
ATOM      8  O   UNL     1      44.132   3.678  10.057  0.00  0.00    +0.000 OA
BRANCH   8   9
ATOM      9  C   UNL     1      44.537   4.094   8.747  0.00  0.00    +0.000 C 
BRANCH   9  10
ATOM     10  C   UNL     1      45.575   3.157   8.175  0.00  0.00    +0.000 A 
ATOM     11  C   UNL     1      46.523   3.619   7.265  0.00  0.00    +0.000 A 
ATOM     12  C   UNL     1      47.435   2.712   6.732  0.00  0.00    +0.000 A 
ATOM     13  C   UNL     1      47.380   1.380   7.121  0.00  0.00    +0.000 A 
ATOM     14  C   UNL     1      46.407   1.001   8.027  0.00  0.00    +0.000 A 
ATOM     15  N   UNL     1      45.503   1.853   8.554  0.00  0.00    +0.000 NA
ENDBRANCH   9  10
ENDBRANCH   8   9
ENDBRANCH   5   8
ENDBRANCH   1   2
BRANCH   1  16
ATOM     16  N   UNL     1      48.281   6.275  14.162  0.00  0.00    +0.000 N 
ATOM     17  C   UNL     1      48.917   7.214  14.927  0.00  0.00    +0.000 C 
ATOM     18  O   UNL     1      48.557   7.495  16.062  0.00  0.00    +0.000 OA
ATOM     19  H   UNL     1      48.564   6.154  13.196  0.00  0.00    +0.000 HD
BRANCH  17  20
ATOM     20  C   UNL     1      50.100   7.835  14.309  0.00  0.00    +0.000 A 
ATOM     21  C   UNL     1      51.344   7.706  14.909  0.00  0.00    +0.000 A 
ATOM     22  S   UNL     1      52.599   8.479  14.050  0.00  0.00    +0.000 S 
ATOM     23  C   UNL     1      51.514   9.060  12.876  0.00  0.00    +0.000 A 
ATOM     24  N   UNL     1      51.943   9.847  11.848  0.00  0.00    +0.000 NA
ATOM     25  C   UNL     1      51.004  10.260  11.064  0.00  0.00    +0.000 A 
ATOM     26  N   UNL     1      49.676   9.945  11.200  0.00  0.00    +0.000 N 
ATOM     27  C   UNL     1      49.218   9.075  12.154  0.00  0.00    +0.000 A 
ATOM     28  O   UNL     1      48.060   8.672  12.138  0.00  0.00    +0.000 OA
ATOM     29  C   UNL     1      50.219   8.638  13.113  0.00  0.00    +0.000 A 
ATOM     30  H   UNL     1      48.996  10.262  10.525  0.00  0.00    +0.000 HD
ENDBRANCH  17  20
ENDBRANCH   1  16
BRANCH   1  31
ATOM     31  C   UNL     1      47.410   4.412  15.551  0.00  0.00    +0.000 C 
BRANCH  31  32
ATOM     32  N   UNL     1      47.152   4.723  16.964  0.00  0.00    +0.000 NA
ATOM     33  H   UNL     1      47.997   4.544  17.505  0.00  0.00    +0.000 HD
ATOM     34  H   UNL     1      46.442   4.086  17.328  0.00  0.00    +0.000 HD
ENDBRANCH  31  32
ENDBRANCH   1  31
TORSDOF 8
ENDMDL
MODEL 6
REMARK VINA RESULT:    -7.498      1.784      2.253
REMARK INTER + INTRA:         -11.437
REMARK INTER:                 -10.982
REMARK INTRA:                  -0.455
REMARK UNBOUND:                -0.651
REMARK  Name = 
REMARK  8 active torsions:
REMARK  status: ('A' for Active; 'I' for Inactive)
REMARK    1  A    between atoms: N_1  and  C_2
REMARK    2  A    between atoms: C_2  and  C_3
REMARK    3  A    between atoms: C_3  and  N_4
REMARK    4  A    between atoms: C_3  and  C_17
REMARK    5  A    between atoms: C_5  and  C_7
REMARK    6  A    between atoms: C_20  and  O_21
REMARK    7  A    between atoms: O_21  and  C_22
REMARK    8  A    between atoms: C_22  and  C_23
REMARK                            x       y       z     vdW  Elec       q    Type
REMARK                         _______ _______ _______ _____ _____    ______ ____
ROOT
ATOM      1  C   UNL     1      47.562   6.992  13.553  0.00  0.00    +0.000 C 
ENDROOT
BRANCH   1   2
ATOM      2  C   UNL     1      46.628   6.015  12.847  0.00  0.00    +0.000 A 
ATOM      3  C   UNL     1      45.916   6.406  11.704  0.00  0.00    +0.000 A 
ATOM      4  C   UNL     1      45.127   5.481  11.007  0.00  0.00    +0.000 A 
ATOM      5  C   UNL     1      45.056   4.154  11.431  0.00  0.00    +0.000 A 
ATOM      6  C   UNL     1      45.715   3.772  12.598  0.00  0.00    +0.000 A 
ATOM      7  C   UNL     1      46.504   4.688  13.290  0.00  0.00    +0.000 A 
BRANCH   5   8
ATOM      8  O   UNL     1      44.333   3.301  10.635  0.00  0.00    +0.000 OA
BRANCH   8   9
ATOM      9  C   UNL     1      44.299   3.680   9.254  0.00  0.00    +0.000 C 
BRANCH   9  10
ATOM     10  C   UNL     1      45.382   2.975   8.470  0.00  0.00    +0.000 A 
ATOM     11  C   UNL     1      46.149   3.669   7.538  0.00  0.00    +0.000 A 
ATOM     12  C   UNL     1      47.108   2.971   6.809  0.00  0.00    +0.000 A 
ATOM     13  C   UNL     1      47.278   1.611   7.031  0.00  0.00    +0.000 A 
ATOM     14  C   UNL     1      46.475   0.995   7.973  0.00  0.00    +0.000 A 
ATOM     15  N   UNL     1      45.530   1.641   8.688  0.00  0.00    +0.000 NA
ENDBRANCH   9  10
ENDBRANCH   8   9
ENDBRANCH   5   8
ENDBRANCH   1   2
BRANCH   1  16
ATOM     16  N   UNL     1      47.886   6.441  14.863  0.00  0.00    +0.000 N 
ATOM     17  C   UNL     1      49.093   6.600  15.488  0.00  0.00    +0.000 C 
ATOM     18  O   UNL     1      49.991   7.289  15.023  0.00  0.00    +0.000 OA
ATOM     19  H   UNL     1      47.218   5.782  15.246  0.00  0.00    +0.000 HD
BRANCH  17  20
ATOM     20  C   UNL     1      49.224   5.924  16.788  0.00  0.00    +0.000 A 
ATOM     21  C   UNL     1      48.092   5.502  17.468  0.00  0.00    +0.000 A 
ATOM     22  S   UNL     1      48.435   4.731  18.951  0.00  0.00    +0.000 S 
ATOM     23  C   UNL     1      50.106   4.982  18.760  0.00  0.00    +0.000 A 
ATOM     24  N   UNL     1      50.992   4.586  19.718  0.00  0.00    +0.000 NA
ATOM     25  C   UNL     1      52.221   4.890  19.467  0.00  0.00    +0.000 A 
ATOM     26  N   UNL     1      52.652   5.538  18.338  0.00  0.00    +0.000 N 
ATOM     27  C   UNL     1      51.811   5.861  17.306  0.00  0.00    +0.000 A 
ATOM     28  O   UNL     1      52.250   6.274  16.239  0.00  0.00    +0.000 OA
ATOM     29  C   UNL     1      50.403   5.611  17.566  0.00  0.00    +0.000 A 
ATOM     30  H   UNL     1      53.635   5.706  18.179  0.00  0.00    +0.000 HD
ENDBRANCH  17  20
ENDBRANCH   1  16
BRANCH   1  31
ATOM     31  C   UNL     1      46.931   8.408  13.691  0.00  0.00    +0.000 C 
BRANCH  31  32
ATOM     32  N   UNL     1      47.383   9.161  14.870  0.00  0.00    +0.000 NA
ATOM     33  H   UNL     1      48.254   8.757  15.210  0.00  0.00    +0.000 HD
ATOM     34  H   UNL     1      46.704   9.051  15.624  0.00  0.00    +0.000 HD
ENDBRANCH  31  32
ENDBRANCH   1  31
TORSDOF 8
ENDMDL
MODEL 7
REMARK VINA RESULT:    -7.240      1.907      2.647
REMARK INTER + INTRA:         -11.066
REMARK INTER:                  -9.655
REMARK INTRA:                  -1.411
REMARK UNBOUND:                -0.651
REMARK  Name = 
REMARK  8 active torsions:
REMARK  status: ('A' for Active; 'I' for Inactive)
REMARK    1  A    between atoms: N_1  and  C_2
REMARK    2  A    between atoms: C_2  and  C_3
REMARK    3  A    between atoms: C_3  and  N_4
REMARK    4  A    between atoms: C_3  and  C_17
REMARK    5  A    between atoms: C_5  and  C_7
REMARK    6  A    between atoms: C_20  and  O_21
REMARK    7  A    between atoms: O_21  and  C_22
REMARK    8  A    between atoms: C_22  and  C_23
REMARK                            x       y       z     vdW  Elec       q    Type
REMARK                         _______ _______ _______ _____ _____    ______ ____
ROOT
ATOM      1  C   UNL     1      48.867   8.651  14.323  0.00  0.00    +0.000 C 
ENDROOT
BRANCH   1   2
ATOM      2  C   UNL     1      47.796   8.193  13.338  0.00  0.00    +0.000 A 
ATOM      3  C   UNL     1      48.110   7.295  12.308  0.00  0.00    +0.000 A 
ATOM      4  C   UNL     1      47.106   6.809  11.460  0.00  0.00    +0.000 A 
ATOM      5  C   UNL     1      45.780   7.197  11.642  0.00  0.00    +0.000 A 
ATOM      6  C   UNL     1      45.470   8.132  12.628  0.00  0.00    +0.000 A 
ATOM      7  C   UNL     1      46.464   8.613  13.476  0.00  0.00    +0.000 A 
BRANCH   5   8
ATOM      8  O   UNL     1      44.855   6.600  10.822  0.00  0.00    +0.000 OA
BRANCH   8   9
ATOM      9  C   UNL     1      44.549   5.246  11.177  0.00  0.00    +0.000 C 
BRANCH   9  10
ATOM     10  C   UNL     1      44.945   4.292  10.074  0.00  0.00    +0.000 A 
ATOM     11  C   UNL     1      45.554   4.762   8.915  0.00  0.00    +0.000 A 
ATOM     12  C   UNL     1      45.865   3.853   7.906  0.00  0.00    +0.000 A 
ATOM     13  C   UNL     1      45.565   2.509   8.084  0.00  0.00    +0.000 A 
ATOM     14  C   UNL     1      44.957   2.123   9.264  0.00  0.00    +0.000 A 
ATOM     15  N   UNL     1      44.635   2.980  10.255  0.00  0.00    +0.000 NA
ENDBRANCH   9  10
ENDBRANCH   8   9
ENDBRANCH   5   8
ENDBRANCH   1   2
BRANCH   1  16
ATOM     16  N   UNL     1      48.911   7.694  15.422  0.00  0.00    +0.000 N 
ATOM     17  C   UNL     1      50.029   7.000  15.793  0.00  0.00    +0.000 C 
ATOM     18  O   UNL     1      51.122   7.179  15.271  0.00  0.00    +0.000 OA
ATOM     19  H   UNL     1      48.016   7.435  15.822  0.00  0.00    +0.000 HD
BRANCH  17  20
ATOM     20  C   UNL     1      49.844   6.051  16.903  0.00  0.00    +0.000 A 
ATOM     21  C   UNL     1      50.654   6.129  18.025  0.00  0.00    +0.000 A 
ATOM     22  S   UNL     1      50.289   4.959  19.212  0.00  0.00    +0.000 S 
ATOM     23  C   UNL     1      49.071   4.274  18.244  0.00  0.00    +0.000 A 
ATOM     24  N   UNL     1      48.370   3.181  18.661  0.00  0.00    +0.000 NA
ATOM     25  C   UNL     1      47.516   2.735  17.803  0.00  0.00    +0.000 A 
ATOM     26  N   UNL     1      47.283   3.288  16.570  0.00  0.00    +0.000 N 
ATOM     27  C   UNL     1      47.890   4.444  16.154  0.00  0.00    +0.000 A 
ATOM     28  O   UNL     1      47.530   5.013  15.129  0.00  0.00    +0.000 OA
ATOM     29  C   UNL     1      48.917   4.950  17.048  0.00  0.00    +0.000 A 
ATOM     30  H   UNL     1      46.567   2.919  15.962  0.00  0.00    +0.000 HD
ENDBRANCH  17  20
ENDBRANCH   1  16
BRANCH   1  31
ATOM     31  C   UNL     1      48.597  10.089  14.854  0.00  0.00    +0.000 C 
BRANCH  31  32
ATOM     32  N   UNL     1      48.388  10.170  16.307  0.00  0.00    +0.000 NA
ATOM     33  H   UNL     1      48.388  11.149  16.590  0.00  0.00    +0.000 HD
ATOM     34  H   UNL     1      49.176   9.734  16.788  0.00  0.00    +0.000 HD
ENDBRANCH  31  32
ENDBRANCH   1  31
TORSDOF 8
ENDMDL
MODEL 8
REMARK VINA RESULT:    -7.088      3.270      7.826
REMARK INTER + INTRA:         -10.847
REMARK INTER:                  -9.670
REMARK INTRA:                  -1.177
REMARK UNBOUND:                -0.651
REMARK  Name = 
REMARK  8 active torsions:
REMARK  status: ('A' for Active; 'I' for Inactive)
REMARK    1  A    between atoms: N_1  and  C_2
REMARK    2  A    between atoms: C_2  and  C_3
REMARK    3  A    between atoms: C_3  and  N_4
REMARK    4  A    between atoms: C_3  and  C_17
REMARK    5  A    between atoms: C_5  and  C_7
REMARK    6  A    between atoms: C_20  and  O_21
REMARK    7  A    between atoms: O_21  and  C_22
REMARK    8  A    between atoms: C_22  and  C_23
REMARK                            x       y       z     vdW  Elec       q    Type
REMARK                         _______ _______ _______ _____ _____    ______ ____
ROOT
ATOM      1  C   UNL     1      48.115   7.901  12.551  0.00  0.00    +0.000 C 
ENDROOT
BRANCH   1   2
ATOM      2  C   UNL     1      48.373   7.430  13.979  0.00  0.00    +0.000 A 
ATOM      3  C   UNL     1      47.920   6.175  14.410  0.00  0.00    +0.000 A 
ATOM      4  C   UNL     1      48.235   5.709  15.693  0.00  0.00    +0.000 A 
ATOM      5  C   UNL     1      49.019   6.479  16.551  0.00  0.00    +0.000 A 
ATOM      6  C   UNL     1      49.425   7.751  16.150  0.00  0.00    +0.000 A 
ATOM      7  C   UNL     1      49.118   8.215  14.873  0.00  0.00    +0.000 A 
BRANCH   5   8
ATOM      8  O   UNL     1      49.350   5.903  17.751  0.00  0.00    +0.000 OA
BRANCH   8   9
ATOM      9  C   UNL     1      48.990   4.520  17.854  0.00  0.00    +0.000 C 
BRANCH   9  10
ATOM     10  C   UNL     1      50.214   3.635  17.818  0.00  0.00    +0.000 A 
ATOM     11  C   UNL     1      50.137   2.338  17.317  0.00  0.00    +0.000 A 
ATOM     12  C   UNL     1      51.280   1.543  17.340  0.00  0.00    +0.000 A 
ATOM     13  C   UNL     1      52.461   2.061  17.854  0.00  0.00    +0.000 A 
ATOM     14  C   UNL     1      52.454   3.357  18.335  0.00  0.00    +0.000 A 
ATOM     15  N   UNL     1      51.361   4.149  18.336  0.00  0.00    +0.000 NA
ENDBRANCH   9  10
ENDBRANCH   8   9
ENDBRANCH   5   8
ENDBRANCH   1   2
BRANCH   1  16
ATOM     16  N   UNL     1      47.408   6.841  11.845  0.00  0.00    +0.000 N 
ATOM     17  C   UNL     1      46.093   6.907  11.475  0.00  0.00    +0.000 C 
ATOM     18  O   UNL     1      45.408   7.907  11.646  0.00  0.00    +0.000 OA
ATOM     19  H   UNL     1      47.896   5.956  11.767  0.00  0.00    +0.000 HD
BRANCH  17  20
ATOM     20  C   UNL     1      45.563   5.706  10.809  0.00  0.00    +0.000 A 
ATOM     21  C   UNL     1      45.746   5.533   9.445  0.00  0.00    +0.000 A 
ATOM     22  S   UNL     1      45.076   4.082   8.847  0.00  0.00    +0.000 S 
ATOM     23  C   UNL     1      44.472   3.662  10.380  0.00  0.00    +0.000 A 
ATOM     24  N   UNL     1      43.745   2.522  10.564  0.00  0.00    +0.000 NA
ATOM     25  C   UNL     1      43.304   2.359  11.766  0.00  0.00    +0.000 A 
ATOM     26  N   UNL     1      43.536   3.218  12.809  0.00  0.00    +0.000 N 
ATOM     27  C   UNL     1      44.345   4.318  12.693  0.00  0.00    +0.000 A 
ATOM     28  O   UNL     1      44.679   4.963  13.680  0.00  0.00    +0.000 OA
ATOM     29  C   UNL     1      44.809   4.594  11.343  0.00  0.00    +0.000 A 
ATOM     30  H   UNL     1      43.201   3.009  13.737  0.00  0.00    +0.000 HD
ENDBRANCH  17  20
ENDBRANCH   1  16
BRANCH   1  31
ATOM     31  C   UNL     1      49.433   8.274  11.811  0.00  0.00    +0.000 C 
BRANCH  31  32
ATOM     32  N   UNL     1      50.440   7.204  11.789  0.00  0.00    +0.000 NA
ATOM     33  H   UNL     1      51.289   7.535  12.246  0.00  0.00    +0.000 HD
ATOM     34  H   UNL     1      50.698   6.999  10.823  0.00  0.00    +0.000 HD
ENDBRANCH  31  32
ENDBRANCH   1  31
TORSDOF 8
ENDMDL
MODEL 9
REMARK VINA RESULT:    -6.962      4.009      5.341
REMARK INTER + INTRA:         -10.665
REMARK INTER:                  -9.502
REMARK INTRA:                  -1.163
REMARK UNBOUND:                -0.651
REMARK  Name = 
REMARK  8 active torsions:
REMARK  status: ('A' for Active; 'I' for Inactive)
REMARK    1  A    between atoms: N_1  and  C_2
REMARK    2  A    between atoms: C_2  and  C_3
REMARK    3  A    between atoms: C_3  and  N_4
REMARK    4  A    between atoms: C_3  and  C_17
REMARK    5  A    between atoms: C_5  and  C_7
REMARK    6  A    between atoms: C_20  and  O_21
REMARK    7  A    between atoms: O_21  and  C_22
REMARK    8  A    between atoms: C_22  and  C_23
REMARK                            x       y       z     vdW  Elec       q    Type
REMARK                         _______ _______ _______ _____ _____    ______ ____
ROOT
ATOM      1  C   UNL     1      48.314   7.060  13.974  0.00  0.00    +0.000 C 
ENDROOT
BRANCH   1   2
ATOM      2  C   UNL     1      47.328   6.222  13.167  0.00  0.00    +0.000 A 
ATOM      3  C   UNL     1      47.002   4.919  13.569  0.00  0.00    +0.000 A 
ATOM      4  C   UNL     1      46.030   4.185  12.876  0.00  0.00    +0.000 A 
ATOM      5  C   UNL     1      45.362   4.748  11.790  0.00  0.00    +0.000 A 
ATOM      6  C   UNL     1      45.721   6.021  11.351  0.00  0.00    +0.000 A 
ATOM      7  C   UNL     1      46.682   6.755  12.040  0.00  0.00    +0.000 A 
BRANCH   5   8
ATOM      8  O   UNL     1      44.364   3.988  11.231  0.00  0.00    +0.000 OA
BRANCH   8   9
ATOM      9  C   UNL     1      44.128   4.264   9.845  0.00  0.00    +0.000 C 
BRANCH   9  10
ATOM     10  C   UNL     1      45.104   3.515   8.968  0.00  0.00    +0.000 A 
ATOM     11  C   UNL     1      45.874   4.191   8.026  0.00  0.00    +0.000 A 
ATOM     12  C   UNL     1      46.730   3.456   7.210  0.00  0.00    +0.000 A 
ATOM     13  C   UNL     1      46.797   2.077   7.359  0.00  0.00    +0.000 A 
ATOM     14  C   UNL     1      45.998   1.481   8.316  0.00  0.00    +0.000 A 
ATOM     15  N   UNL     1      45.151   2.164   9.114  0.00  0.00    +0.000 NA
ENDBRANCH   9  10
ENDBRANCH   8   9
ENDBRANCH   5   8
ENDBRANCH   1   2
BRANCH   1  16
ATOM     16  N   UNL     1      49.559   7.144  13.219  0.00  0.00    +0.000 N 
ATOM     17  C   UNL     1      49.959   8.247  12.516  0.00  0.00    +0.000 C 
ATOM     18  O   UNL     1      49.329   9.297  12.519  0.00  0.00    +0.000 OA
ATOM     19  H   UNL     1      50.067   6.276  13.101  0.00  0.00    +0.000 HD
BRANCH  17  20
ATOM     20  C   UNL     1      51.231   8.105  11.789  0.00  0.00    +0.000 A 
ATOM     21  C   UNL     1      51.254   7.493  10.544  0.00  0.00    +0.000 A 
ATOM     22  S   UNL     1      52.809   7.425   9.847  0.00  0.00    +0.000 S 
ATOM     23  C   UNL     1      53.514   8.162  11.208  0.00  0.00    +0.000 A 
ATOM     24  N   UNL     1      54.860   8.370  11.280  0.00  0.00    +0.000 NA
ATOM     25  C   UNL     1      55.262   8.886  12.392  0.00  0.00    +0.000 A 
ATOM     26  N   UNL     1      54.443   9.232  13.436  0.00  0.00    +0.000 N 
ATOM     27  C   UNL     1      53.078   9.136  13.365  0.00  0.00    +0.000 A 
ATOM     28  O   UNL     1      52.365   9.619  14.238  0.00  0.00    +0.000 OA
ATOM     29  C   UNL     1      52.573   8.490  12.165  0.00  0.00    +0.000 A 
ATOM     30  H   UNL     1      54.815   9.676  14.263  0.00  0.00    +0.000 HD
ENDBRANCH  17  20
ENDBRANCH   1  16
BRANCH   1  31
ATOM     31  C   UNL     1      48.567   6.466  15.390  0.00  0.00    +0.000 C 
BRANCH  31  32
ATOM     32  N   UNL     1      49.985   6.363  15.761  0.00  0.00    +0.000 NA
ATOM     33  H   UNL     1      50.130   6.825  16.657  0.00  0.00    +0.000 HD
ATOM     34  H   UNL     1      50.551   6.873  15.082  0.00  0.00    +0.000 HD
ENDBRANCH  31  32
ENDBRANCH   1  31
TORSDOF 8
ENDMDL
