MODEL 1
REMARK VINA RESULT:    -8.495      0.000      0.000
REMARK INTER + INTRA:         -12.910
REMARK INTER:                 -11.723
REMARK INTRA:                  -1.186
REMARK UNBOUND:                -1.186
REMARK  Name = 
REMARK  7 active torsions:
REMARK  status: ('A' for Active; 'I' for Inactive)
REMARK    1  A    between atoms: N_1  and  C_2
REMARK    2  A    between atoms: C_2  and  C_3
REMARK    3  A    between atoms: C_2  and  C_24
REMARK    4  A    between atoms: C_3  and  C_4
REMARK    5  A    between atoms: C_7  and  C_8
REMARK    6  A    between atoms: C_8  and  N_9
REMARK    7  A    between atoms: C_10  and  C_12
REMARK                            x       y       z     vdW  Elec       q    Type
REMARK                         _______ _______ _______ _____ _____    ______ ____
ROOT
ATOM      1  C   UNL     1      44.735   5.368  10.601  0.00  0.00    +0.000 A 
ATOM      2  C   UNL     1      46.035   5.798  10.296  0.00  0.00    +0.000 A 
ATOM      3  C   UNL     1      46.722   6.660  11.156  0.00  0.00    +0.000 A 
ATOM      4  C   UNL     1      46.127   7.100  12.346  0.00  0.00    +0.000 A 
ATOM      5  C   UNL     1      44.818   6.695  12.634  0.00  0.00    +0.000 A 
ATOM      6  C   UNL     1      44.129   5.837  11.773  0.00  0.00    +0.000 A 
ENDROOT
BRANCH   1   7
ATOM      7  C   UNL     1      44.005   4.425   9.668  0.00  0.00    +0.000 C 
BRANCH   7   8
ATOM      8  C   UNL     1      44.492   2.951   9.714  0.00  0.00    +0.000 C 
BRANCH   8   9
ATOM      9  C   UNL     1      45.754   2.732   8.799  0.00  0.00    +0.000 C 
ATOM     10  C   UNL     1      45.628   3.575   7.509  0.00  0.00    +0.000 C 
ATOM     11  C   UNL     1      46.760   3.309   6.522  0.00  0.00    +0.000 C 
ATOM     12  C   UNL     1      46.900   1.813   6.270  0.00  0.00    +0.000 C 
ATOM     13  C   UNL     1      47.067   1.065   7.585  0.00  0.00    +0.000 C 
ATOM     14  N   UNL     1      45.930   1.296   8.476  0.00  0.00    +0.000 NA
ATOM     15  H   UNL     1      46.090   0.773   9.335  0.00  0.00    +0.000 HD
ENDBRANCH   8   9
BRANCH   8  16
ATOM     16  N   UNL     1      44.795   2.530  11.097  0.00  0.00    +0.000 NA
ATOM     17  H   UNL     1      44.069   1.904  11.440  0.00  0.00    +0.000 HD
ATOM     18  H   UNL     1      44.772   3.369  11.682  0.00  0.00    +0.000 HD
ENDBRANCH   8  16
ENDBRANCH   7   8
ENDBRANCH   1   7
BRANCH   4  19
ATOM     19  C   UNL     1      46.850   8.054  13.261  0.00  0.00    +0.000 C 
BRANCH  19  20
ATOM     20  N   UNL     1      47.352   7.353  14.412  0.00  0.00    +0.000 N 
ATOM     21  C   UNL     1      48.622   6.843  14.461  0.00  0.00    +0.000 C 
ATOM     22  O   UNL     1      49.424   6.995  13.544  0.00  0.00    +0.000 OA
ATOM     23  H   UNL     1      46.657   7.012  15.066  0.00  0.00    +0.000 HD
BRANCH  21  24
ATOM     24  C   UNL     1      48.993   6.159  15.707  0.00  0.00    +0.000 A 
ATOM     25  C   UNL     1      50.093   6.595  16.432  0.00  0.00    +0.000 A 
ATOM     26  S   UNL     1      50.322   5.752  17.897  0.00  0.00    +0.000 S 
ATOM     27  C   UNL     1      48.992   4.737  17.587  0.00  0.00    +0.000 A 
ATOM     28  N   UNL     1      48.632   3.765  18.466  0.00  0.00    +0.000 NA
ATOM     29  C   UNL     1      47.622   3.051  18.090  0.00  0.00    +0.000 A 
ATOM     30  N   UNL     1      46.942   3.222  16.913  0.00  0.00    +0.000 N 
ATOM     31  C   UNL     1      47.261   4.199  16.001  0.00  0.00    +0.000 A 
ATOM     32  O   UNL     1      46.621   4.332  14.964  0.00  0.00    +0.000 OA
ATOM     33  C   UNL     1      48.382   5.038  16.382  0.00  0.00    +0.000 A 
ATOM     34  H   UNL     1      46.161   2.628  16.673  0.00  0.00    +0.000 HD
ENDBRANCH  21  24
ENDBRANCH  19  20
ENDBRANCH   4  19
TORSDOF 7
ENDMDL
MODEL 2
REMARK VINA RESULT:    -7.606      1.863      2.116
REMARK INTER + INTRA:         -11.683
REMARK INTER:                 -10.928
REMARK INTRA:                  -0.755
REMARK UNBOUND:                -1.186
REMARK  Name = 
REMARK  7 active torsions:
REMARK  status: ('A' for Active; 'I' for Inactive)
REMARK    1  A    between atoms: N_1  and  C_2
REMARK    2  A    between atoms: C_2  and  C_3
REMARK    3  A    between atoms: C_2  and  C_24
REMARK    4  A    between atoms: C_3  and  C_4
REMARK    5  A    between atoms: C_7  and  C_8
REMARK    6  A    between atoms: C_8  and  N_9
REMARK    7  A    between atoms: C_10  and  C_12
REMARK                            x       y       z     vdW  Elec       q    Type
REMARK                         _______ _______ _______ _____ _____    ______ ____
ROOT
ATOM      1  C   UNL     1      45.034   5.257  11.591  0.00  0.00    +0.000 A 
ATOM      2  C   UNL     1      45.802   6.297  11.048  0.00  0.00    +0.000 A 
ATOM      3  C   UNL     1      46.947   6.757  11.705  0.00  0.00    +0.000 A 
ATOM      4  C   UNL     1      47.353   6.178  12.914  0.00  0.00    +0.000 A 
ATOM      5  C   UNL     1      46.568   5.161  13.472  0.00  0.00    +0.000 A 
ATOM      6  C   UNL     1      45.422   4.704  12.817  0.00  0.00    +0.000 A 
ENDROOT
BRANCH   1   7
ATOM      7  C   UNL     1      43.802   4.758  10.864  0.00  0.00    +0.000 C 
BRANCH   7   8
ATOM      8  C   UNL     1      43.888   3.291  10.364  0.00  0.00    +0.000 C 
BRANCH   8   9
ATOM      9  C   UNL     1      45.180   3.053   9.496  0.00  0.00    +0.000 C 
ATOM     10  C   UNL     1      45.238   4.074   8.337  0.00  0.00    +0.000 C 
ATOM     11  C   UNL     1      46.401   3.814   7.385  0.00  0.00    +0.000 C 
ATOM     12  C   UNL     1      46.394   2.361   6.927  0.00  0.00    +0.000 C 
ATOM     13  C   UNL     1      46.385   1.425   8.127  0.00  0.00    +0.000 C 
ATOM     14  N   UNL     1      45.221   1.664   8.979  0.00  0.00    +0.000 NA
ATOM     15  H   UNL     1      45.261   1.012   9.760  0.00  0.00    +0.000 HD
ENDBRANCH   8   9
BRANCH   8  16
ATOM     16  N   UNL     1      43.856   2.337  11.490  0.00  0.00    +0.000 NA
ATOM     17  H   UNL     1      44.241   1.440  11.201  0.00  0.00    +0.000 HD
ATOM     18  H   UNL     1      42.873   2.181  11.729  0.00  0.00    +0.000 HD
ENDBRANCH   8  16
ENDBRANCH   7   8
ENDBRANCH   1   7
BRANCH   4  19
ATOM     19  C   UNL     1      48.568   6.691  13.644  0.00  0.00    +0.000 C 
BRANCH  19  20
ATOM     20  N   UNL     1      48.344   6.660  15.064  0.00  0.00    +0.000 N 
ATOM     21  C   UNL     1      49.054   7.441  15.935  0.00  0.00    +0.000 C 
ATOM     22  O   UNL     1      49.894   8.250  15.552  0.00  0.00    +0.000 OA
ATOM     23  H   UNL     1      47.844   5.853  15.420  0.00  0.00    +0.000 HD
BRANCH  21  24
ATOM     24  C   UNL     1      48.706   7.303  17.355  0.00  0.00    +0.000 A 
ATOM     25  C   UNL     1      48.178   8.385  18.044  0.00  0.00    +0.000 A 
ATOM     26  S   UNL     1      47.742   8.023  19.653  0.00  0.00    +0.000 S 
ATOM     27  C   UNL     1      48.296   6.422  19.502  0.00  0.00    +0.000 A 
ATOM     28  N   UNL     1      48.216   5.550  20.543  0.00  0.00    +0.000 NA
ATOM     29  C   UNL     1      48.700   4.377  20.297  0.00  0.00    +0.000 A 
ATOM     30  N   UNL     1      49.258   3.998  19.105  0.00  0.00    +0.000 N 
ATOM     31  C   UNL     1      49.348   4.839  18.023  0.00  0.00    +0.000 A 
ATOM     32  O   UNL     1      49.841   4.461  16.966  0.00  0.00    +0.000 OA
ATOM     33  C   UNL     1      48.807   6.167  18.242  0.00  0.00    +0.000 A 
ATOM     34  H   UNL     1      49.623   3.066  18.976  0.00  0.00    +0.000 HD
ENDBRANCH  21  24
ENDBRANCH  19  20
ENDBRANCH   4  19
TORSDOF 7
ENDMDL
MODEL 3
REMARK VINA RESULT:    -7.308      4.167      9.048
REMARK INTER + INTRA:         -11.271
REMARK INTER:                 -10.226
REMARK INTRA:                  -1.045
REMARK UNBOUND:                -1.186
REMARK  Name = 
REMARK  7 active torsions:
REMARK  status: ('A' for Active; 'I' for Inactive)
REMARK    1  A    between atoms: N_1  and  C_2
REMARK    2  A    between atoms: C_2  and  C_3
REMARK    3  A    between atoms: C_2  and  C_24
REMARK    4  A    between atoms: C_3  and  C_4
REMARK    5  A    between atoms: C_7  and  C_8
REMARK    6  A    between atoms: C_8  and  N_9
REMARK    7  A    between atoms: C_10  and  C_12
REMARK                            x       y       z     vdW  Elec       q    Type
REMARK                         _______ _______ _______ _____ _____    ______ ____
ROOT
ATOM      1  C   UNL     1      51.424   3.725  17.670  0.00  0.00    +0.000 A 
ATOM      2  C   UNL     1      50.848   2.474  17.405  0.00  0.00    +0.000 A 
ATOM      3  C   UNL     1      49.483   2.361  17.125  0.00  0.00    +0.000 A 
ATOM      4  C   UNL     1      48.668   3.499  17.093  0.00  0.00    +0.000 A 
ATOM      5  C   UNL     1      49.237   4.745  17.389  0.00  0.00    +0.000 A 
ATOM      6  C   UNL     1      50.601   4.857  17.672  0.00  0.00    +0.000 A 
ENDROOT
BRANCH   1   7
ATOM      7  C   UNL     1      52.907   3.838  17.960  0.00  0.00    +0.000 C 
BRANCH   7   8
ATOM      8  C   UNL     1      53.423   2.910  19.093  0.00  0.00    +0.000 C 
BRANCH   8   9
ATOM      9  C   UNL     1      54.310   1.741  18.522  0.00  0.00    +0.000 C 
ATOM     10  C   UNL     1      54.781   2.082  17.089  0.00  0.00    +0.000 C 
ATOM     11  C   UNL     1      55.538   0.933  16.432  0.00  0.00    +0.000 C 
ATOM     12  C   UNL     1      54.729  -0.355  16.525  0.00  0.00    +0.000 C 
ATOM     13  C   UNL     1      54.349  -0.640  17.971  0.00  0.00    +0.000 C 
ATOM     14  N   UNL     1      53.569   0.457  18.542  0.00  0.00    +0.000 NA
ATOM     15  H   UNL     1      53.339   0.214  19.504  0.00  0.00    +0.000 HD
ENDBRANCH   8   9
BRANCH   8  16
ATOM     16  N   UNL     1      54.185   3.671  20.104  0.00  0.00    +0.000 NA
ATOM     17  H   UNL     1      53.661   4.495  20.391  0.00  0.00    +0.000 HD
ATOM     18  H   UNL     1      55.043   4.000  19.653  0.00  0.00    +0.000 HD
ENDBRANCH   8  16
ENDBRANCH   7   8
ENDBRANCH   1   7
BRANCH   4  19
ATOM     19  C   UNL     1      47.190   3.381  16.824  0.00  0.00    +0.000 C 
BRANCH  19  20
ATOM     20  N   UNL     1      46.782   4.363  15.856  0.00  0.00    +0.000 N 
ATOM     21  C   UNL     1      46.868   4.141  14.508  0.00  0.00    +0.000 C 
ATOM     22  O   UNL     1      47.256   3.072  14.044  0.00  0.00    +0.000 OA
ATOM     23  H   UNL     1      46.689   5.313  16.195  0.00  0.00    +0.000 HD
BRANCH  21  24
ATOM     24  C   UNL     1      46.406   5.235  13.645  0.00  0.00    +0.000 A 
ATOM     25  C   UNL     1      47.233   6.325  13.409  0.00  0.00    +0.000 A 
ATOM     26  S   UNL     1      46.578   7.453  12.311  0.00  0.00    +0.000 S 
ATOM     27  C   UNL     1      45.142   6.554  12.154  0.00  0.00    +0.000 A 
ATOM     28  N   UNL     1      44.134   6.976  11.345  0.00  0.00    +0.000 NA
ATOM     29  C   UNL     1      43.093   6.211  11.344  0.00  0.00    +0.000 A 
ATOM     30  N   UNL     1      42.968   5.063  12.082  0.00  0.00    +0.000 N 
ATOM     31  C   UNL     1      43.963   4.591  12.903  0.00  0.00    +0.000 A 
ATOM     32  O   UNL     1      43.822   3.552  13.538  0.00  0.00    +0.000 OA
ATOM     33  C   UNL     1      45.162   5.408  12.930  0.00  0.00    +0.000 A 
ATOM     34  H   UNL     1      42.125   4.509  12.042  0.00  0.00    +0.000 HD
ENDBRANCH  21  24
ENDBRANCH  19  20
ENDBRANCH   4  19
TORSDOF 7
ENDMDL
MODEL 4
REMARK VINA RESULT:    -7.033      1.815      2.284
REMARK INTER + INTRA:         -10.891
REMARK INTER:                 -10.758
REMARK INTRA:                  -0.133
REMARK UNBOUND:                -1.186
REMARK  Name = 
REMARK  7 active torsions:
REMARK  status: ('A' for Active; 'I' for Inactive)
REMARK    1  A    between atoms: N_1  and  C_2
REMARK    2  A    between atoms: C_2  and  C_3
REMARK    3  A    between atoms: C_2  and  C_24
REMARK    4  A    between atoms: C_3  and  C_4
REMARK    5  A    between atoms: C_7  and  C_8
REMARK    6  A    between atoms: C_8  and  N_9
REMARK    7  A    between atoms: C_10  and  C_12
REMARK                            x       y       z     vdW  Elec       q    Type
REMARK                         _______ _______ _______ _____ _____    ______ ____
ROOT
ATOM      1  C   UNL     1      44.892   5.058  10.817  0.00  0.00    +0.000 A 
ATOM      2  C   UNL     1      45.345   6.371  10.623  0.00  0.00    +0.000 A 
ATOM      3  C   UNL     1      46.219   6.967  11.537  0.00  0.00    +0.000 A 
ATOM      4  C   UNL     1      46.667   6.256  12.658  0.00  0.00    +0.000 A 
ATOM      5  C   UNL     1      46.190   4.956  12.868  0.00  0.00    +0.000 A 
ATOM      6  C   UNL     1      45.313   4.362  11.956  0.00  0.00    +0.000 A 
ENDROOT
BRANCH   1   7
ATOM      7  C   UNL     1      43.954   4.419   9.813  0.00  0.00    +0.000 C 
BRANCH   7   8
ATOM      8  C   UNL     1      44.184   2.901   9.578  0.00  0.00    +0.000 C 
BRANCH   8   9
ATOM      9  C   UNL     1      45.565   2.630   8.873  0.00  0.00    +0.000 C 
ATOM     10  C   UNL     1      45.748   3.589   7.675  0.00  0.00    +0.000 C 
ATOM     11  C   UNL     1      47.010   3.290   6.872  0.00  0.00    +0.000 C 
ATOM     12  C   UNL     1      47.061   1.816   6.495  0.00  0.00    +0.000 C 
ATOM     13  C   UNL     1      46.922   0.944   7.736  0.00  0.00    +0.000 C 
ATOM     14  N   UNL     1      45.669   1.217   8.439  0.00  0.00    +0.000 NA
ATOM     15  H   UNL     1      45.625   0.607   9.254  0.00  0.00    +0.000 HD
ENDBRANCH   8   9
BRANCH   8  16
ATOM     16  N   UNL     1      44.109   2.145  10.844  0.00  0.00    +0.000 NA
ATOM     17  H   UNL     1      45.018   2.137  11.302  0.00  0.00    +0.000 HD
ATOM     18  H   UNL     1      43.882   1.176  10.606  0.00  0.00    +0.000 HD
ENDBRANCH   8  16
ENDBRANCH   7   8
ENDBRANCH   1   7
BRANCH   4  19
ATOM     19  C   UNL     1      47.584   6.903  13.665  0.00  0.00    +0.000 C 
BRANCH  19  20
ATOM     20  N   UNL     1      47.609   6.133  14.879  0.00  0.00    +0.000 N 
ATOM     21  C   UNL     1      48.735   6.019  15.650  0.00  0.00    +0.000 C 
ATOM     22  O   UNL     1      49.778   6.604  15.375  0.00  0.00    +0.000 OA
ATOM     23  H   UNL     1      46.857   5.464  15.000  0.00  0.00    +0.000 HD
BRANCH  21  24
ATOM     24  C   UNL     1      48.602   5.205  16.865  0.00  0.00    +0.000 A 
ATOM     25  C   UNL     1      48.317   3.851  16.761  0.00  0.00    +0.000 A 
ATOM     26  S   UNL     1      48.293   3.041  18.263  0.00  0.00    +0.000 S 
ATOM     27  C   UNL     1      48.608   4.483  19.109  0.00  0.00    +0.000 A 
ATOM     28  N   UNL     1      48.713   4.492  20.465  0.00  0.00    +0.000 NA
ATOM     29  C   UNL     1      48.925   5.659  20.977  0.00  0.00    +0.000 A 
ATOM     30  N   UNL     1      49.040   6.818  20.256  0.00  0.00    +0.000 N 
ATOM     31  C   UNL     1      48.955   6.856  18.885  0.00  0.00    +0.000 A 
ATOM     32  O   UNL     1      49.077   7.910  18.271  0.00  0.00    +0.000 OA
ATOM     33  C   UNL     1      48.729   5.567  18.258  0.00  0.00    +0.000 A 
ATOM     34  H   UNL     1      49.202   7.702  20.715  0.00  0.00    +0.000 HD
ENDBRANCH  21  24
ENDBRANCH  19  20
ENDBRANCH   4  19
TORSDOF 7
ENDMDL
MODEL 5
REMARK VINA RESULT:    -6.943      1.939      2.890
REMARK INTER + INTRA:         -10.767
REMARK INTER:                  -9.516
REMARK INTRA:                  -1.251
REMARK UNBOUND:                -1.186
REMARK  Name = 
REMARK  7 active torsions:
REMARK  status: ('A' for Active; 'I' for Inactive)
REMARK    1  A    between atoms: N_1  and  C_2
REMARK    2  A    between atoms: C_2  and  C_3
REMARK    3  A    between atoms: C_2  and  C_24
REMARK    4  A    between atoms: C_3  and  C_4
REMARK    5  A    between atoms: C_7  and  C_8
REMARK    6  A    between atoms: C_8  and  N_9
REMARK    7  A    between atoms: C_10  and  C_12
REMARK                            x       y       z     vdW  Elec       q    Type
REMARK                         _______ _______ _______ _____ _____    ______ ____
ROOT
ATOM      1  C   UNL     1      45.476   7.526  11.752  0.00  0.00    +0.000 A 
ATOM      2  C   UNL     1      45.654   8.571  12.670  0.00  0.00    +0.000 A 
ATOM      3  C   UNL     1      46.881   8.754  13.315  0.00  0.00    +0.000 A 
ATOM      4  C   UNL     1      47.959   7.901  13.045  0.00  0.00    +0.000 A 
ATOM      5  C   UNL     1      47.772   6.839  12.151  0.00  0.00    +0.000 A 
ATOM      6  C   UNL     1      46.544   6.654  11.510  0.00  0.00    +0.000 A 
ENDROOT
BRANCH   1   7
ATOM      7  C   UNL     1      44.146   7.344  11.051  0.00  0.00    +0.000 C 
BRANCH   7   8
ATOM      8  C   UNL     1      43.246   6.222  11.635  0.00  0.00    +0.000 C 
BRANCH   8   9
ATOM      9  C   UNL     1      43.325   4.910  10.769  0.00  0.00    +0.000 C 
ATOM     10  C   UNL     1      43.754   3.715  11.652  0.00  0.00    +0.000 C 
ATOM     11  C   UNL     1      43.974   2.440  10.845  0.00  0.00    +0.000 C 
ATOM     12  C   UNL     1      44.910   2.709   9.674  0.00  0.00    +0.000 C 
ATOM     13  C   UNL     1      44.389   3.865   8.832  0.00  0.00    +0.000 C 
ATOM     14  N   UNL     1      44.255   5.084   9.629  0.00  0.00    +0.000 NA
ATOM     15  H   UNL     1      43.909   5.824   9.019  0.00  0.00    +0.000 HD
ENDBRANCH   8   9
BRANCH   8  16
ATOM     16  N   UNL     1      43.604   5.922  13.036  0.00  0.00    +0.000 NA
ATOM     17  H   UNL     1      43.273   4.994  13.291  0.00  0.00    +0.000 HD
ATOM     18  H   UNL     1      43.107   6.593  13.627  0.00  0.00    +0.000 HD
ENDBRANCH   8  16
ENDBRANCH   7   8
ENDBRANCH   1   7
BRANCH   4  19
ATOM     19  C   UNL     1      49.275   8.073  13.759  0.00  0.00    +0.000 C 
BRANCH  19  20
ATOM     20  N   UNL     1      49.377   7.133  14.843  0.00  0.00    +0.000 N 
ATOM     21  C   UNL     1      49.048   7.463  16.131  0.00  0.00    +0.000 C 
ATOM     22  O   UNL     1      48.601   8.566  16.430  0.00  0.00    +0.000 OA
ATOM     23  H   UNL     1      49.954   6.317  14.674  0.00  0.00    +0.000 HD
BRANCH  21  24
ATOM     24  C   UNL     1      49.198   6.394  17.126  0.00  0.00    +0.000 A 
ATOM     25  C   UNL     1      50.048   6.574  18.209  0.00  0.00    +0.000 A 
ATOM     26  S   UNL     1      50.029   5.275  19.315  0.00  0.00    +0.000 S 
ATOM     27  C   UNL     1      48.927   4.402  18.357  0.00  0.00    +0.000 A 
ATOM     28  N   UNL     1      48.486   3.173  18.738  0.00  0.00    +0.000 NA
ATOM     29  C   UNL     1      47.675   2.613  17.902  0.00  0.00    +0.000 A 
ATOM     30  N   UNL     1      47.267   3.170  16.719  0.00  0.00    +0.000 N 
ATOM     31  C   UNL     1      47.675   4.412  16.299  0.00  0.00    +0.000 A 
ATOM     32  O   UNL     1      47.279   4.886  15.240  0.00  0.00    +0.000 OA
ATOM     33  C   UNL     1      48.579   5.091  17.209  0.00  0.00    +0.000 A 
ATOM     34  H   UNL     1      46.634   2.679  16.105  0.00  0.00    +0.000 HD
ENDBRANCH  21  24
ENDBRANCH  19  20
ENDBRANCH   4  19
TORSDOF 7
ENDMDL
MODEL 6
REMARK VINA RESULT:    -6.788      4.170      9.099
REMARK INTER + INTRA:         -10.554
REMARK INTER:                  -9.223
REMARK INTRA:                  -1.331
REMARK UNBOUND:                -1.186
REMARK  Name = 
REMARK  7 active torsions:
REMARK  status: ('A' for Active; 'I' for Inactive)
REMARK    1  A    between atoms: N_1  and  C_2
REMARK    2  A    between atoms: C_2  and  C_3
REMARK    3  A    between atoms: C_2  and  C_24
REMARK    4  A    between atoms: C_3  and  C_4
REMARK    5  A    between atoms: C_7  and  C_8
REMARK    6  A    between atoms: C_8  and  N_9
REMARK    7  A    between atoms: C_10  and  C_12
REMARK                            x       y       z     vdW  Elec       q    Type
REMARK                         _______ _______ _______ _____ _____    ______ ____
ROOT
ATOM      1  C   UNL     1      51.547   3.662  17.835  0.00  0.00    +0.000 A 
ATOM      2  C   UNL     1      50.741   4.791  18.038  0.00  0.00    +0.000 A 
ATOM      3  C   UNL     1      49.364   4.737  17.801  0.00  0.00    +0.000 A 
ATOM      4  C   UNL     1      48.764   3.548  17.367  0.00  0.00    +0.000 A 
ATOM      5  C   UNL     1      49.574   2.430  17.135  0.00  0.00    +0.000 A 
ATOM      6  C   UNL     1      50.951   2.485  17.368  0.00  0.00    +0.000 A 
ENDROOT
BRANCH   1   7
ATOM      7  C   UNL     1      53.036   3.729  18.106  0.00  0.00    +0.000 C 
BRANCH   7   8
ATOM      8  C   UNL     1      53.543   2.763  19.211  0.00  0.00    +0.000 C 
BRANCH   8   9
ATOM      9  C   UNL     1      54.376   1.575  18.600  0.00  0.00    +0.000 C 
ATOM     10  C   UNL     1      54.809   1.917  17.156  0.00  0.00    +0.000 C 
ATOM     11  C   UNL     1      55.511   0.753  16.463  0.00  0.00    +0.000 C 
ATOM     12  C   UNL     1      54.669  -0.512  16.572  0.00  0.00    +0.000 C 
ATOM     13  C   UNL     1      54.328  -0.801  18.027  0.00  0.00    +0.000 C 
ATOM     14  N   UNL     1      53.600   0.313  18.634  0.00  0.00    +0.000 NA
ATOM     15  H   UNL     1      53.395   0.067  19.601  0.00  0.00    +0.000 HD
ENDBRANCH   8   9
BRANCH   8  16
ATOM     16  N   UNL     1      54.352   3.478  20.219  0.00  0.00    +0.000 NA
ATOM     17  H   UNL     1      54.146   4.474  20.191  0.00  0.00    +0.000 HD
ATOM     18  H   UNL     1      55.335   3.365  19.955  0.00  0.00    +0.000 HD
ENDBRANCH   8  16
ENDBRANCH   7   8
ENDBRANCH   1   7
BRANCH   4  19
ATOM     19  C   UNL     1      47.286   3.492  17.079  0.00  0.00    +0.000 C 
BRANCH  19  20
ATOM     20  N   UNL     1      46.951   4.407  16.022  0.00  0.00    +0.000 N 
ATOM     21  C   UNL     1      47.057   4.068  14.700  0.00  0.00    +0.000 C 
ATOM     22  O   UNL     1      47.401   2.947  14.337  0.00  0.00    +0.000 OA
ATOM     23  H   UNL     1      46.898   5.386  16.278  0.00  0.00    +0.000 HD
BRANCH  21  24
ATOM     24  C   UNL     1      46.671   5.107  13.736  0.00  0.00    +0.000 A 
ATOM     25  C   UNL     1      45.541   4.933  12.949  0.00  0.00    +0.000 A 
ATOM     26  S   UNL     1      45.187   6.275  11.958  0.00  0.00    +0.000 S 
ATOM     27  C   UNL     1      46.562   7.114  12.504  0.00  0.00    +0.000 A 
ATOM     28  N   UNL     1      46.858   8.356  12.039  0.00  0.00    +0.000 NA
ATOM     29  C   UNL     1      47.945   8.863  12.518  0.00  0.00    +0.000 A 
ATOM     30  N   UNL     1      48.766   8.238  13.419  0.00  0.00    +0.000 N 
ATOM     31  C   UNL     1      48.502   6.989  13.927  0.00  0.00    +0.000 A 
ATOM     32  O   UNL     1      49.251   6.465  14.744  0.00  0.00    +0.000 OA
ATOM     33  C   UNL     1      47.282   6.380  13.430  0.00  0.00    +0.000 A 
ATOM     34  H   UNL     1      49.607   8.685  13.754  0.00  0.00    +0.000 HD
ENDBRANCH  21  24
ENDBRANCH  19  20
ENDBRANCH   4  19
TORSDOF 7
ENDMDL
MODEL 7
REMARK VINA RESULT:    -6.750      3.799      8.596
REMARK INTER + INTRA:         -10.502
REMARK INTER:                  -9.615
REMARK INTRA:                  -0.887
REMARK UNBOUND:                -1.186
REMARK  Name = 
REMARK  7 active torsions:
REMARK  status: ('A' for Active; 'I' for Inactive)
REMARK    1  A    between atoms: N_1  and  C_2
REMARK    2  A    between atoms: C_2  and  C_3
REMARK    3  A    between atoms: C_2  and  C_24
REMARK    4  A    between atoms: C_3  and  C_4
REMARK    5  A    between atoms: C_7  and  C_8
REMARK    6  A    between atoms: C_8  and  N_9
REMARK    7  A    between atoms: C_10  and  C_12
REMARK                            x       y       z     vdW  Elec       q    Type
REMARK                         _______ _______ _______ _____ _____    ______ ____
ROOT
ATOM      1  C   UNL     1      50.701   4.582  17.571  0.00  0.00    +0.000 A 
ATOM      2  C   UNL     1      51.551   5.549  17.014  0.00  0.00    +0.000 A 
ATOM      3  C   UNL     1      51.030   6.624  16.288  0.00  0.00    +0.000 A 
ATOM      4  C   UNL     1      49.647   6.760  16.114  0.00  0.00    +0.000 A 
ATOM      5  C   UNL     1      48.801   5.777  16.643  0.00  0.00    +0.000 A 
ATOM      6  C   UNL     1      49.322   4.701  17.366  0.00  0.00    +0.000 A 
ENDROOT
BRANCH   1   7
ATOM      7  C   UNL     1      51.276   3.428  18.366  0.00  0.00    +0.000 C 
BRANCH   7   8
ATOM      8  C   UNL     1      51.787   2.236  17.512  0.00  0.00    +0.000 C 
BRANCH   8   9
ATOM      9  C   UNL     1      53.287   1.891  17.842  0.00  0.00    +0.000 C 
ATOM     10  C   UNL     1      53.610   0.445  17.401  0.00  0.00    +0.000 C 
ATOM     11  C   UNL     1      55.013   0.008  17.810  0.00  0.00    +0.000 C 
ATOM     12  C   UNL     1      55.235   0.263  19.295  0.00  0.00    +0.000 C 
ATOM     13  C   UNL     1      54.942   1.718  19.633  0.00  0.00    +0.000 C 
ATOM     14  N   UNL     1      53.568   2.078  19.285  0.00  0.00    +0.000 NA
ATOM     15  H   UNL     1      53.424   3.055  19.535  0.00  0.00    +0.000 HD
ENDBRANCH   8   9
BRANCH   8  16
ATOM     16  N   UNL     1      50.943   1.039  17.703  0.00  0.00    +0.000 NA
ATOM     17  H   UNL     1      50.440   1.102  18.585  0.00  0.00    +0.000 HD
ATOM     18  H   UNL     1      51.570   0.233  17.769  0.00  0.00    +0.000 HD
ENDBRANCH   8  16
ENDBRANCH   7   8
ENDBRANCH   1   7
BRANCH   4  19
ATOM     19  C   UNL     1      49.080   7.899  15.305  0.00  0.00    +0.000 C 
BRANCH  19  20
ATOM     20  N   UNL     1      47.897   7.472  14.608  0.00  0.00    +0.000 N 
ATOM     21  C   UNL     1      47.951   6.801  13.416  0.00  0.00    +0.000 C 
ATOM     22  O   UNL     1      49.015   6.483  12.893  0.00  0.00    +0.000 OA
ATOM     23  H   UNL     1      47.030   7.919  14.885  0.00  0.00    +0.000 HD
BRANCH  21  24
ATOM     24  C   UNL     1      46.659   6.425  12.830  0.00  0.00    +0.000 A 
ATOM     25  C   UNL     1      45.838   7.402  12.283  0.00  0.00    +0.000 A 
ATOM     26  S   UNL     1      44.423   6.780  11.562  0.00  0.00    +0.000 S 
ATOM     27  C   UNL     1      44.829   5.189  12.005  0.00  0.00    +0.000 A 
ATOM     28  N   UNL     1      44.020   4.143  11.687  0.00  0.00    +0.000 NA
ATOM     29  C   UNL     1      44.437   2.996  12.110  0.00  0.00    +0.000 A 
ATOM     30  N   UNL     1      45.589   2.799  12.824  0.00  0.00    +0.000 N 
ATOM     31  C   UNL     1      46.444   3.822  13.156  0.00  0.00    +0.000 A 
ATOM     32  O   UNL     1      47.475   3.607  13.784  0.00  0.00    +0.000 OA
ATOM     33  C   UNL     1      46.028   5.133  12.694  0.00  0.00    +0.000 A 
ATOM     34  H   UNL     1      45.859   1.877  13.130  0.00  0.00    +0.000 HD
ENDBRANCH  21  24
ENDBRANCH  19  20
ENDBRANCH   4  19
TORSDOF 7
ENDMDL
MODEL 8
REMARK VINA RESULT:    -6.449      3.747      8.807
REMARK INTER + INTRA:         -10.085
REMARK INTER:                  -8.805
REMARK INTRA:                  -1.280
REMARK UNBOUND:                -1.186
REMARK  Name = 
REMARK  7 active torsions:
REMARK  status: ('A' for Active; 'I' for Inactive)
REMARK    1  A    between atoms: N_1  and  C_2
REMARK    2  A    between atoms: C_2  and  C_3
REMARK    3  A    between atoms: C_2  and  C_24
REMARK    4  A    between atoms: C_3  and  C_4
REMARK    5  A    between atoms: C_7  and  C_8
REMARK    6  A    between atoms: C_8  and  N_9
REMARK    7  A    between atoms: C_10  and  C_12
REMARK                            x       y       z     vdW  Elec       q    Type
REMARK                         _______ _______ _______ _____ _____    ______ ____
ROOT
ATOM      1  C   UNL     1      51.092   4.792  17.934  0.00  0.00    +0.000 A 
ATOM      2  C   UNL     1      50.046   5.715  17.788  0.00  0.00    +0.000 A 
ATOM      3  C   UNL     1      48.774   5.295  17.390  0.00  0.00    +0.000 A 
ATOM      4  C   UNL     1      48.519   3.940  17.140  0.00  0.00    +0.000 A 
ATOM      5  C   UNL     1      49.572   3.023  17.256  0.00  0.00    +0.000 A 
ATOM      6  C   UNL     1      50.844   3.444  17.651  0.00  0.00    +0.000 A 
ENDROOT
BRANCH   1   7
ATOM      7  C   UNL     1      52.464   5.257  18.379  0.00  0.00    +0.000 C 
BRANCH   7   8
ATOM      8  C   UNL     1      53.509   5.395  17.238  0.00  0.00    +0.000 C 
BRANCH   8   9
ATOM      9  C   UNL     1      53.492   6.839  16.613  0.00  0.00    +0.000 C 
ATOM     10  C   UNL     1      53.088   7.878  17.684  0.00  0.00    +0.000 C 
ATOM     11  C   UNL     1      52.929   9.282  17.109  0.00  0.00    +0.000 C 
ATOM     12  C   UNL     1      52.007   9.256  15.897  0.00  0.00    +0.000 C 
ATOM     13  C   UNL     1      52.503   8.244  14.873  0.00  0.00    +0.000 C 
ATOM     14  N   UNL     1      52.579   6.901  15.447  0.00  0.00    +0.000 NA
ATOM     15  H   UNL     1      52.911   6.266  14.723  0.00  0.00    +0.000 HD
ENDBRANCH   8   9
BRANCH   8  16
ATOM     16  N   UNL     1      54.868   5.069  17.713  0.00  0.00    +0.000 NA
ATOM     17  H   UNL     1      54.819   4.560  18.594  0.00  0.00    +0.000 HD
ATOM     18  H   UNL     1      55.345   5.954  17.902  0.00  0.00    +0.000 HD
ENDBRANCH   8  16
ENDBRANCH   7   8
ENDBRANCH   1   7
BRANCH   4  19
ATOM     19  C   UNL     1      47.159   3.484  16.679  0.00  0.00    +0.000 C 
BRANCH  19  20
ATOM     20  N   UNL     1      46.626   4.408  15.714  0.00  0.00    +0.000 N 
ATOM     21  C   UNL     1      46.758   4.214  14.365  0.00  0.00    +0.000 C 
ATOM     22  O   UNL     1      47.298   3.216  13.898  0.00  0.00    +0.000 OA
ATOM     23  H   UNL     1      46.396   5.333  16.061  0.00  0.00    +0.000 HD
BRANCH  21  24
ATOM     24  C   UNL     1      46.155   5.241  13.506  0.00  0.00    +0.000 A 
ATOM     25  C   UNL     1      46.862   6.399  13.213  0.00  0.00    +0.000 A 
ATOM     26  S   UNL     1      46.054   7.436  12.127  0.00  0.00    +0.000 S 
ATOM     27  C   UNL     1      44.705   6.402  12.054  0.00  0.00    +0.000 A 
ATOM     28  N   UNL     1      43.626   6.709  11.286  0.00  0.00    +0.000 NA
ATOM     29  C   UNL     1      42.664   5.849  11.347  0.00  0.00    +0.000 A 
ATOM     30  N   UNL     1      42.682   4.711  12.110  0.00  0.00    +0.000 N 
ATOM     31  C   UNL     1      43.754   4.354  12.891  0.00  0.00    +0.000 A 
ATOM     32  O   UNL     1      43.741   3.320  13.550  0.00  0.00    +0.000 OA
ATOM     33  C   UNL     1      44.869   5.281  12.848  0.00  0.00    +0.000 A 
ATOM     34  H   UNL     1      41.895   4.079  12.119  0.00  0.00    +0.000 HD
ENDBRANCH  21  24
ENDBRANCH  19  20
ENDBRANCH   4  19
TORSDOF 7
ENDMDL
MODEL 9
REMARK VINA RESULT:    -6.297      2.510      3.952
REMARK INTER + INTRA:          -9.877
REMARK INTER:                  -8.871
REMARK INTRA:                  -1.005
REMARK UNBOUND:                -1.186
REMARK  Name = 
REMARK  7 active torsions:
REMARK  status: ('A' for Active; 'I' for Inactive)
REMARK    1  A    between atoms: N_1  and  C_2
REMARK    2  A    between atoms: C_2  and  C_3
REMARK    3  A    between atoms: C_2  and  C_24
REMARK    4  A    between atoms: C_3  and  C_4
REMARK    5  A    between atoms: C_7  and  C_8
REMARK    6  A    between atoms: C_8  and  N_9
REMARK    7  A    between atoms: C_10  and  C_12
REMARK                            x       y       z     vdW  Elec       q    Type
REMARK                         _______ _______ _______ _____ _____    ______ ____
ROOT
ATOM      1  C   UNL     1      45.913   7.565  12.077  0.00  0.00    +0.000 A 
ATOM      2  C   UNL     1      45.992   8.651  12.961  0.00  0.00    +0.000 A 
ATOM      3  C   UNL     1      47.135   8.857  13.739  0.00  0.00    +0.000 A 
ATOM      4  C   UNL     1      48.228   7.987  13.638  0.00  0.00    +0.000 A 
ATOM      5  C   UNL     1      48.137   6.886  12.778  0.00  0.00    +0.000 A 
ATOM      6  C   UNL     1      46.992   6.677  12.004  0.00  0.00    +0.000 A 
ENDROOT
BRANCH   1   7
ATOM      7  C   UNL     1      44.673   7.359  11.230  0.00  0.00    +0.000 C 
BRANCH   7   8
ATOM      8  C   UNL     1      43.668   6.314  11.786  0.00  0.00    +0.000 C 
BRANCH   8   9
ATOM      9  C   UNL     1      43.581   5.047  10.856  0.00  0.00    +0.000 C 
ATOM     10  C   UNL     1      43.842   3.764  11.678  0.00  0.00    +0.000 C 
ATOM     11  C   UNL     1      43.898   2.512  10.809  0.00  0.00    +0.000 C 
ATOM     12  C   UNL     1      44.870   2.713   9.654  0.00  0.00    +0.000 C 
ATOM     13  C   UNL     1      44.513   3.968   8.870  0.00  0.00    +0.000 C 
ATOM     14  N   UNL     1      44.534   5.153   9.726  0.00  0.00    +0.000 NA
ATOM     15  H   UNL     1      44.293   5.961   9.154  0.00  0.00    +0.000 HD
ENDBRANCH   8   9
BRANCH   8  16
ATOM     16  N   UNL     1      44.024   5.906  13.159  0.00  0.00    +0.000 NA
ATOM     17  H   UNL     1      43.780   4.929  13.309  0.00  0.00    +0.000 HD
ATOM     18  H   UNL     1      43.451   6.461  13.800  0.00  0.00    +0.000 HD
ENDBRANCH   8  16
ENDBRANCH   7   8
ENDBRANCH   1   7
BRANCH   4  19
ATOM     19  C   UNL     1      49.451   8.184  14.497  0.00  0.00    +0.000 C 
BRANCH  19  20
ATOM     20  N   UNL     1      49.797   6.955  15.158  0.00  0.00    +0.000 N 
ATOM     21  C   UNL     1      49.393   6.672  16.435  0.00  0.00    +0.000 C 
ATOM     22  O   UNL     1      48.672   7.430  17.076  0.00  0.00    +0.000 OA
ATOM     23  H   UNL     1      50.568   6.433  14.757  0.00  0.00    +0.000 HD
BRANCH  21  24
ATOM     24  C   UNL     1      49.819   5.373  16.972  0.00  0.00    +0.000 A 
ATOM     25  C   UNL     1      48.874   4.392  17.236  0.00  0.00    +0.000 A 
ATOM     26  S   UNL     1      49.550   2.917  17.762  0.00  0.00    +0.000 S 
ATOM     27  C   UNL     1      51.126   3.555  17.709  0.00  0.00    +0.000 A 
ATOM     28  N   UNL     1      52.202   2.797  18.049  0.00  0.00    +0.000 NA
ATOM     29  C   UNL     1      53.334   3.417  17.990  0.00  0.00    +0.000 A 
ATOM     30  N   UNL     1      53.487   4.728  17.623  0.00  0.00    +0.000 N 
ATOM     31  C   UNL     1      52.432   5.529  17.259  0.00  0.00    +0.000 A 
ATOM     32  O   UNL     1      52.607   6.694  16.922  0.00  0.00    +0.000 OA
ATOM     33  C   UNL     1      51.136   4.875  17.296  0.00  0.00    +0.000 A 
ATOM     34  H   UNL     1      54.399   5.159  17.601  0.00  0.00    +0.000 HD
ENDBRANCH  21  24
ENDBRANCH  19  20
ENDBRANCH   4  19
TORSDOF 7
ENDMDL
