MODEL 1
REMARK VINA RESULT:    -7.753      0.000      0.000
REMARK INTER + INTRA:         -10.776
REMARK INTER:                 -10.246
REMARK INTRA:                  -0.530
REMARK UNBOUND:                -0.530
REMARK  Name = 
REMARK  6 active torsions:
REMARK  status: ('A' for Active; 'I' for Inactive)
REMARK    1  A    between atoms: N_1  and  C_2
REMARK    2  A    between atoms: C_2  and  C_3
REMARK    3  A    between atoms: C_6  and  O_7
REMARK    4  A    between atoms: O_7  and  C_8
REMARK    5  A    between atoms: C_8  and  C_9
REMARK    6  A    between atoms: C_12  and  C_13
REMARK                            x       y       z     vdW  Elec       q    Type
REMARK                         _______ _______ _______ _____ _____    ______ ____
ROOT
ATOM      1  C   UNL     1      45.028   5.566  10.423  0.00  0.00    +0.000 C 
ENDROOT
BRANCH   1   2
ATOM      2  C   UNL     1      45.669   5.343  11.763  0.00  0.00    +0.000 A 
ATOM      3  C   UNL     1      46.761   6.078  12.231  0.00  0.00    +0.000 A 
ATOM      4  C   UNL     1      47.296   5.794  13.486  0.00  0.00    +0.000 A 
ATOM      5  C   UNL     1      46.716   4.775  14.231  0.00  0.00    +0.000 A 
ATOM      6  N   UNL     1      45.656   4.028  13.805  0.00  0.00    +0.000 NA
ATOM      7  C   UNL     1      45.168   4.334  12.585  0.00  0.00    +0.000 A 
BRANCH   5   8
ATOM      8  C   UNL     1      47.239   4.455  15.592  0.00  0.00    +0.000 C 
ATOM      9  N   UNL     1      47.834   5.501  16.249  0.00  0.00    +0.000 N 
ATOM     10  O   UNL     1      47.151   3.344  16.100  0.00  0.00    +0.000 OA
ATOM     11  H   UNL     1      47.897   6.402  15.786  0.00  0.00    +0.000 HD
ATOM     12  H   UNL     1      48.237   5.356  17.161  0.00  0.00    +0.000 HD
ENDBRANCH   5   8
ENDBRANCH   1   2
BRANCH   1  13
ATOM     13  O   UNL     1      44.119   4.521  10.080  0.00  0.00    +0.000 OA
BRANCH  13  17
ATOM     14  C   UNL     1      46.805   2.151   7.727  0.00  0.00    +0.000 C 
ATOM     15  C   UNL     1      45.626   1.460   8.425  0.00  0.00    +0.000 C 
ATOM     16  C   UNL     1      45.023   2.315   9.525  0.00  0.00    +0.000 C 
ATOM     17  C   UNL     1      44.592   3.692   9.012  0.00  0.00    +0.000 C 
ATOM     18  C   UNL     1      45.784   4.400   8.362  0.00  0.00    +0.000 C 
ATOM     19  C   UNL     1      46.411   3.560   7.250  0.00  0.00    +0.000 C 
BRANCH  14  20
ATOM     20  C   UNL     1      47.289   1.255   6.574  0.00  0.00    +0.000 C 
BRANCH  20  21
ATOM     21  N   UNL     1      48.381   1.860   5.824  0.00  0.00    +0.000 NA
ATOM     22  H   UNL     1      48.225   2.864   5.750  0.00  0.00    +0.000 HD
ATOM     23  H   UNL     1      48.386   1.498   4.872  0.00  0.00    +0.000 HD
ENDBRANCH  20  21
ENDBRANCH  14  20
ENDBRANCH  13  17
ENDBRANCH   1  13
TORSDOF 6
ENDMDL
MODEL 2
REMARK VINA RESULT:    -7.470      1.820      6.721
REMARK INTER + INTRA:         -10.402
REMARK INTER:                  -9.815
REMARK INTRA:                  -0.587
REMARK UNBOUND:                -0.530
REMARK  Name = 
REMARK  6 active torsions:
REMARK  status: ('A' for Active; 'I' for Inactive)
REMARK    1  A    between atoms: N_1  and  C_2
REMARK    2  A    between atoms: C_2  and  C_3
REMARK    3  A    between atoms: C_6  and  O_7
REMARK    4  A    between atoms: O_7  and  C_8
REMARK    5  A    between atoms: C_8  and  C_9
REMARK    6  A    between atoms: C_12  and  C_13
REMARK                            x       y       z     vdW  Elec       q    Type
REMARK                         _______ _______ _______ _____ _____    ______ ____
ROOT
ATOM      1  C   UNL     1      43.767   4.681  10.222  0.00  0.00    +0.000 C 
ENDROOT
BRANCH   1   2
ATOM      2  C   UNL     1      44.697   3.860   9.374  0.00  0.00    +0.000 A 
ATOM      3  C   UNL     1      44.792   2.469   9.452  0.00  0.00    +0.000 A 
ATOM      4  C   UNL     1      45.691   1.793   8.631  0.00  0.00    +0.000 A 
ATOM      5  C   UNL     1      46.470   2.539   7.756  0.00  0.00    +0.000 A 
ATOM      6  N   UNL     1      46.414   3.899   7.657  0.00  0.00    +0.000 NA
ATOM      7  C   UNL     1      45.532   4.516   8.470  0.00  0.00    +0.000 A 
BRANCH   5   8
ATOM      8  C   UNL     1      47.427   1.853   6.838  0.00  0.00    +0.000 C 
ATOM      9  N   UNL     1      48.500   2.609   6.442  0.00  0.00    +0.000 N 
ATOM     10  O   UNL     1      47.279   0.699   6.457  0.00  0.00    +0.000 OA
ATOM     11  H   UNL     1      48.578   3.566   6.771  0.00  0.00    +0.000 HD
ATOM     12  H   UNL     1      49.174   2.224   5.800  0.00  0.00    +0.000 HD
ENDBRANCH   5   8
ENDBRANCH   1   2
BRANCH   1  13
ATOM     13  O   UNL     1      43.646   4.162  11.546  0.00  0.00    +0.000 OA
BRANCH  13  17
ATOM     14  C   UNL     1      47.202   5.861  13.232  0.00  0.00    +0.000 C 
ATOM     15  C   UNL     1      46.040   6.793  12.862  0.00  0.00    +0.000 C 
ATOM     16  C   UNL     1      45.047   6.134  11.921  0.00  0.00    +0.000 C 
ATOM     17  C   UNL     1      44.503   4.819  12.487  0.00  0.00    +0.000 C 
ATOM     18  C   UNL     1      45.663   3.872  12.807  0.00  0.00    +0.000 C 
ATOM     19  C   UNL     1      46.679   4.511  13.754  0.00  0.00    +0.000 C 
BRANCH  14  20
ATOM     20  C   UNL     1      48.102   6.576  14.255  0.00  0.00    +0.000 C 
BRANCH  20  21
ATOM     21  N   UNL     1      48.239   5.823  15.493  0.00  0.00    +0.000 NA
ATOM     22  H   UNL     1      48.820   5.002  15.327  0.00  0.00    +0.000 HD
ATOM     23  H   UNL     1      47.327   5.474  15.787  0.00  0.00    +0.000 HD
ENDBRANCH  20  21
ENDBRANCH  14  20
ENDBRANCH  13  17
ENDBRANCH   1  13
TORSDOF 6
ENDMDL
MODEL 3
REMARK VINA RESULT:    -7.351      1.454      1.659
REMARK INTER + INTRA:         -10.245
REMARK INTER:                  -9.651
REMARK INTRA:                  -0.594
REMARK UNBOUND:                -0.530
REMARK  Name = 
REMARK  6 active torsions:
REMARK  status: ('A' for Active; 'I' for Inactive)
REMARK    1  A    between atoms: N_1  and  C_2
REMARK    2  A    between atoms: C_2  and  C_3
REMARK    3  A    between atoms: C_6  and  O_7
REMARK    4  A    between atoms: O_7  and  C_8
REMARK    5  A    between atoms: C_8  and  C_9
REMARK    6  A    between atoms: C_12  and  C_13
REMARK                            x       y       z     vdW  Elec       q    Type
REMARK                         _______ _______ _______ _____ _____    ______ ____
ROOT
ATOM      1  C   UNL     1      44.393   3.915  11.366  0.00  0.00    +0.000 C 
ENDROOT
BRANCH   1   2
ATOM      2  C   UNL     1      45.391   4.792  12.067  0.00  0.00    +0.000 A 
ATOM      3  C   UNL     1      45.748   6.068  11.623  0.00  0.00    +0.000 A 
ATOM      4  C   UNL     1      46.692   6.805  12.334  0.00  0.00    +0.000 A 
ATOM      5  C   UNL     1      47.252   6.234  13.470  0.00  0.00    +0.000 A 
ATOM      6  N   UNL     1      46.938   4.989  13.929  0.00  0.00    +0.000 NA
ATOM      7  C   UNL     1      46.020   4.307  13.212  0.00  0.00    +0.000 A 
BRANCH   5   8
ATOM      8  C   UNL     1      48.247   7.000  14.277  0.00  0.00    +0.000 C 
ATOM      9  N   UNL     1      47.801   8.200  14.766  0.00  0.00    +0.000 N 
ATOM     10  O   UNL     1      49.383   6.600  14.496  0.00  0.00    +0.000 OA
ATOM     11  H   UNL     1      46.856   8.501  14.551  0.00  0.00    +0.000 HD
ATOM     12  H   UNL     1      48.425   8.788  15.297  0.00  0.00    +0.000 HD
ENDBRANCH   5   8
ENDBRANCH   1   2
BRANCH   1  13
ATOM     13  O   UNL     1      44.033   4.426  10.084  0.00  0.00    +0.000 OA
BRANCH  13  17
ATOM     14  C   UNL     1      46.787   2.209   7.660  0.00  0.00    +0.000 C 
ATOM     15  C   UNL     1      45.663   1.454   8.383  0.00  0.00    +0.000 C 
ATOM     16  C   UNL     1      45.041   2.274   9.499  0.00  0.00    +0.000 C 
ATOM     17  C   UNL     1      44.525   3.627   9.002  0.00  0.00    +0.000 C 
ATOM     18  C   UNL     1      45.661   4.399   8.326  0.00  0.00    +0.000 C 
ATOM     19  C   UNL     1      46.307   3.596   7.196  0.00  0.00    +0.000 C 
BRANCH  14  20
ATOM     20  C   UNL     1      47.291   1.343   6.492  0.00  0.00    +0.000 C 
BRANCH  20  21
ATOM     21  N   UNL     1      48.541   1.840   5.934  0.00  0.00    +0.000 NA
ATOM     22  H   UNL     1      49.237   1.095   5.950  0.00  0.00    +0.000 HD
ATOM     23  H   UNL     1      48.907   2.588   6.522  0.00  0.00    +0.000 HD
ENDBRANCH  20  21
ENDBRANCH  14  20
ENDBRANCH  13  17
ENDBRANCH   1  13
TORSDOF 6
ENDMDL
MODEL 4
REMARK VINA RESULT:    -7.155      2.317      3.072
REMARK INTER + INTRA:          -9.986
REMARK INTER:                  -9.426
REMARK INTRA:                  -0.560
REMARK UNBOUND:                -0.530
REMARK  Name = 
REMARK  6 active torsions:
REMARK  status: ('A' for Active; 'I' for Inactive)
REMARK    1  A    between atoms: N_1  and  C_2
REMARK    2  A    between atoms: C_2  and  C_3
REMARK    3  A    between atoms: C_6  and  O_7
REMARK    4  A    between atoms: O_7  and  C_8
REMARK    5  A    between atoms: C_8  and  C_9
REMARK    6  A    between atoms: C_12  and  C_13
REMARK                            x       y       z     vdW  Elec       q    Type
REMARK                         _______ _______ _______ _____ _____    ______ ____
ROOT
ATOM      1  C   UNL     1      43.709   3.742  11.591  0.00  0.00    +0.000 C 
ENDROOT
BRANCH   1   2
ATOM      2  C   UNL     1      44.289   5.094  11.895  0.00  0.00    +0.000 A 
ATOM      3  C   UNL     1      43.867   6.274  11.279  0.00  0.00    +0.000 A 
ATOM      4  C   UNL     1      44.472   7.483  11.618  0.00  0.00    +0.000 A 
ATOM      5  C   UNL     1      45.486   7.465  12.567  0.00  0.00    +0.000 A 
ATOM      6  N   UNL     1      45.934   6.333  13.183  0.00  0.00    +0.000 NA
ATOM      7  C   UNL     1      45.323   5.184  12.825  0.00  0.00    +0.000 A 
BRANCH   5   8
ATOM      8  C   UNL     1      46.142   8.741  12.981  0.00  0.00    +0.000 C 
ATOM      9  N   UNL     1      46.845   8.681  14.156  0.00  0.00    +0.000 N 
ATOM     10  O   UNL     1      46.068   9.775  12.329  0.00  0.00    +0.000 OA
ATOM     11  H   UNL     1      46.870   7.807  14.672  0.00  0.00    +0.000 HD
ATOM     12  H   UNL     1      47.292   9.510  14.516  0.00  0.00    +0.000 HD
ENDBRANCH   5   8
ENDBRANCH   1   2
BRANCH   1  13
ATOM     13  O   UNL     1      43.593   3.508  10.188  0.00  0.00    +0.000 OA
BRANCH  13  17
ATOM     14  C   UNL     1      46.396   2.373   7.150  0.00  0.00    +0.000 C 
ATOM     15  C   UNL     1      46.388   3.826   7.643  0.00  0.00    +0.000 C 
ATOM     16  C   UNL     1      45.112   4.177   8.388  0.00  0.00    +0.000 C 
ATOM     17  C   UNL     1      44.849   3.226   9.559  0.00  0.00    +0.000 C 
ATOM     18  C   UNL     1      44.808   1.781   9.055  0.00  0.00    +0.000 C 
ATOM     19  C   UNL     1      46.082   1.400   8.301  0.00  0.00    +0.000 C 
BRANCH  14  20
ATOM     20  C   UNL     1      47.757   2.083   6.493  0.00  0.00    +0.000 C 
BRANCH  20  21
ATOM     21  N   UNL     1      47.965   2.863   5.282  0.00  0.00    +0.000 NA
ATOM     22  H   UNL     1      47.389   3.704   5.318  0.00  0.00    +0.000 HD
ATOM     23  H   UNL     1      47.647   2.333   4.472  0.00  0.00    +0.000 HD
ENDBRANCH  20  21
ENDBRANCH  14  20
ENDBRANCH  13  17
ENDBRANCH   1  13
TORSDOF 6
ENDMDL
MODEL 5
REMARK VINA RESULT:    -6.132      3.664      5.854
REMARK INTER + INTRA:          -8.634
REMARK INTER:                  -8.229
REMARK INTRA:                  -0.405
REMARK UNBOUND:                -0.530
REMARK  Name = 
REMARK  6 active torsions:
REMARK  status: ('A' for Active; 'I' for Inactive)
REMARK    1  A    between atoms: N_1  and  C_2
REMARK    2  A    between atoms: C_2  and  C_3
REMARK    3  A    between atoms: C_6  and  O_7
REMARK    4  A    between atoms: O_7  and  C_8
REMARK    5  A    between atoms: C_8  and  C_9
REMARK    6  A    between atoms: C_12  and  C_13
REMARK                            x       y       z     vdW  Elec       q    Type
REMARK                         _______ _______ _______ _____ _____    ______ ____
ROOT
ATOM      1  C   UNL     1      47.448   4.544  16.219  0.00  0.00    +0.000 C 
ENDROOT
BRANCH   1   2
ATOM      2  C   UNL     1      48.680   3.802  16.652  0.00  0.00    +0.000 A 
ATOM      3  C   UNL     1      49.727   4.388  17.366  0.00  0.00    +0.000 A 
ATOM      4  C   UNL     1      50.837   3.622  17.717  0.00  0.00    +0.000 A 
ATOM      5  C   UNL     1      50.860   2.287  17.334  0.00  0.00    +0.000 A 
ATOM      6  N   UNL     1      49.863   1.680  16.627  0.00  0.00    +0.000 NA
ATOM      7  C   UNL     1      48.807   2.457  16.306  0.00  0.00    +0.000 A 
BRANCH   5   8
ATOM      8  C   UNL     1      52.016   1.422  17.713  0.00  0.00    +0.000 C 
ATOM      9  N   UNL     1      51.688   0.158  18.129  0.00  0.00    +0.000 N 
ATOM     10  O   UNL     1      53.180   1.799  17.661  0.00  0.00    +0.000 OA
ATOM     11  H   UNL     1      50.710  -0.110  18.169  0.00  0.00    +0.000 HD
ATOM     12  H   UNL     1      52.413  -0.475  18.428  0.00  0.00    +0.000 HD
ENDBRANCH   5   8
ENDBRANCH   1   2
BRANCH   1  13
ATOM     13  O   UNL     1      47.559   5.040  14.885  0.00  0.00    +0.000 OA
BRANCH  13  17
ATOM     14  C   UNL     1      45.091   4.530  11.418  0.00  0.00    +0.000 C 
ATOM     15  C   UNL     1      45.360   3.318  12.320  0.00  0.00    +0.000 C 
ATOM     16  C   UNL     1      46.546   3.534  13.242  0.00  0.00    +0.000 C 
ATOM     17  C   UNL     1      46.389   4.796  14.096  0.00  0.00    +0.000 C 
ATOM     18  C   UNL     1      46.172   6.012  13.191  0.00  0.00    +0.000 C 
ATOM     19  C   UNL     1      44.981   5.820  12.251  0.00  0.00    +0.000 C 
BRANCH  14  20
ATOM     20  C   UNL     1      43.823   4.257  10.591  0.00  0.00    +0.000 C 
BRANCH  20  21
ATOM     21  N   UNL     1      42.851   3.452  11.317  0.00  0.00    +0.000 NA
ATOM     22  H   UNL     1      41.917   3.639  10.952  0.00  0.00    +0.000 HD
ATOM     23  H   UNL     1      42.838   3.730  12.297  0.00  0.00    +0.000 HD
ENDBRANCH  20  21
ENDBRANCH  14  20
ENDBRANCH  13  17
ENDBRANCH   1  13
TORSDOF 6
ENDMDL
MODEL 6
REMARK VINA RESULT:    -5.708      3.170      8.216
REMARK INTER + INTRA:          -8.073
REMARK INTER:                  -7.671
REMARK INTRA:                  -0.402
REMARK UNBOUND:                -0.530
REMARK  Name = 
REMARK  6 active torsions:
REMARK  status: ('A' for Active; 'I' for Inactive)
REMARK    1  A    between atoms: N_1  and  C_2
REMARK    2  A    between atoms: C_2  and  C_3
REMARK    3  A    between atoms: C_6  and  O_7
REMARK    4  A    between atoms: O_7  and  C_8
REMARK    5  A    between atoms: C_8  and  C_9
REMARK    6  A    between atoms: C_12  and  C_13
REMARK                            x       y       z     vdW  Elec       q    Type
REMARK                         _______ _______ _______ _____ _____    ______ ____
ROOT
ATOM      1  C   UNL     1      47.683   6.780  13.934  0.00  0.00    +0.000 C 
ENDROOT
BRANCH   1   2
ATOM      2  C   UNL     1      46.704   6.170  12.972  0.00  0.00    +0.000 A 
ATOM      3  C   UNL     1      46.554   6.590  11.649  0.00  0.00    +0.000 A 
ATOM      4  C   UNL     1      45.610   5.971  10.832  0.00  0.00    +0.000 A 
ATOM      5  C   UNL     1      44.844   4.947  11.374  0.00  0.00    +0.000 A 
ATOM      6  N   UNL     1      44.953   4.514  12.663  0.00  0.00    +0.000 NA
ATOM      7  C   UNL     1      45.877   5.141  13.422  0.00  0.00    +0.000 A 
BRANCH   5   8
ATOM      8  C   UNL     1      43.842   4.236  10.526  0.00  0.00    +0.000 C 
ATOM      9  N   UNL     1      43.961   4.451   9.178  0.00  0.00    +0.000 N 
ATOM     10  O   UNL     1      42.969   3.511  10.986  0.00  0.00    +0.000 OA
ATOM     11  H   UNL     1      44.690   5.071   8.839  0.00  0.00    +0.000 HD
ATOM     12  H   UNL     1      43.302   4.028   8.543  0.00  0.00    +0.000 HD
ENDBRANCH   5   8
ENDBRANCH   1   2
BRANCH   1  13
ATOM     13  O   UNL     1      48.509   5.797  14.558  0.00  0.00    +0.000 OA
BRANCH  13  17
ATOM     14  C   UNL     1      49.367   4.815  18.641  0.00  0.00    +0.000 C 
ATOM     15  C   UNL     1      49.903   6.135  18.069  0.00  0.00    +0.000 C 
ATOM     16  C   UNL     1      49.884   6.157  16.551  0.00  0.00    +0.000 C 
ATOM     17  C   UNL     1      48.488   5.872  15.988  0.00  0.00    +0.000 C 
ATOM     18  C   UNL     1      47.978   4.530  16.521  0.00  0.00    +0.000 C 
ATOM     19  C   UNL     1      47.987   4.480  18.049  0.00  0.00    +0.000 C 
BRANCH  14  20
ATOM     20  C   UNL     1      49.337   4.920  20.176  0.00  0.00    +0.000 C 
BRANCH  20  21
ATOM     21  N   UNL     1      48.415   3.967  20.777  0.00  0.00    +0.000 NA
ATOM     22  H   UNL     1      48.835   3.037  20.766  0.00  0.00    +0.000 HD
ATOM     23  H   UNL     1      47.568   3.906  20.215  0.00  0.00    +0.000 HD
ENDBRANCH  20  21
ENDBRANCH  14  20
ENDBRANCH  13  17
ENDBRANCH   1  13
TORSDOF 6
ENDMDL
MODEL 7
REMARK VINA RESULT:    -5.694      2.868      7.895
REMARK INTER + INTRA:          -8.055
REMARK INTER:                  -7.649
REMARK INTRA:                  -0.406
REMARK UNBOUND:                -0.530
REMARK  Name = 
REMARK  6 active torsions:
REMARK  status: ('A' for Active; 'I' for Inactive)
REMARK    1  A    between atoms: N_1  and  C_2
REMARK    2  A    between atoms: C_2  and  C_3
REMARK    3  A    between atoms: C_6  and  O_7
REMARK    4  A    between atoms: O_7  and  C_8
REMARK    5  A    between atoms: C_8  and  C_9
REMARK    6  A    between atoms: C_12  and  C_13
REMARK                            x       y       z     vdW  Elec       q    Type
REMARK                         _______ _______ _______ _____ _____    ______ ____
ROOT
ATOM      1  C   UNL     1      46.993   5.023  14.526  0.00  0.00    +0.000 C 
ENDROOT
BRANCH   1   2
ATOM      2  C   UNL     1      46.306   4.724  13.224  0.00  0.00    +0.000 A 
ATOM      3  C   UNL     1      46.064   5.683  12.238  0.00  0.00    +0.000 A 
ATOM      4  C   UNL     1      45.410   5.314  11.064  0.00  0.00    +0.000 A 
ATOM      5  C   UNL     1      45.018   3.989  10.920  0.00  0.00    +0.000 A 
ATOM      6  N   UNL     1      45.227   3.026  11.863  0.00  0.00    +0.000 NA
ATOM      7  C   UNL     1      45.862   3.424  12.986  0.00  0.00    +0.000 A 
BRANCH   5   8
ATOM      8  C   UNL     1      44.340   3.544   9.667  0.00  0.00    +0.000 C 
ATOM      9  N   UNL     1      44.049   4.542   8.774  0.00  0.00    +0.000 N 
ATOM     10  O   UNL     1      44.057   2.375   9.437  0.00  0.00    +0.000 OA
ATOM     11  H   UNL     1      44.289   5.500   9.010  0.00  0.00    +0.000 HD
ATOM     12  H   UNL     1      43.566   4.324   7.917  0.00  0.00    +0.000 HD
ENDBRANCH   5   8
ENDBRANCH   1   2
BRANCH   1  13
ATOM     13  O   UNL     1      46.765   4.007  15.501  0.00  0.00    +0.000 OA
BRANCH  13  17
ATOM     14  C   UNL     1      50.514   4.058  17.579  0.00  0.00    +0.000 C 
ATOM     15  C   UNL     1      49.639   5.319  17.600  0.00  0.00    +0.000 C 
ATOM     16  C   UNL     1      48.577   5.304  16.515  0.00  0.00    +0.000 C 
ATOM     17  C   UNL     1      47.695   4.055  16.590  0.00  0.00    +0.000 C 
ATOM     18  C   UNL     1      48.567   2.798  16.518  0.00  0.00    +0.000 C 
ATOM     19  C   UNL     1      49.646   2.787  17.601  0.00  0.00    +0.000 C 
BRANCH  14  20
ATOM     20  C   UNL     1      51.494   4.119  18.764  0.00  0.00    +0.000 C 
BRANCH  20  21
ATOM     21  N   UNL     1      52.414   2.990  18.780  0.00  0.00    +0.000 NA
ATOM     22  H   UNL     1      51.885   2.122  18.694  0.00  0.00    +0.000 HD
ATOM     23  H   UNL     1      52.891   2.948  19.679  0.00  0.00    +0.000 HD
ENDBRANCH  20  21
ENDBRANCH  14  20
ENDBRANCH  13  17
ENDBRANCH   1  13
TORSDOF 6
ENDMDL
MODEL 8
REMARK VINA RESULT:    -5.294      2.475      3.645
REMARK INTER + INTRA:          -7.526
REMARK INTER:                  -6.991
REMARK INTRA:                  -0.535
REMARK UNBOUND:                -0.530
REMARK  Name = 
REMARK  6 active torsions:
REMARK  status: ('A' for Active; 'I' for Inactive)
REMARK    1  A    between atoms: N_1  and  C_2
REMARK    2  A    between atoms: C_2  and  C_3
REMARK    3  A    between atoms: C_6  and  O_7
REMARK    4  A    between atoms: O_7  and  C_8
REMARK    5  A    between atoms: C_8  and  C_9
REMARK    6  A    between atoms: C_12  and  C_13
REMARK                            x       y       z     vdW  Elec       q    Type
REMARK                         _______ _______ _______ _____ _____    ______ ____
ROOT
ATOM      1  C   UNL     1      46.852   6.098  13.250  0.00  0.00    +0.000 C 
ENDROOT
BRANCH   1   2
ATOM      2  C   UNL     1      47.451   5.536  14.508  0.00  0.00    +0.000 A 
ATOM      3  C   UNL     1      47.017   4.355  15.112  0.00  0.00    +0.000 A 
ATOM      4  C   UNL     1      47.626   3.915  16.285  0.00  0.00    +0.000 A 
ATOM      5  C   UNL     1      48.656   4.682  16.816  0.00  0.00    +0.000 A 
ATOM      6  N   UNL     1      49.102   5.846  16.262  0.00  0.00    +0.000 NA
ATOM      7  C   UNL     1      48.484   6.238  15.128  0.00  0.00    +0.000 A 
BRANCH   5   8
ATOM      8  C   UNL     1      49.357   4.235  18.056  0.00  0.00    +0.000 C 
ATOM      9  N   UNL     1      49.632   2.894  18.119  0.00  0.00    +0.000 N 
ATOM     10  O   UNL     1      49.670   4.997  18.961  0.00  0.00    +0.000 OA
ATOM     11  H   UNL     1      49.344   2.294  17.352  0.00  0.00    +0.000 HD
ATOM     12  H   UNL     1      50.078   2.511  18.937  0.00  0.00    +0.000 HD
ENDBRANCH   5   8
ENDBRANCH   1   2
BRANCH   1  13
ATOM     13  O   UNL     1      45.426   6.065  13.271  0.00  0.00    +0.000 OA
BRANCH  13  17
ATOM     14  C   UNL     1      45.133   3.315   9.997  0.00  0.00    +0.000 C 
ATOM     15  C   UNL     1      44.265   3.079  11.241  0.00  0.00    +0.000 C 
ATOM     16  C   UNL     1      44.760   3.859  12.446  0.00  0.00    +0.000 C 
ATOM     17  C   UNL     1      44.864   5.359  12.159  0.00  0.00    +0.000 C 
ATOM     18  C   UNL     1      45.771   5.594  10.947  0.00  0.00    +0.000 C 
ATOM     19  C   UNL     1      45.296   4.820   9.718  0.00  0.00    +0.000 C 
BRANCH  14  20
ATOM     20  C   UNL     1      44.505   2.563   8.809  0.00  0.00    +0.000 C 
BRANCH  20  21
ATOM     21  N   UNL     1      44.347   3.413   7.638  0.00  0.00    +0.000 NA
ATOM     22  H   UNL     1      43.751   2.944   6.957  0.00  0.00    +0.000 HD
ATOM     23  H   UNL     1      45.251   3.547   7.185  0.00  0.00    +0.000 HD
ENDBRANCH  20  21
ENDBRANCH  14  20
ENDBRANCH  13  17
ENDBRANCH   1  13
TORSDOF 6
ENDMDL
MODEL 9
REMARK VINA RESULT:    -5.127      3.503      8.276
REMARK INTER + INTRA:          -7.306
REMARK INTER:                  -6.757
REMARK INTRA:                  -0.549
REMARK UNBOUND:                -0.530
REMARK  Name = 
REMARK  6 active torsions:
REMARK  status: ('A' for Active; 'I' for Inactive)
REMARK    1  A    between atoms: N_1  and  C_2
REMARK    2  A    between atoms: C_2  and  C_3
REMARK    3  A    between atoms: C_6  and  O_7
REMARK    4  A    between atoms: O_7  and  C_8
REMARK    5  A    between atoms: C_8  and  C_9
REMARK    6  A    between atoms: C_12  and  C_13
REMARK                            x       y       z     vdW  Elec       q    Type
REMARK                         _______ _______ _______ _____ _____    ______ ____
ROOT
ATOM      1  C   UNL     1      47.967   6.990  13.571  0.00  0.00    +0.000 C 
ENDROOT
BRANCH   1   2
ATOM      2  C   UNL     1      46.919   6.086  12.987  0.00  0.00    +0.000 A 
ATOM      3  C   UNL     1      46.261   6.341  11.782  0.00  0.00    +0.000 A 
ATOM      4  C   UNL     1      45.294   5.449  11.322  0.00  0.00    +0.000 A 
ATOM      5  C   UNL     1      45.017   4.328  12.094  0.00  0.00    +0.000 A 
ATOM      6  N   UNL     1      45.630   4.049  13.280  0.00  0.00    +0.000 NA
ATOM      7  C   UNL     1      46.559   4.938  13.690  0.00  0.00    +0.000 A 
BRANCH   5   8
ATOM      8  C   UNL     1      44.008   3.331  11.626  0.00  0.00    +0.000 C 
ATOM      9  N   UNL     1      43.751   2.308  12.500  0.00  0.00    +0.000 N 
ATOM     10  O   UNL     1      43.443   3.408  10.542  0.00  0.00    +0.000 OA
ATOM     11  H   UNL     1      44.251   2.274  13.382  0.00  0.00    +0.000 HD
ATOM     12  H   UNL     1      43.102   1.580  12.243  0.00  0.00    +0.000 HD
ENDBRANCH   5   8
ENDBRANCH   1   2
BRANCH   1  13
ATOM     13  O   UNL     1      48.975   6.263  14.272  0.00  0.00    +0.000 OA
BRANCH  13  17
ATOM     14  C   UNL     1      48.273   7.939  18.155  0.00  0.00    +0.000 C 
ATOM     15  C   UNL     1      48.846   6.519  18.054  0.00  0.00    +0.000 C 
ATOM     16  C   UNL     1      48.657   5.915  16.674  0.00  0.00    +0.000 C 
ATOM     17  C   UNL     1      49.251   6.797  15.573  0.00  0.00    +0.000 C 
ATOM     18  C   UNL     1      48.638   8.199  15.644  0.00  0.00    +0.000 C 
ATOM     19  C   UNL     1      48.816   8.831  17.024  0.00  0.00    +0.000 C 
BRANCH  14  20
ATOM     20  C   UNL     1      48.592   8.502  19.551  0.00  0.00    +0.000 C 
BRANCH  20  21
ATOM     21  N   UNL     1      48.915   7.454  20.509  0.00  0.00    +0.000 NA
ATOM     22  H   UNL     1      48.564   6.561  20.165  0.00  0.00    +0.000 HD
ATOM     23  H   UNL     1      48.434   7.633  21.389  0.00  0.00    +0.000 HD
ENDBRANCH  20  21
ENDBRANCH  14  20
ENDBRANCH  13  17
ENDBRANCH   1  13
TORSDOF 6
ENDMDL
