MODEL 1
REMARK VINA RESULT:    -6.903      0.000      0.000
REMARK INTER + INTRA:          -9.199
REMARK INTER:                  -9.324
REMARK INTRA:                   0.126
REMARK UNBOUND:                 0.126
REMARK  Name = 
REMARK  9 active torsions:
REMARK  status: ('A' for Active; 'I' for Inactive)
REMARK    1  A    between atoms: C_1  and  C_2
REMARK    2  A    between atoms: C_2  and  C_3
REMARK    3  A    between atoms: C_2  and  C_4
REMARK    4  A    between atoms: C_2  and  N_5
REMARK    5  A    between atoms: N_5  and  C_6
REMARK    6  A    between atoms: C_6  and  C_7
REMARK    7  A    between atoms: C_7  and  C_8
REMARK    8  A    between atoms: C_11  and  C_12
REMARK    9  A    between atoms: C_20  and  C_21
REMARK                            x       y       z     vdW  Elec       q    Type
REMARK                         _______ _______ _______ _____ _____    ______ ____
ROOT
ATOM      1  N   UNL     1      45.206   5.322  12.346  0.00  0.00    +0.000 N 
ATOM      2  C   UNL     1      45.118   6.711  12.161  0.00  0.00    +0.000 A 
ATOM      3  C   UNL     1      44.586   7.291  10.992  0.00  0.00    +0.000 A 
ATOM      4  N   UNL     1      44.458   8.631  10.765  0.00  0.00    +0.000 NA
ATOM      5  C   UNL     1      44.901   9.413  11.784  0.00  0.00    +0.000 A 
ATOM      6  C   UNL     1      45.439   8.879  12.937  0.00  0.00    +0.000 A 
ATOM      7  N   UNL     1      45.562   7.540  13.132  0.00  0.00    +0.000 NA
ENDROOT
BRANCH   5   8
ATOM      8  C   UNL     1      44.796  10.888  11.635  0.00  0.00    +0.000 C 
ATOM      9  N   UNL     1      45.872  11.516  11.069  0.00  0.00    +0.000 N 
ATOM     10  O   UNL     1      43.799  11.515  11.998  0.00  0.00    +0.000 OA
ATOM     11  H   UNL     1      46.683  10.975  10.792  0.00  0.00    +0.000 HD
ATOM     12  H   UNL     1      45.862  12.520  10.957  0.00  0.00    +0.000 HD
ENDBRANCH   5   8
BRANCH   1  14
ATOM     13  C   UNL     1      46.212   4.763  14.629  0.00  0.00    +0.000 C 
ATOM     14  C   UNL     1      46.383   4.759  13.091  0.00  0.00    +0.000 C 
ATOM     15  C   UNL     1      47.680   5.535  12.784  0.00  0.00    +0.000 C 
ATOM     16  C   UNL     1      46.547   3.261  12.730  0.00  0.00    +0.000 C 
ENDBRANCH   1  14
BRANCH   1  17
ATOM     17  C   UNL     1      43.988   4.556  12.004  0.00  0.00    +0.000 C 
BRANCH  17  18
ATOM     18  C   UNL     1      43.613   4.559  10.518  0.00  0.00    +0.000 C 
BRANCH  18  19
ATOM     19  C   UNL     1      44.619   3.858   9.638  0.00  0.00    +0.000 A 
ATOM     20  C   UNL     1      44.704   2.458   9.632  0.00  0.00    +0.000 A 
ATOM     21  C   UNL     1      45.587   1.807   8.768  0.00  0.00    +0.000 A 
ATOM     22  C   UNL     1      46.395   2.550   7.901  0.00  0.00    +0.000 A 
ATOM     23  C   UNL     1      46.335   3.948   7.927  0.00  0.00    +0.000 A 
ATOM     24  C   UNL     1      45.450   4.598   8.790  0.00  0.00    +0.000 A 
BRANCH  22  25
ATOM     25  C   UNL     1      47.305   1.817   6.985  0.00  0.00    +0.000 C 
ATOM     26  N   UNL     1      48.338   2.519   6.425  0.00  0.00    +0.000 N 
ATOM     27  O   UNL     1      47.121   0.642   6.702  0.00  0.00    +0.000 OA
ATOM     28  H   UNL     1      48.370   3.530   6.427  0.00  0.00    +0.000 HD
ATOM     29  H   UNL     1      48.876   2.032   5.718  0.00  0.00    +0.000 HD
ENDBRANCH  22  25
ENDBRANCH  18  19
ENDBRANCH  17  18
ENDBRANCH   1  17
TORSDOF 6
ENDMDL
MODEL 2
REMARK VINA RESULT:    -6.819      2.919      4.598
REMARK INTER + INTRA:          -9.085
REMARK INTER:                 -10.156
REMARK INTRA:                   1.071
REMARK UNBOUND:                 0.126
REMARK  Name = 
REMARK  9 active torsions:
REMARK  status: ('A' for Active; 'I' for Inactive)
REMARK    1  A    between atoms: C_1  and  C_2
REMARK    2  A    between atoms: C_2  and  C_3
REMARK    3  A    between atoms: C_2  and  C_4
REMARK    4  A    between atoms: C_2  and  N_5
REMARK    5  A    between atoms: N_5  and  C_6
REMARK    6  A    between atoms: C_6  and  C_7
REMARK    7  A    between atoms: C_7  and  C_8
REMARK    8  A    between atoms: C_11  and  C_12
REMARK    9  A    between atoms: C_20  and  C_21
REMARK                            x       y       z     vdW  Elec       q    Type
REMARK                         _______ _______ _______ _____ _____    ______ ____
ROOT
ATOM      1  N   UNL     1      45.508   5.111  12.634  0.00  0.00    +0.000 N 
ATOM      2  C   UNL     1      46.382   5.128  13.733  0.00  0.00    +0.000 A 
ATOM      3  C   UNL     1      46.235   4.265  14.836  0.00  0.00    +0.000 A 
ATOM      4  N   UNL     1      47.064   4.222  15.920  0.00  0.00    +0.000 NA
ATOM      5  C   UNL     1      48.090   5.111  15.871  0.00  0.00    +0.000 A 
ATOM      6  C   UNL     1      48.257   5.980  14.812  0.00  0.00    +0.000 A 
ATOM      7  N   UNL     1      47.410   6.005  13.749  0.00  0.00    +0.000 NA
ENDROOT
BRANCH   5   8
ATOM      8  C   UNL     1      49.054   5.136  17.002  0.00  0.00    +0.000 C 
ATOM      9  N   UNL     1      48.511   5.222  18.256  0.00  0.00    +0.000 N 
ATOM     10  O   UNL     1      50.272   5.082  16.828  0.00  0.00    +0.000 OA
ATOM     11  H   UNL     1      47.504   5.278  18.367  0.00  0.00    +0.000 HD
ATOM     12  H   UNL     1      49.119   5.258  19.062  0.00  0.00    +0.000 HD
ENDBRANCH   5   8
BRANCH   1  14
ATOM     13  C   UNL     1      45.273   7.646  12.872  0.00  0.00    +0.000 C 
ATOM     14  C   UNL     1      45.172   6.406  11.951  0.00  0.00    +0.000 C 
ATOM     15  C   UNL     1      43.743   6.396  11.372  0.00  0.00    +0.000 C 
ATOM     16  C   UNL     1      46.209   6.678  10.833  0.00  0.00    +0.000 C 
ENDBRANCH   1  14
BRANCH   1  17
ATOM     17  C   UNL     1      45.193   3.772  12.091  0.00  0.00    +0.000 C 
BRANCH  17  18
ATOM     18  C   UNL     1      44.332   3.771  10.824  0.00  0.00    +0.000 C 
BRANCH  18  19
ATOM     19  C   UNL     1      45.086   3.373   9.578  0.00  0.00    +0.000 A 
ATOM     20  C   UNL     1      45.623   4.352   8.730  0.00  0.00    +0.000 A 
ATOM     21  C   UNL     1      46.377   3.984   7.615  0.00  0.00    +0.000 A 
ATOM     22  C   UNL     1      46.602   2.632   7.335  0.00  0.00    +0.000 A 
ATOM     23  C   UNL     1      46.042   1.651   8.163  0.00  0.00    +0.000 A 
ATOM     24  C   UNL     1      45.288   2.021   9.279  0.00  0.00    +0.000 A 
BRANCH  22  25
ATOM     25  C   UNL     1      47.428   2.284   6.151  0.00  0.00    +0.000 C 
ATOM     26  N   UNL     1      47.244   3.021   5.014  0.00  0.00    +0.000 N 
ATOM     27  O   UNL     1      48.215   1.349   6.170  0.00  0.00    +0.000 OA
ATOM     28  H   UNL     1      46.437   3.617   4.879  0.00  0.00    +0.000 HD
ATOM     29  H   UNL     1      47.732   2.696   4.187  0.00  0.00    +0.000 HD
ENDBRANCH  22  25
ENDBRANCH  18  19
ENDBRANCH  17  18
ENDBRANCH   1  17
TORSDOF 6
ENDMDL
MODEL 3
REMARK VINA RESULT:    -6.777      2.359      3.022
REMARK INTER + INTRA:          -9.029
REMARK INTER:                  -9.705
REMARK INTRA:                   0.677
REMARK UNBOUND:                 0.126
REMARK  Name = 
REMARK  9 active torsions:
REMARK  status: ('A' for Active; 'I' for Inactive)
REMARK    1  A    between atoms: C_1  and  C_2
REMARK    2  A    between atoms: C_2  and  C_3
REMARK    3  A    between atoms: C_2  and  C_4
REMARK    4  A    between atoms: C_2  and  N_5
REMARK    5  A    between atoms: N_5  and  C_6
REMARK    6  A    between atoms: C_6  and  C_7
REMARK    7  A    between atoms: C_7  and  C_8
REMARK    8  A    between atoms: C_11  and  C_12
REMARK    9  A    between atoms: C_20  and  C_21
REMARK                            x       y       z     vdW  Elec       q    Type
REMARK                         _______ _______ _______ _____ _____    ______ ____
ROOT
ATOM      1  N   UNL     1      45.483   5.417  12.049  0.00  0.00    +0.000 N 
ATOM      2  C   UNL     1      46.615   6.215  12.278  0.00  0.00    +0.000 A 
ATOM      3  C   UNL     1      47.403   6.735  11.233  0.00  0.00    +0.000 A 
ATOM      4  N   UNL     1      48.501   7.531  11.394  0.00  0.00    +0.000 NA
ATOM      5  C   UNL     1      48.806   7.803  12.690  0.00  0.00    +0.000 A 
ATOM      6  C   UNL     1      48.063   7.299  13.738  0.00  0.00    +0.000 A 
ATOM      7  N   UNL     1      46.980   6.502  13.548  0.00  0.00    +0.000 NA
ENDROOT
BRANCH   5   8
ATOM      8  C   UNL     1      49.981   8.669  12.969  0.00  0.00    +0.000 C 
ATOM      9  N   UNL     1      51.201   8.168  12.605  0.00  0.00    +0.000 N 
ATOM     10  O   UNL     1      49.868   9.777  13.496  0.00  0.00    +0.000 OA
ATOM     11  H   UNL     1      51.263   7.248  12.184  0.00  0.00    +0.000 HD
ATOM     12  H   UNL     1      52.036   8.708  12.784  0.00  0.00    +0.000 HD
ENDBRANCH   5   8
BRANCH   1  14
ATOM     13  C   UNL     1      45.785   4.492  14.414  0.00  0.00    +0.000 C 
ATOM     14  C   UNL     1      45.175   4.299  13.004  0.00  0.00    +0.000 C 
ATOM     15  C   UNL     1      45.682   2.941  12.480  0.00  0.00    +0.000 C 
ATOM     16  C   UNL     1      43.647   4.248  13.256  0.00  0.00    +0.000 C 
ENDBRANCH   1  14
BRANCH   1  17
ATOM     17  C   UNL     1      44.549   5.917  11.017  0.00  0.00    +0.000 C 
BRANCH  17  18
ATOM     18  C   UNL     1      43.819   4.831  10.220  0.00  0.00    +0.000 C 
BRANCH  18  19
ATOM     19  C   UNL     1      44.723   4.033   9.312  0.00  0.00    +0.000 A 
ATOM     20  C   UNL     1      45.641   4.683   8.474  0.00  0.00    +0.000 A 
ATOM     21  C   UNL     1      46.523   3.943   7.685  0.00  0.00    +0.000 A 
ATOM     22  C   UNL     1      46.497   2.545   7.724  0.00  0.00    +0.000 A 
ATOM     23  C   UNL     1      45.561   1.894   8.537  0.00  0.00    +0.000 A 
ATOM     24  C   UNL     1      44.680   2.635   9.327  0.00  0.00    +0.000 A 
BRANCH  22  25
ATOM     25  C   UNL     1      47.466   1.797   6.884  0.00  0.00    +0.000 C 
ATOM     26  N   UNL     1      48.549   2.483   6.407  0.00  0.00    +0.000 N 
ATOM     27  O   UNL     1      47.289   0.624   6.591  0.00  0.00    +0.000 OA
ATOM     28  H   UNL     1      48.595   3.493   6.409  0.00  0.00    +0.000 HD
ATOM     29  H   UNL     1      49.135   1.986   5.746  0.00  0.00    +0.000 HD
ENDBRANCH  22  25
ENDBRANCH  18  19
ENDBRANCH  17  18
ENDBRANCH   1  17
TORSDOF 6
ENDMDL
MODEL 4
REMARK VINA RESULT:    -6.674      3.087      7.306
REMARK INTER + INTRA:          -8.889
REMARK INTER:                  -9.599
REMARK INTRA:                   0.710
REMARK UNBOUND:                 0.126
REMARK  Name = 
REMARK  9 active torsions:
REMARK  status: ('A' for Active; 'I' for Inactive)
REMARK    1  A    between atoms: C_1  and  C_2
REMARK    2  A    between atoms: C_2  and  C_3
REMARK    3  A    between atoms: C_2  and  C_4
REMARK    4  A    between atoms: C_2  and  N_5
REMARK    5  A    between atoms: N_5  and  C_6
REMARK    6  A    between atoms: C_6  and  C_7
REMARK    7  A    between atoms: C_7  and  C_8
REMARK    8  A    between atoms: C_11  and  C_12
REMARK    9  A    between atoms: C_20  and  C_21
REMARK                            x       y       z     vdW  Elec       q    Type
REMARK                         _______ _______ _______ _____ _____    ______ ____
ROOT
ATOM      1  N   UNL     1      44.698   5.092  11.103  0.00  0.00    +0.000 N 
ATOM      2  C   UNL     1      45.216   4.401   9.996  0.00  0.00    +0.000 A 
ATOM      3  C   UNL     1      45.750   5.058   8.871  0.00  0.00    +0.000 A 
ATOM      4  N   UNL     1      46.285   4.439   7.777  0.00  0.00    +0.000 NA
ATOM      5  C   UNL     1      46.266   3.082   7.840  0.00  0.00    +0.000 A 
ATOM      6  C   UNL     1      45.739   2.406   8.922  0.00  0.00    +0.000 A 
ATOM      7  N   UNL     1      45.205   3.049   9.994  0.00  0.00    +0.000 NA
ENDROOT
BRANCH   5   8
ATOM      8  C   UNL     1      46.834   2.316   6.700  0.00  0.00    +0.000 C 
ATOM      9  N   UNL     1      47.096   3.032   5.563  0.00  0.00    +0.000 N 
ATOM     10  O   UNL     1      47.059   1.107   6.769  0.00  0.00    +0.000 OA
ATOM     11  H   UNL     1      46.887   4.024   5.532  0.00  0.00    +0.000 HD
ATOM     12  H   UNL     1      47.468   2.560   4.751  0.00  0.00    +0.000 HD
ENDBRANCH   5   8
BRANCH   1  14
ATOM     13  C   UNL     1      43.667   4.499  13.366  0.00  0.00    +0.000 C 
ATOM     14  C   UNL     1      43.510   4.524  11.826  0.00  0.00    +0.000 C 
ATOM     15  C   UNL     1      43.208   3.078  11.385  0.00  0.00    +0.000 C 
ATOM     16  C   UNL     1      42.280   5.435  11.585  0.00  0.00    +0.000 C 
ENDBRANCH   1  14
BRANCH   1  17
ATOM     17  C   UNL     1      45.536   6.200  11.611  0.00  0.00    +0.000 C 
BRANCH  17  18
ATOM     18  C   UNL     1      46.995   5.831  11.898  0.00  0.00    +0.000 C 
BRANCH  18  19
ATOM     19  C   UNL     1      47.284   5.588  13.360  0.00  0.00    +0.000 A 
ATOM     20  C   UNL     1      46.834   4.418  13.988  0.00  0.00    +0.000 A 
ATOM     21  C   UNL     1      47.158   4.162  15.321  0.00  0.00    +0.000 A 
ATOM     22  C   UNL     1      47.936   5.075  16.042  0.00  0.00    +0.000 A 
ATOM     23  C   UNL     1      48.360   6.259  15.427  0.00  0.00    +0.000 A 
ATOM     24  C   UNL     1      48.036   6.513  14.092  0.00  0.00    +0.000 A 
BRANCH  22  25
ATOM     25  C   UNL     1      48.275   4.754  17.451  0.00  0.00    +0.000 C 
ATOM     26  N   UNL     1      47.263   4.320  18.262  0.00  0.00    +0.000 N 
ATOM     27  O   UNL     1      49.406   4.910  17.889  0.00  0.00    +0.000 OA
ATOM     28  H   UNL     1      46.288   4.426  18.015  0.00  0.00    +0.000 HD
ATOM     29  H   UNL     1      47.492   4.217  19.244  0.00  0.00    +0.000 HD
ENDBRANCH  22  25
ENDBRANCH  18  19
ENDBRANCH  17  18
ENDBRANCH   1  17
TORSDOF 6
ENDMDL
MODEL 5
REMARK VINA RESULT:    -6.458      5.761      8.338
REMARK INTER + INTRA:          -8.598
REMARK INTER:                  -8.603
REMARK INTRA:                   0.005
REMARK UNBOUND:                 0.126
REMARK  Name = 
REMARK  9 active torsions:
REMARK  status: ('A' for Active; 'I' for Inactive)
REMARK    1  A    between atoms: C_1  and  C_2
REMARK    2  A    between atoms: C_2  and  C_3
REMARK    3  A    between atoms: C_2  and  C_4
REMARK    4  A    between atoms: C_2  and  N_5
REMARK    5  A    between atoms: N_5  and  C_6
REMARK    6  A    between atoms: C_6  and  C_7
REMARK    7  A    between atoms: C_7  and  C_8
REMARK    8  A    between atoms: C_11  and  C_12
REMARK    9  A    between atoms: C_20  and  C_21
REMARK                            x       y       z     vdW  Elec       q    Type
REMARK                         _______ _______ _______ _____ _____    ______ ____
ROOT
ATOM      1  N   UNL     1      48.432   4.379  17.569  0.00  0.00    +0.000 N 
ATOM      2  C   UNL     1      49.578   3.568  17.578  0.00  0.00    +0.000 A 
ATOM      3  C   UNL     1      49.561   2.222  17.163  0.00  0.00    +0.000 A 
ATOM      4  N   UNL     1      50.646   1.393  17.131  0.00  0.00    +0.000 NA
ATOM      5  C   UNL     1      51.802   1.973  17.550  0.00  0.00    +0.000 A 
ATOM      6  C   UNL     1      51.851   3.284  17.976  0.00  0.00    +0.000 A 
ATOM      7  N   UNL     1      50.753   4.084  18.004  0.00  0.00    +0.000 NA
ENDROOT
BRANCH   5   8
ATOM      8  C   UNL     1      53.041   1.153  17.545  0.00  0.00    +0.000 C 
ATOM      9  N   UNL     1      52.947  -0.089  18.113  0.00  0.00    +0.000 N 
ATOM     10  O   UNL     1      54.096   1.562  17.056  0.00  0.00    +0.000 OA
ATOM     11  H   UNL     1      52.068  -0.392  18.518  0.00  0.00    +0.000 HD
ATOM     12  H   UNL     1      53.762  -0.684  18.151  0.00  0.00    +0.000 HD
ENDBRANCH   5   8
BRANCH   1  14
ATOM     13  C   UNL     1      46.784   5.838  18.870  0.00  0.00    +0.000 C 
ATOM     14  C   UNL     1      48.253   5.400  18.657  0.00  0.00    +0.000 C 
ATOM     15  C   UNL     1      49.066   6.680  18.382  0.00  0.00    +0.000 C 
ATOM     16  C   UNL     1      48.663   4.776  20.015  0.00  0.00    +0.000 C 
ENDBRANCH   1  14
BRANCH   1  17
ATOM     17  C   UNL     1      47.622   4.322  16.333  0.00  0.00    +0.000 C 
BRANCH  17  18
ATOM     18  C   UNL     1      47.977   5.372  15.275  0.00  0.00    +0.000 C 
BRANCH  18  19
ATOM     19  C   UNL     1      47.160   5.260  14.010  0.00  0.00    +0.000 A 
ATOM     20  C   UNL     1      46.559   4.042  13.659  0.00  0.00    +0.000 A 
ATOM     21  C   UNL     1      45.749   3.955  12.526  0.00  0.00    +0.000 A 
ATOM     22  C   UNL     1      45.531   5.086  11.731  0.00  0.00    +0.000 A 
ATOM     23  C   UNL     1      46.154   6.295  12.062  0.00  0.00    +0.000 A 
ATOM     24  C   UNL     1      46.963   6.381  13.198  0.00  0.00    +0.000 A 
BRANCH  22  25
ATOM     25  C   UNL     1      44.646   4.955  10.546  0.00  0.00    +0.000 C 
ATOM     26  N   UNL     1      45.215   5.106   9.312  0.00  0.00    +0.000 N 
ATOM     27  O   UNL     1      43.444   4.762  10.662  0.00  0.00    +0.000 OA
ATOM     28  H   UNL     1      46.131   5.516   9.184  0.00  0.00    +0.000 HD
ATOM     29  H   UNL     1      44.576   5.126   8.525  0.00  0.00    +0.000 HD
ENDBRANCH  22  25
ENDBRANCH  18  19
ENDBRANCH  17  18
ENDBRANCH   1  17
TORSDOF 6
ENDMDL
MODEL 6
REMARK VINA RESULT:    -6.301      4.204      6.721
REMARK INTER + INTRA:          -8.386
REMARK INTER:                  -8.562
REMARK INTRA:                   0.177
REMARK UNBOUND:                 0.126
REMARK  Name = 
REMARK  9 active torsions:
REMARK  status: ('A' for Active; 'I' for Inactive)
REMARK    1  A    between atoms: C_1  and  C_2
REMARK    2  A    between atoms: C_2  and  C_3
REMARK    3  A    between atoms: C_2  and  C_4
REMARK    4  A    between atoms: C_2  and  N_5
REMARK    5  A    between atoms: N_5  and  C_6
REMARK    6  A    between atoms: C_6  and  C_7
REMARK    7  A    between atoms: C_7  and  C_8
REMARK    8  A    between atoms: C_11  and  C_12
REMARK    9  A    between atoms: C_20  and  C_21
REMARK                            x       y       z     vdW  Elec       q    Type
REMARK                         _______ _______ _______ _____ _____    ______ ____
ROOT
ATOM      1  N   UNL     1      48.977   7.390  14.177  0.00  0.00    +0.000 N 
ATOM      2  C   UNL     1      48.623   6.379  15.085  0.00  0.00    +0.000 A 
ATOM      3  C   UNL     1      47.541   5.504  14.866  0.00  0.00    +0.000 A 
ATOM      4  N   UNL     1      47.163   4.493  15.702  0.00  0.00    +0.000 NA
ATOM      5  C   UNL     1      47.930   4.378  16.818  0.00  0.00    +0.000 A 
ATOM      6  C   UNL     1      48.988   5.226  17.071  0.00  0.00    +0.000 A 
ATOM      7  N   UNL     1      49.336   6.230  16.224  0.00  0.00    +0.000 NA
ENDROOT
BRANCH   5   8
ATOM      8  C   UNL     1      47.603   3.300  17.788  0.00  0.00    +0.000 C 
ATOM      9  N   UNL     1      48.390   3.233  18.905  0.00  0.00    +0.000 N 
ATOM     10  O   UNL     1      46.675   2.511  17.602  0.00  0.00    +0.000 OA
ATOM     11  H   UNL     1      49.154   3.889  19.024  0.00  0.00    +0.000 HD
ATOM     12  H   UNL     1      48.223   2.511  19.592  0.00  0.00    +0.000 HD
ENDBRANCH   5   8
BRANCH   1  14
ATOM     13  C   UNL     1      49.336   9.880  13.723  0.00  0.00    +0.000 C 
ATOM     14  C   UNL     1      49.498   8.696  14.707  0.00  0.00    +0.000 C 
ATOM     15  C   UNL     1      50.995   8.613  15.064  0.00  0.00    +0.000 C 
ATOM     16  C   UNL     1      48.665   9.114  15.945  0.00  0.00    +0.000 C 
ENDBRANCH   1  14
BRANCH   1  17
ATOM     17  C   UNL     1      49.041   6.977  12.758  0.00  0.00    +0.000 C 
BRANCH  17  18
ATOM     18  C   UNL     1      48.062   7.698  11.827  0.00  0.00    +0.000 C 
BRANCH  18  19
ATOM     19  C   UNL     1      46.707   7.037  11.740  0.00  0.00    +0.000 A 
ATOM     20  C   UNL     1      46.419   6.140  10.701  0.00  0.00    +0.000 A 
ATOM     21  C   UNL     1      45.192   5.477  10.659  0.00  0.00    +0.000 A 
ATOM     22  C   UNL     1      44.237   5.705  11.657  0.00  0.00    +0.000 A 
ATOM     23  C   UNL     1      44.510   6.623  12.678  0.00  0.00    +0.000 A 
ATOM     24  C   UNL     1      45.740   7.284  12.720  0.00  0.00    +0.000 A 
BRANCH  22  25
ATOM     25  C   UNL     1      42.953   4.964  11.586  0.00  0.00    +0.000 C 
ATOM     26  N   UNL     1      41.806   5.660  11.853  0.00  0.00    +0.000 N 
ATOM     27  O   UNL     1      42.916   3.767  11.341  0.00  0.00    +0.000 OA
ATOM     28  H   UNL     1      41.814   6.565  12.305  0.00  0.00    +0.000 HD
ATOM     29  H   UNL     1      40.955   5.112  11.911  0.00  0.00    +0.000 HD
ENDBRANCH  22  25
ENDBRANCH  18  19
ENDBRANCH  17  18
ENDBRANCH   1  17
TORSDOF 6
ENDMDL
MODEL 7
REMARK VINA RESULT:    -6.290      2.854      7.292
REMARK INTER + INTRA:          -8.370
REMARK INTER:                  -9.174
REMARK INTRA:                   0.804
REMARK UNBOUND:                 0.126
REMARK  Name = 
REMARK  9 active torsions:
REMARK  status: ('A' for Active; 'I' for Inactive)
REMARK    1  A    between atoms: C_1  and  C_2
REMARK    2  A    between atoms: C_2  and  C_3
REMARK    3  A    between atoms: C_2  and  C_4
REMARK    4  A    between atoms: C_2  and  N_5
REMARK    5  A    between atoms: N_5  and  C_6
REMARK    6  A    between atoms: C_6  and  C_7
REMARK    7  A    between atoms: C_7  and  C_8
REMARK    8  A    between atoms: C_11  and  C_12
REMARK    9  A    between atoms: C_20  and  C_21
REMARK                            x       y       z     vdW  Elec       q    Type
REMARK                         _______ _______ _______ _____ _____    ______ ____
ROOT
ATOM      1  N   UNL     1      44.748   4.919  11.022  0.00  0.00    +0.000 N 
ATOM      2  C   UNL     1      45.252   4.246   9.897  0.00  0.00    +0.000 A 
ATOM      3  C   UNL     1      45.776   4.922   8.778  0.00  0.00    +0.000 A 
ATOM      4  N   UNL     1      46.296   4.322   7.667  0.00  0.00    +0.000 NA
ATOM      5  C   UNL     1      46.274   2.964   7.706  0.00  0.00    +0.000 A 
ATOM      6  C   UNL     1      45.756   2.270   8.780  0.00  0.00    +0.000 A 
ATOM      7  N   UNL     1      45.236   2.895   9.870  0.00  0.00    +0.000 NA
ENDROOT
BRANCH   5   8
ATOM      8  C   UNL     1      46.826   2.218   6.545  0.00  0.00    +0.000 C 
ATOM      9  N   UNL     1      47.088   2.956   5.422  0.00  0.00    +0.000 N 
ATOM     10  O   UNL     1      47.039   1.006   6.586  0.00  0.00    +0.000 OA
ATOM     11  H   UNL     1      46.890   3.950   5.415  0.00  0.00    +0.000 HD
ATOM     12  H   UNL     1      47.450   2.499   4.597  0.00  0.00    +0.000 HD
ENDBRANCH   5   8
BRANCH   1  14
ATOM     13  C   UNL     1      43.685   4.407  13.291  0.00  0.00    +0.000 C 
ATOM     14  C   UNL     1      43.567   4.340  11.748  0.00  0.00    +0.000 C 
ATOM     15  C   UNL     1      43.336   2.861  11.381  0.00  0.00    +0.000 C 
ATOM     16  C   UNL     1      42.307   5.183  11.427  0.00  0.00    +0.000 C 
ENDBRANCH   1  14
BRANCH   1  17
ATOM     17  C   UNL     1      45.596   6.014  11.541  0.00  0.00    +0.000 C 
BRANCH  17  18
ATOM     18  C   UNL     1      46.672   5.583  12.543  0.00  0.00    +0.000 C 
BRANCH  18  19
ATOM     19  C   UNL     1      47.821   6.556  12.655  0.00  0.00    +0.000 A 
ATOM     20  C   UNL     1      48.128   7.418  11.593  0.00  0.00    +0.000 A 
ATOM     21  C   UNL     1      49.147   8.364  11.722  0.00  0.00    +0.000 A 
ATOM     22  C   UNL     1      49.871   8.457  12.915  0.00  0.00    +0.000 A 
ATOM     23  C   UNL     1      49.587   7.577  13.967  0.00  0.00    +0.000 A 
ATOM     24  C   UNL     1      48.566   6.632  13.837  0.00  0.00    +0.000 A 
BRANCH  22  25
ATOM     25  C   UNL     1      50.932   9.490  13.018  0.00  0.00    +0.000 C 
ATOM     26  N   UNL     1      52.212   9.061  13.241  0.00  0.00    +0.000 N 
ATOM     27  O   UNL     1      50.675  10.683  12.948  0.00  0.00    +0.000 OA
ATOM     28  H   UNL     1      52.422   8.124  13.558  0.00  0.00    +0.000 HD
ATOM     29  H   UNL     1      52.899   9.785  13.421  0.00  0.00    +0.000 HD
ENDBRANCH  22  25
ENDBRANCH  18  19
ENDBRANCH  17  18
ENDBRANCH   1  17
TORSDOF 6
ENDMDL
MODEL 8
REMARK VINA RESULT:    -6.275      5.064      7.928
REMARK INTER + INTRA:          -8.350
REMARK INTER:                  -9.087
REMARK INTRA:                   0.736
REMARK UNBOUND:                 0.126
REMARK  Name = 
REMARK  9 active torsions:
REMARK  status: ('A' for Active; 'I' for Inactive)
REMARK    1  A    between atoms: C_1  and  C_2
REMARK    2  A    between atoms: C_2  and  C_3
REMARK    3  A    between atoms: C_2  and  C_4
REMARK    4  A    between atoms: C_2  and  N_5
REMARK    5  A    between atoms: N_5  and  C_6
REMARK    6  A    between atoms: C_6  and  C_7
REMARK    7  A    between atoms: C_7  and  C_8
REMARK    8  A    between atoms: C_11  and  C_12
REMARK    9  A    between atoms: C_20  and  C_21
REMARK                            x       y       z     vdW  Elec       q    Type
REMARK                         _______ _______ _______ _____ _____    ______ ____
ROOT
ATOM      1  N   UNL     1      47.850   5.923  14.596  0.00  0.00    +0.000 N 
ATOM      2  C   UNL     1      46.961   5.251  13.742  0.00  0.00    +0.000 A 
ATOM      3  C   UNL     1      46.788   3.853  13.773  0.00  0.00    +0.000 A 
ATOM      4  N   UNL     1      45.926   3.148  12.982  0.00  0.00    +0.000 NA
ATOM      5  C   UNL     1      45.212   3.915  12.117  0.00  0.00    +0.000 A 
ATOM      6  C   UNL     1      45.366   5.284  12.052  0.00  0.00    +0.000 A 
ATOM      7  N   UNL     1      46.238   5.958  12.846  0.00  0.00    +0.000 NA
ENDROOT
BRANCH   5   8
ATOM      8  C   UNL     1      44.239   3.240  11.218  0.00  0.00    +0.000 C 
ATOM      9  N   UNL     1      44.658   3.016   9.934  0.00  0.00    +0.000 N 
ATOM     10  O   UNL     1      43.120   2.898  11.601  0.00  0.00    +0.000 OA
ATOM     11  H   UNL     1      45.581   3.320   9.644  0.00  0.00    +0.000 HD
ATOM     12  H   UNL     1      44.033   2.574   9.275  0.00  0.00    +0.000 HD
ENDBRANCH   5   8
BRANCH   1  14
ATOM     13  C   UNL     1      49.997   7.309  14.697  0.00  0.00    +0.000 C 
ATOM     14  C   UNL     1      48.589   7.124  14.079  0.00  0.00    +0.000 C 
ATOM     15  C   UNL     1      47.813   8.431  14.337  0.00  0.00    +0.000 C 
ATOM     16  C   UNL     1      48.861   6.944  12.564  0.00  0.00    +0.000 C 
ENDBRANCH   1  14
BRANCH   1  17
ATOM     17  C   UNL     1      47.785   5.530  16.021  0.00  0.00    +0.000 C 
BRANCH  17  18
ATOM     18  C   UNL     1      49.040   5.847  16.840  0.00  0.00    +0.000 C 
BRANCH  18  19
ATOM     19  C   UNL     1      49.892   4.637  17.138  0.00  0.00    +0.000 A 
ATOM     20  C   UNL     1      49.343   3.348  17.072  0.00  0.00    +0.000 A 
ATOM     21  C   UNL     1      50.147   2.226  17.282  0.00  0.00    +0.000 A 
ATOM     22  C   UNL     1      51.509   2.381  17.560  0.00  0.00    +0.000 A 
ATOM     23  C   UNL     1      52.053   3.668  17.657  0.00  0.00    +0.000 A 
ATOM     24  C   UNL     1      51.248   4.789  17.446  0.00  0.00    +0.000 A 
BRANCH  22  25
ATOM     25  C   UNL     1      52.332   1.161  17.756  0.00  0.00    +0.000 C 
ATOM     26  N   UNL     1      51.697   0.035  18.203  0.00  0.00    +0.000 N 
ATOM     27  O   UNL     1      53.540   1.166  17.567  0.00  0.00    +0.000 OA
ATOM     28  H   UNL     1      50.772   0.061  18.612  0.00  0.00    +0.000 HD
ATOM     29  H   UNL     1      52.294  -0.749  18.438  0.00  0.00    +0.000 HD
ENDBRANCH  22  25
ENDBRANCH  18  19
ENDBRANCH  17  18
ENDBRANCH   1  17
TORSDOF 6
ENDMDL
MODEL 9
REMARK VINA RESULT:    -6.101      4.433      6.614
REMARK INTER + INTRA:          -8.116
REMARK INTER:                  -8.376
REMARK INTRA:                   0.261
REMARK UNBOUND:                 0.126
REMARK  Name = 
REMARK  9 active torsions:
REMARK  status: ('A' for Active; 'I' for Inactive)
REMARK    1  A    between atoms: C_1  and  C_2
REMARK    2  A    between atoms: C_2  and  C_3
REMARK    3  A    between atoms: C_2  and  C_4
REMARK    4  A    between atoms: C_2  and  N_5
REMARK    5  A    between atoms: N_5  and  C_6
REMARK    6  A    between atoms: C_6  and  C_7
REMARK    7  A    between atoms: C_7  and  C_8
REMARK    8  A    between atoms: C_11  and  C_12
REMARK    9  A    between atoms: C_20  and  C_21
REMARK                            x       y       z     vdW  Elec       q    Type
REMARK                         _______ _______ _______ _____ _____    ______ ____
ROOT
ATOM      1  N   UNL     1      48.648   7.666  14.591  0.00  0.00    +0.000 N 
ATOM      2  C   UNL     1      48.800   6.570  15.456  0.00  0.00    +0.000 A 
ATOM      3  C   UNL     1      47.889   5.496  15.489  0.00  0.00    +0.000 A 
ATOM      4  N   UNL     1      47.996   4.396  16.293  0.00  0.00    +0.000 NA
ATOM      5  C   UNL     1      49.087   4.403  17.103  0.00  0.00    +0.000 A 
ATOM      6  C   UNL     1      49.992   5.445  17.105  0.00  0.00    +0.000 A 
ATOM      7  N   UNL     1      49.855   6.531  16.300  0.00  0.00    +0.000 NA
ENDROOT
BRANCH   5   8
ATOM      8  C   UNL     1      49.296   3.244  18.010  0.00  0.00    +0.000 C 
ATOM      9  N   UNL     1      48.589   3.260  19.182  0.00  0.00    +0.000 N 
ATOM     10  O   UNL     1      50.059   2.320  17.727  0.00  0.00    +0.000 OA
ATOM     11  H   UNL     1      47.978   4.041  19.392  0.00  0.00    +0.000 HD
ATOM     12  H   UNL     1      48.703   2.505  19.844  0.00  0.00    +0.000 HD
ENDBRANCH   5   8
BRANCH   1  14
ATOM     13  C   UNL     1      48.704  10.171  14.081  0.00  0.00    +0.000 C 
ATOM     14  C   UNL     1      49.057   9.031  15.068  0.00  0.00    +0.000 C 
ATOM     15  C   UNL     1      50.574   9.118  15.326  0.00  0.00    +0.000 C 
ATOM     16  C   UNL     1      48.265   9.383  16.352  0.00  0.00    +0.000 C 
ENDBRANCH   1  14
BRANCH   1  17
ATOM     17  C   UNL     1      48.330   7.330  13.187  0.00  0.00    +0.000 C 
BRANCH  17  18
ATOM     18  C   UNL     1      46.872   7.560  12.778  0.00  0.00    +0.000 C 
BRANCH  18  19
ATOM     19  C   UNL     1      46.185   6.320  12.256  0.00  0.00    +0.000 A 
ATOM     20  C   UNL     1      45.658   5.373  13.146  0.00  0.00    +0.000 A 
ATOM     21  C   UNL     1      44.965   4.261  12.664  0.00  0.00    +0.000 A 
ATOM     22  C   UNL     1      44.790   4.085  11.287  0.00  0.00    +0.000 A 
ATOM     23  C   UNL     1      45.341   5.013  10.396  0.00  0.00    +0.000 A 
ATOM     24  C   UNL     1      46.034   6.126  10.879  0.00  0.00    +0.000 A 
BRANCH  22  25
ATOM     25  C   UNL     1      44.028   2.900  10.819  0.00  0.00    +0.000 C 
ATOM     26  N   UNL     1      44.528   2.210   9.749  0.00  0.00    +0.000 N 
ATOM     27  O   UNL     1      42.971   2.571  11.337  0.00  0.00    +0.000 OA
ATOM     28  H   UNL     1      45.241   2.593   9.142  0.00  0.00    +0.000 HD
ATOM     29  H   UNL     1      43.936   1.477   9.375  0.00  0.00    +0.000 HD
ENDBRANCH  22  25
ENDBRANCH  18  19
ENDBRANCH  17  18
ENDBRANCH   1  17
TORSDOF 6
ENDMDL
