MODEL 1
REMARK VINA RESULT:    -7.758      0.000      0.000
REMARK INTER + INTRA:         -12.466
REMARK INTER:                 -11.386
REMARK INTRA:                  -1.080
REMARK UNBOUND:                -1.080
REMARK  Name = 
REMARK  10 active torsions:
REMARK  status: ('A' for Active; 'I' for Inactive)
REMARK    1  A    between atoms: C_1  and  C_2
REMARK    2  A    between atoms: C_2  and  C_3
REMARK    3  A    between atoms: C_2  and  C_4
REMARK    4  A    between atoms: C_4  and  N_5
REMARK    5  A    between atoms: C_6  and  C_8
REMARK    6  A    between atoms: C_11  and  O_12
REMARK    7  A    between atoms: O_12  and  C_13
REMARK    8  A    between atoms: C_13  and  C_14
REMARK    9  A    between atoms: C_14  and  C_15
REMARK   10  A    between atoms: C_19  and  C_20
REMARK                            x       y       z     vdW  Elec       q    Type
REMARK                         _______ _______ _______ _____ _____    ______ ____
ROOT
ATOM      1  C   UNL     1      47.125   5.653  13.558  0.00  0.00    +0.000 A 
ATOM      2  C   UNL     1      45.943   6.140  13.021  0.00  0.00    +0.000 A 
ATOM      3  C   UNL     1      44.937   5.229  12.695  0.00  0.00    +0.000 A 
ATOM      4  C   UNL     1      45.162   3.888  12.949  0.00  0.00    +0.000 A 
ATOM      5  N   UNL     1      46.333   3.442  13.460  0.00  0.00    +0.000 NA
ATOM      6  N   UNL     1      47.329   4.330  13.769  0.00  0.00    +0.000 NA
ENDROOT
BRANCH   1   8
ATOM      7  N   UNL     1      48.321   7.747  13.222  0.00  0.00    +0.000 N 
ATOM      8  C   UNL     1      48.239   6.570  13.946  0.00  0.00    +0.000 C 
ATOM      9  O   UNL     1      49.011   6.270  14.847  0.00  0.00    +0.000 OA
ATOM     10  H   UNL     1      47.642   7.893  12.483  0.00  0.00    +0.000 HD
BRANCH   7  11
ATOM     11  C   UNL     1      49.360   8.734  13.439  0.00  0.00    +0.000 C 
BRANCH  11  13
ATOM     12  C   UNL     1      50.527   7.886  11.348  0.00  0.00    +0.000 C 
ATOM     13  C   UNL     1      50.106   9.119  12.151  0.00  0.00    +0.000 C 
ATOM     14  C   UNL     1      49.228  10.021  11.279  0.00  0.00    +0.000 C 
ENDBRANCH  11  13
ENDBRANCH   7  11
ENDBRANCH   1   8
BRANCH   4  15
ATOM     15  O   UNL     1      44.159   2.985  12.638  0.00  0.00    +0.000 OA
BRANCH  15  16
ATOM     16  C   UNL     1      43.527   3.310  11.390  0.00  0.00    +0.000 C 
BRANCH  16  17
ATOM     17  C   UNL     1      43.954   2.316  10.309  0.00  0.00    +0.000 C 
BRANCH  17  18
ATOM     18  C   UNL     1      44.928   2.922   9.329  0.00  0.00    +0.000 A 
ATOM     19  C   UNL     1      45.033   4.308   9.160  0.00  0.00    +0.000 A 
ATOM     20  C   UNL     1      45.941   4.808   8.232  0.00  0.00    +0.000 A 
ATOM     21  N   UNL     1      46.742   4.036   7.466  0.00  0.00    +0.000 NA
ATOM     22  C   UNL     1      46.636   2.692   7.655  0.00  0.00    +0.000 A 
ATOM     23  C   UNL     1      45.769   2.103   8.569  0.00  0.00    +0.000 A 
BRANCH  22  24
ATOM     24  C   UNL     1      47.491   1.817   6.790  0.00  0.00    +0.000 C 
ATOM     25  N   UNL     1      48.560   2.430   6.193  0.00  0.00    +0.000 N 
ATOM     26  O   UNL     1      47.248   0.630   6.608  0.00  0.00    +0.000 OA
ATOM     27  H   UNL     1      48.717   3.421   6.339  0.00  0.00    +0.000 HD
ATOM     28  H   UNL     1      49.145   1.902   5.562  0.00  0.00    +0.000 HD
ENDBRANCH  22  24
ENDBRANCH  17  18
ENDBRANCH  16  17
ENDBRANCH  15  16
ENDBRANCH   4  15
TORSDOF 8
ENDMDL
MODEL 2
REMARK VINA RESULT:    -7.493      1.266      1.851
REMARK INTER + INTRA:         -12.076
REMARK INTER:                 -11.102
REMARK INTRA:                  -0.975
REMARK UNBOUND:                -1.080
REMARK  Name = 
REMARK  10 active torsions:
REMARK  status: ('A' for Active; 'I' for Inactive)
REMARK    1  A    between atoms: C_1  and  C_2
REMARK    2  A    between atoms: C_2  and  C_3
REMARK    3  A    between atoms: C_2  and  C_4
REMARK    4  A    between atoms: C_4  and  N_5
REMARK    5  A    between atoms: C_6  and  C_8
REMARK    6  A    between atoms: C_11  and  O_12
REMARK    7  A    between atoms: O_12  and  C_13
REMARK    8  A    between atoms: C_13  and  C_14
REMARK    9  A    between atoms: C_14  and  C_15
REMARK   10  A    between atoms: C_19  and  C_20
REMARK                            x       y       z     vdW  Elec       q    Type
REMARK                         _______ _______ _______ _____ _____    ______ ____
ROOT
ATOM      1  C   UNL     1      46.939   5.875  13.431  0.00  0.00    +0.000 A 
ATOM      2  C   UNL     1      45.695   6.275  12.968  0.00  0.00    +0.000 A 
ATOM      3  C   UNL     1      44.741   5.293  12.695  0.00  0.00    +0.000 A 
ATOM      4  C   UNL     1      45.079   3.971  12.925  0.00  0.00    +0.000 A 
ATOM      5  N   UNL     1      46.307   3.612  13.363  0.00  0.00    +0.000 NA
ATOM      6  N   UNL     1      47.252   4.569  13.620  0.00  0.00    +0.000 NA
ENDROOT
BRANCH   1   8
ATOM      7  N   UNL     1      47.553   8.095  14.219  0.00  0.00    +0.000 N 
ATOM      8  C   UNL     1      48.004   6.871  13.760  0.00  0.00    +0.000 C 
ATOM      9  O   UNL     1      49.187   6.589  13.619  0.00  0.00    +0.000 OA
ATOM     10  H   UNL     1      46.550   8.232  14.284  0.00  0.00    +0.000 HD
BRANCH   7  11
ATOM     11  C   UNL     1      48.445   9.189  14.551  0.00  0.00    +0.000 C 
BRANCH  11  13
ATOM     12  C   UNL     1      50.156  10.095  16.197  0.00  0.00    +0.000 C 
ATOM     13  C   UNL     1      49.038   9.075  15.965  0.00  0.00    +0.000 C 
ATOM     14  C   UNL     1      47.943   9.269  17.017  0.00  0.00    +0.000 C 
ENDBRANCH  11  13
ENDBRANCH   7  11
ENDBRANCH   1   8
BRANCH   4  15
ATOM     15  O   UNL     1      44.129   2.998  12.667  0.00  0.00    +0.000 OA
BRANCH  15  16
ATOM     16  C   UNL     1      43.447   3.244  11.427  0.00  0.00    +0.000 C 
BRANCH  16  17
ATOM     17  C   UNL     1      43.921   2.256  10.360  0.00  0.00    +0.000 C 
BRANCH  17  18
ATOM     18  C   UNL     1      44.886   2.886   9.386  0.00  0.00    +0.000 A 
ATOM     19  C   UNL     1      44.945   4.274   9.206  0.00  0.00    +0.000 A 
ATOM     20  C   UNL     1      45.847   4.796   8.285  0.00  0.00    +0.000 A 
ATOM     21  N   UNL     1      46.685   4.046   7.536  0.00  0.00    +0.000 NA
ATOM     22  C   UNL     1      46.623   2.701   7.737  0.00  0.00    +0.000 A 
ATOM     23  C   UNL     1      45.764   2.090   8.645  0.00  0.00    +0.000 A 
BRANCH  22  24
ATOM     24  C   UNL     1      47.518   1.847   6.891  0.00  0.00    +0.000 C 
ATOM     25  N   UNL     1      48.596   2.483   6.334  0.00  0.00    +0.000 N 
ATOM     26  O   UNL     1      47.300   0.659   6.691  0.00  0.00    +0.000 OA
ATOM     27  H   UNL     1      48.732   3.475   6.494  0.00  0.00    +0.000 HD
ATOM     28  H   UNL     1      49.208   1.971   5.717  0.00  0.00    +0.000 HD
ENDBRANCH  22  24
ENDBRANCH  17  18
ENDBRANCH  16  17
ENDBRANCH  15  16
ENDBRANCH   4  15
TORSDOF 8
ENDMDL
MODEL 3
REMARK VINA RESULT:    -7.029      2.771      3.825
REMARK INTER + INTRA:         -11.396
REMARK INTER:                 -10.696
REMARK INTRA:                  -0.700
REMARK UNBOUND:                -1.080
REMARK  Name = 
REMARK  10 active torsions:
REMARK  status: ('A' for Active; 'I' for Inactive)
REMARK    1  A    between atoms: C_1  and  C_2
REMARK    2  A    between atoms: C_2  and  C_3
REMARK    3  A    between atoms: C_2  and  C_4
REMARK    4  A    between atoms: C_4  and  N_5
REMARK    5  A    between atoms: C_6  and  C_8
REMARK    6  A    between atoms: C_11  and  O_12
REMARK    7  A    between atoms: O_12  and  C_13
REMARK    8  A    between atoms: C_13  and  C_14
REMARK    9  A    between atoms: C_14  and  C_15
REMARK   10  A    between atoms: C_19  and  C_20
REMARK                            x       y       z     vdW  Elec       q    Type
REMARK                         _______ _______ _______ _____ _____    ______ ____
ROOT
ATOM      1  C   UNL     1      47.079   4.694  14.957  0.00  0.00    +0.000 A 
ATOM      2  C   UNL     1      47.585   5.820  14.324  0.00  0.00    +0.000 A 
ATOM      3  C   UNL     1      47.169   6.092  13.020  0.00  0.00    +0.000 A 
ATOM      4  C   UNL     1      46.254   5.236  12.433  0.00  0.00    +0.000 A 
ATOM      5  N   UNL     1      45.790   4.137  13.071  0.00  0.00    +0.000 NA
ATOM      6  N   UNL     1      46.204   3.858  14.347  0.00  0.00    +0.000 NA
ENDROOT
BRANCH   1   8
ATOM      7  N   UNL     1      48.646   4.916  16.806  0.00  0.00    +0.000 N 
ATOM      8  C   UNL     1      47.466   4.349  16.358  0.00  0.00    +0.000 C 
ATOM      9  O   UNL     1      46.765   3.610  17.036  0.00  0.00    +0.000 OA
ATOM     10  H   UNL     1      49.162   5.502  16.159  0.00  0.00    +0.000 HD
BRANCH   7  11
ATOM     11  C   UNL     1      49.190   4.662  18.126  0.00  0.00    +0.000 C 
BRANCH  11  13
ATOM     12  C   UNL     1      50.430   2.573  17.381  0.00  0.00    +0.000 C 
ATOM     13  C   UNL     1      50.539   3.925  18.089  0.00  0.00    +0.000 C 
ATOM     14  C   UNL     1      51.595   4.785  17.389  0.00  0.00    +0.000 C 
ENDBRANCH  11  13
ENDBRANCH   7  11
ENDBRANCH   1   8
BRANCH   4  15
ATOM     15  O   UNL     1      45.831   5.513  11.145  0.00  0.00    +0.000 OA
BRANCH  15  16
ATOM     16  C   UNL     1      44.528   4.966  10.890  0.00  0.00    +0.000 C 
BRANCH  16  17
ATOM     17  C   UNL     1      44.300   4.828   9.383  0.00  0.00    +0.000 C 
BRANCH  17  18
ATOM     18  C   UNL     1      44.984   3.612   8.810  0.00  0.00    +0.000 A 
ATOM     19  C   UNL     1      44.776   2.334   9.344  0.00  0.00    +0.000 A 
ATOM     20  C   UNL     1      45.444   1.252   8.781  0.00  0.00    +0.000 A 
ATOM     21  N   UNL     1      46.296   1.347   7.737  0.00  0.00    +0.000 NA
ATOM     22  C   UNL     1      46.474   2.595   7.224  0.00  0.00    +0.000 A 
ATOM     23  C   UNL     1      45.838   3.733   7.710  0.00  0.00    +0.000 A 
BRANCH  22  24
ATOM     24  C   UNL     1      47.443   2.729   6.089  0.00  0.00    +0.000 C 
ATOM     25  N   UNL     1      48.768   2.626   6.420  0.00  0.00    +0.000 N 
ATOM     26  O   UNL     1      47.084   2.935   4.936  0.00  0.00    +0.000 OA
ATOM     27  H   UNL     1      49.034   2.486   7.389  0.00  0.00    +0.000 HD
ATOM     28  H   UNL     1      49.469   2.755   5.706  0.00  0.00    +0.000 HD
ENDBRANCH  22  24
ENDBRANCH  17  18
ENDBRANCH  16  17
ENDBRANCH  15  16
ENDBRANCH   4  15
TORSDOF 8
ENDMDL
MODEL 4
REMARK VINA RESULT:    -6.881      4.910      6.050
REMARK INTER + INTRA:         -11.178
REMARK INTER:                 -10.531
REMARK INTRA:                  -0.647
REMARK UNBOUND:                -1.080
REMARK  Name = 
REMARK  10 active torsions:
REMARK  status: ('A' for Active; 'I' for Inactive)
REMARK    1  A    between atoms: C_1  and  C_2
REMARK    2  A    between atoms: C_2  and  C_3
REMARK    3  A    between atoms: C_2  and  C_4
REMARK    4  A    between atoms: C_4  and  N_5
REMARK    5  A    between atoms: C_6  and  C_8
REMARK    6  A    between atoms: C_11  and  O_12
REMARK    7  A    between atoms: O_12  and  C_13
REMARK    8  A    between atoms: C_13  and  C_14
REMARK    9  A    between atoms: C_14  and  C_15
REMARK   10  A    between atoms: C_19  and  C_20
REMARK                            x       y       z     vdW  Elec       q    Type
REMARK                         _______ _______ _______ _____ _____    ______ ____
ROOT
ATOM      1  C   UNL     1      50.210   2.498  17.153  0.00  0.00    +0.000 A 
ATOM      2  C   UNL     1      49.753   3.722  17.619  0.00  0.00    +0.000 A 
ATOM      3  C   UNL     1      48.589   4.252  17.060  0.00  0.00    +0.000 A 
ATOM      4  C   UNL     1      47.938   3.517  16.086  0.00  0.00    +0.000 A 
ATOM      5  N   UNL     1      48.418   2.332  15.641  0.00  0.00    +0.000 NA
ATOM      6  N   UNL     1      49.567   1.813  16.177  0.00  0.00    +0.000 NA
ENDROOT
BRANCH   1   8
ATOM      7  N   UNL     1      52.320   2.722  18.348  0.00  0.00    +0.000 N 
ATOM      8  C   UNL     1      51.440   1.862  17.716  0.00  0.00    +0.000 C 
ATOM      9  O   UNL     1      51.625   0.656  17.607  0.00  0.00    +0.000 OA
ATOM     10  H   UNL     1      52.080   3.707  18.370  0.00  0.00    +0.000 HD
BRANCH   7  11
ATOM     11  C   UNL     1      53.577   2.283  18.920  0.00  0.00    +0.000 C 
BRANCH  11  13
ATOM     12  C   UNL     1      55.207   1.804  17.030  0.00  0.00    +0.000 C 
ATOM     13  C   UNL     1      54.803   2.781  18.136  0.00  0.00    +0.000 C 
ATOM     14  C   UNL     1      54.517   4.156  17.524  0.00  0.00    +0.000 C 
ENDBRANCH  11  13
ENDBRANCH   7  11
ENDBRANCH   1   8
BRANCH   4  15
ATOM     15  O   UNL     1      46.776   4.036  15.540  0.00  0.00    +0.000 OA
BRANCH  15  16
ATOM     16  C   UNL     1      46.922   4.286  14.134  0.00  0.00    +0.000 C 
BRANCH  16  17
ATOM     17  C   UNL     1      45.899   5.327  13.675  0.00  0.00    +0.000 C 
BRANCH  17  18
ATOM     18  C   UNL     1      45.012   4.809  12.571  0.00  0.00    +0.000 A 
ATOM     19  C   UNL     1      43.738   4.291  12.835  0.00  0.00    +0.000 A 
ATOM     20  C   UNL     1      42.971   3.816  11.777  0.00  0.00    +0.000 A 
ATOM     21  N   UNL     1      43.375   3.817  10.488  0.00  0.00    +0.000 NA
ATOM     22  C   UNL     1      44.610   4.338  10.250  0.00  0.00    +0.000 A 
ATOM     23  C   UNL     1      45.441   4.849  11.241  0.00  0.00    +0.000 A 
BRANCH  22  24
ATOM     24  C   UNL     1      45.093   4.317   8.831  0.00  0.00    +0.000 C 
ATOM     25  N   UNL     1      44.483   3.408   8.008  0.00  0.00    +0.000 N 
ATOM     26  O   UNL     1      45.987   5.050   8.427  0.00  0.00    +0.000 OA
ATOM     27  H   UNL     1      43.767   2.794   8.380  0.00  0.00    +0.000 HD
ATOM     28  H   UNL     1      44.798   3.315   7.053  0.00  0.00    +0.000 HD
ENDBRANCH  22  24
ENDBRANCH  17  18
ENDBRANCH  16  17
ENDBRANCH  15  16
ENDBRANCH   4  15
TORSDOF 8
ENDMDL
MODEL 5
REMARK VINA RESULT:    -6.377      2.726      3.740
REMARK INTER + INTRA:         -10.439
REMARK INTER:                 -10.111
REMARK INTRA:                  -0.329
REMARK UNBOUND:                -1.080
REMARK  Name = 
REMARK  10 active torsions:
REMARK  status: ('A' for Active; 'I' for Inactive)
REMARK    1  A    between atoms: C_1  and  C_2
REMARK    2  A    between atoms: C_2  and  C_3
REMARK    3  A    between atoms: C_2  and  C_4
REMARK    4  A    between atoms: C_4  and  N_5
REMARK    5  A    between atoms: C_6  and  C_8
REMARK    6  A    between atoms: C_11  and  O_12
REMARK    7  A    between atoms: O_12  and  C_13
REMARK    8  A    between atoms: C_13  and  C_14
REMARK    9  A    between atoms: C_14  and  C_15
REMARK   10  A    between atoms: C_19  and  C_20
REMARK                            x       y       z     vdW  Elec       q    Type
REMARK                         _______ _______ _______ _____ _____    ______ ____
ROOT
ATOM      1  C   UNL     1      47.740   5.130  15.122  0.00  0.00    +0.000 A 
ATOM      2  C   UNL     1      47.719   6.063  14.096  0.00  0.00    +0.000 A 
ATOM      3  C   UNL     1      47.012   5.754  12.932  0.00  0.00    +0.000 A 
ATOM      4  C   UNL     1      46.348   4.542  12.872  0.00  0.00    +0.000 A 
ATOM      5  N   UNL     1      46.401   3.646  13.885  0.00  0.00    +0.000 NA
ATOM      6  N   UNL     1      47.103   3.937  15.024  0.00  0.00    +0.000 NA
ENDROOT
BRANCH   1   8
ATOM      7  N   UNL     1      47.667   5.798  17.461  0.00  0.00    +0.000 N 
ATOM      8  C   UNL     1      48.462   5.398  16.402  0.00  0.00    +0.000 C 
ATOM      9  O   UNL     1      49.677   5.264  16.474  0.00  0.00    +0.000 OA
ATOM     10  H   UNL     1      46.672   5.894  17.292  0.00  0.00    +0.000 HD
BRANCH   7  11
ATOM     11  C   UNL     1      48.204   6.134  18.766  0.00  0.00    +0.000 C 
BRANCH  11  13
ATOM     12  C   UNL     1      47.216   8.454  19.080  0.00  0.00    +0.000 C 
ATOM     13  C   UNL     1      48.499   7.634  18.928  0.00  0.00    +0.000 C 
ATOM     14  C   UNL     1      49.402   7.868  20.143  0.00  0.00    +0.000 C 
ENDBRANCH  11  13
ENDBRANCH   7  11
ENDBRANCH   1   8
BRANCH   4  15
ATOM     15  O   UNL     1      45.637   4.241  11.724  0.00  0.00    +0.000 OA
BRANCH  15  16
ATOM     16  C   UNL     1      45.377   5.417  10.943  0.00  0.00    +0.000 C 
BRANCH  16  17
ATOM     17  C   UNL     1      44.574   5.052   9.693  0.00  0.00    +0.000 C 
BRANCH  17  18
ATOM     18  C   UNL     1      45.081   3.793   9.035  0.00  0.00    +0.000 A 
ATOM     19  C   UNL     1      44.723   2.524   9.508  0.00  0.00    +0.000 A 
ATOM     20  C   UNL     1      45.232   1.398   8.868  0.00  0.00    +0.000 A 
ATOM     21  N   UNL     1      46.063   1.443   7.804  0.00  0.00    +0.000 NA
ATOM     22  C   UNL     1      46.387   2.685   7.351  0.00  0.00    +0.000 A 
ATOM     23  C   UNL     1      45.915   3.865   7.917  0.00  0.00    +0.000 A 
BRANCH  22  24
ATOM     24  C   UNL     1      47.336   2.759   6.194  0.00  0.00    +0.000 C 
ATOM     25  N   UNL     1      48.644   2.463   6.476  0.00  0.00    +0.000 N 
ATOM     26  O   UNL     1      46.980   3.078   5.067  0.00  0.00    +0.000 OA
ATOM     27  H   UNL     1      48.913   2.232   7.426  0.00  0.00    +0.000 HD
ATOM     28  H   UNL     1      49.338   2.541   5.747  0.00  0.00    +0.000 HD
ENDBRANCH  22  24
ENDBRANCH  17  18
ENDBRANCH  16  17
ENDBRANCH  15  16
ENDBRANCH   4  15
TORSDOF 8
ENDMDL
MODEL 6
REMARK VINA RESULT:    -6.281      3.577      4.962
REMARK INTER + INTRA:         -10.298
REMARK INTER:                  -9.441
REMARK INTRA:                  -0.857
REMARK UNBOUND:                -1.080
REMARK  Name = 
REMARK  10 active torsions:
REMARK  status: ('A' for Active; 'I' for Inactive)
REMARK    1  A    between atoms: C_1  and  C_2
REMARK    2  A    between atoms: C_2  and  C_3
REMARK    3  A    between atoms: C_2  and  C_4
REMARK    4  A    between atoms: C_4  and  N_5
REMARK    5  A    between atoms: C_6  and  C_8
REMARK    6  A    between atoms: C_11  and  O_12
REMARK    7  A    between atoms: O_12  and  C_13
REMARK    8  A    between atoms: C_13  and  C_14
REMARK    9  A    between atoms: C_14  and  C_15
REMARK   10  A    between atoms: C_19  and  C_20
REMARK                            x       y       z     vdW  Elec       q    Type
REMARK                         _______ _______ _______ _____ _____    ______ ____
ROOT
ATOM      1  C   UNL     1      48.273   4.915  16.155  0.00  0.00    +0.000 A 
ATOM      2  C   UNL     1      47.188   4.235  15.621  0.00  0.00    +0.000 A 
ATOM      3  C   UNL     1      46.697   4.639  14.379  0.00  0.00    +0.000 A 
ATOM      4  C   UNL     1      47.333   5.684  13.733  0.00  0.00    +0.000 A 
ATOM      5  N   UNL     1      48.380   6.338  14.287  0.00  0.00    +0.000 NA
ATOM      6  N   UNL     1      48.859   5.954  15.511  0.00  0.00    +0.000 NA
ENDROOT
BRANCH   1   8
ATOM      7  N   UNL     1      50.192   4.866  17.652  0.00  0.00    +0.000 N 
ATOM      8  C   UNL     1      48.863   4.527  17.472  0.00  0.00    +0.000 C 
ATOM      9  O   UNL     1      48.188   3.948  18.313  0.00  0.00    +0.000 OA
ATOM     10  H   UNL     1      50.667   5.330  16.885  0.00  0.00    +0.000 HD
BRANCH   7  11
ATOM     11  C   UNL     1      50.934   4.536  18.853  0.00  0.00    +0.000 C 
BRANCH  11  13
ATOM     12  C   UNL     1      52.155   2.520  17.902  0.00  0.00    +0.000 C 
ATOM     13  C   UNL     1      52.300   3.894  18.560  0.00  0.00    +0.000 C 
ATOM     14  C   UNL     1      53.132   4.808  17.656  0.00  0.00    +0.000 C 
ENDBRANCH  11  13
ENDBRANCH   7  11
ENDBRANCH   1   8
BRANCH   4  15
ATOM     15  O   UNL     1      46.854   6.077  12.495  0.00  0.00    +0.000 OA
BRANCH  15  16
ATOM     16  C   UNL     1      45.973   7.206  12.607  0.00  0.00    +0.000 C 
BRANCH  16  17
ATOM     17  C   UNL     1      44.862   7.113  11.560  0.00  0.00    +0.000 C 
BRANCH  17  18
ATOM     18  C   UNL     1      44.379   5.697  11.363  0.00  0.00    +0.000 A 
ATOM     19  C   UNL     1      43.580   5.055  12.317  0.00  0.00    +0.000 A 
ATOM     20  C   UNL     1      43.176   3.744  12.086  0.00  0.00    +0.000 A 
ATOM     21  N   UNL     1      43.508   3.032  10.988  0.00  0.00    +0.000 NA
ATOM     22  C   UNL     1      44.273   3.678  10.066  0.00  0.00    +0.000 A 
ATOM     23  C   UNL     1      44.711   4.991  10.203  0.00  0.00    +0.000 A 
BRANCH  22  24
ATOM     24  C   UNL     1      44.683   2.895   8.856  0.00  0.00    +0.000 C 
ATOM     25  N   UNL     1      44.860   1.550   9.048  0.00  0.00    +0.000 N 
ATOM     26  O   UNL     1      44.867   3.416   7.763  0.00  0.00    +0.000 OA
ATOM     27  H   UNL     1      44.729   1.153   9.972  0.00  0.00    +0.000 HD
ATOM     28  H   UNL     1      45.181   0.978   8.281  0.00  0.00    +0.000 HD
ENDBRANCH  22  24
ENDBRANCH  17  18
ENDBRANCH  16  17
ENDBRANCH  15  16
ENDBRANCH   4  15
TORSDOF 8
ENDMDL
MODEL 7
REMARK VINA RESULT:    -6.260      3.609      5.120
REMARK INTER + INTRA:         -10.267
REMARK INTER:                  -9.350
REMARK INTRA:                  -0.917
REMARK UNBOUND:                -1.080
REMARK  Name = 
REMARK  10 active torsions:
REMARK  status: ('A' for Active; 'I' for Inactive)
REMARK    1  A    between atoms: C_1  and  C_2
REMARK    2  A    between atoms: C_2  and  C_3
REMARK    3  A    between atoms: C_2  and  C_4
REMARK    4  A    between atoms: C_4  and  N_5
REMARK    5  A    between atoms: C_6  and  C_8
REMARK    6  A    between atoms: C_11  and  O_12
REMARK    7  A    between atoms: O_12  and  C_13
REMARK    8  A    between atoms: C_13  and  C_14
REMARK    9  A    between atoms: C_14  and  C_15
REMARK   10  A    between atoms: C_19  and  C_20
REMARK                            x       y       z     vdW  Elec       q    Type
REMARK                         _______ _______ _______ _____ _____    ______ ____
ROOT
ATOM      1  C   UNL     1      48.065   4.670  16.237  0.00  0.00    +0.000 A 
ATOM      2  C   UNL     1      47.084   4.014  15.508  0.00  0.00    +0.000 A 
ATOM      3  C   UNL     1      46.743   4.519  14.252  0.00  0.00    +0.000 A 
ATOM      4  C   UNL     1      47.417   5.634  13.789  0.00  0.00    +0.000 A 
ATOM      5  N   UNL     1      48.359   6.261  14.532  0.00  0.00    +0.000 NA
ATOM      6  N   UNL     1      48.690   5.778  15.770  0.00  0.00    +0.000 NA
ENDROOT
BRANCH   1   8
ATOM      7  N   UNL     1      48.802   5.161  18.505  0.00  0.00    +0.000 N 
ATOM      8  C   UNL     1      48.494   4.178  17.581  0.00  0.00    +0.000 C 
ATOM      9  O   UNL     1      48.559   2.978  17.816  0.00  0.00    +0.000 OA
ATOM     10  H   UNL     1      48.732   6.127  18.204  0.00  0.00    +0.000 HD
BRANCH   7  11
ATOM     11  C   UNL     1      49.270   4.864  19.845  0.00  0.00    +0.000 C 
BRANCH  11  13
ATOM     12  C   UNL     1      49.597   7.230  20.713  0.00  0.00    +0.000 C 
ATOM     13  C   UNL     1      48.835   5.913  20.881  0.00  0.00    +0.000 C 
ATOM     14  C   UNL     1      47.330   6.176  20.770  0.00  0.00    +0.000 C 
ENDBRANCH  11  13
ENDBRANCH   7  11
ENDBRANCH   1   8
BRANCH   4  15
ATOM     15  O   UNL     1      47.088   6.127  12.539  0.00  0.00    +0.000 OA
BRANCH  15  16
ATOM     16  C   UNL     1      45.993   7.053  12.610  0.00  0.00    +0.000 C 
BRANCH  16  17
ATOM     17  C   UNL     1      45.118   6.932  11.361  0.00  0.00    +0.000 C 
BRANCH  17  18
ATOM     18  C   UNL     1      44.596   5.531  11.162  0.00  0.00    +0.000 A 
ATOM     19  C   UNL     1      43.697   4.948  12.064  0.00  0.00    +0.000 A 
ATOM     20  C   UNL     1      43.260   3.648  11.834  0.00  0.00    +0.000 A 
ATOM     21  N   UNL     1      43.650   2.892  10.785  0.00  0.00    +0.000 NA
ATOM     22  C   UNL     1      44.512   3.482   9.912  0.00  0.00    +0.000 A 
ATOM     23  C   UNL     1      44.991   4.780  10.051  0.00  0.00    +0.000 A 
BRANCH  22  24
ATOM     24  C   UNL     1      44.985   2.649   8.759  0.00  0.00    +0.000 C 
ATOM     25  N   UNL     1      45.304   3.337   7.619  0.00  0.00    +0.000 N 
ATOM     26  O   UNL     1      45.069   1.429   8.817  0.00  0.00    +0.000 OA
ATOM     27  H   UNL     1      45.195   4.344   7.592  0.00  0.00    +0.000 HD
ATOM     28  H   UNL     1      45.584   2.826   6.794  0.00  0.00    +0.000 HD
ENDBRANCH  22  24
ENDBRANCH  17  18
ENDBRANCH  16  17
ENDBRANCH  15  16
ENDBRANCH   4  15
TORSDOF 8
ENDMDL
MODEL 8
REMARK VINA RESULT:    -6.153      3.234      8.156
REMARK INTER + INTRA:         -10.110
REMARK INTER:                  -9.196
REMARK INTRA:                  -0.914
REMARK UNBOUND:                -1.080
REMARK  Name = 
REMARK  10 active torsions:
REMARK  status: ('A' for Active; 'I' for Inactive)
REMARK    1  A    between atoms: C_1  and  C_2
REMARK    2  A    between atoms: C_2  and  C_3
REMARK    3  A    between atoms: C_2  and  C_4
REMARK    4  A    between atoms: C_4  and  N_5
REMARK    5  A    between atoms: C_6  and  C_8
REMARK    6  A    between atoms: C_11  and  O_12
REMARK    7  A    between atoms: O_12  and  C_13
REMARK    8  A    between atoms: C_13  and  C_14
REMARK    9  A    between atoms: C_14  and  C_15
REMARK   10  A    between atoms: C_19  and  C_20
REMARK                            x       y       z     vdW  Elec       q    Type
REMARK                         _______ _______ _______ _____ _____    ______ ____
ROOT
ATOM      1  C   UNL     1      46.340   5.463  12.809  0.00  0.00    +0.000 A 
ATOM      2  C   UNL     1      45.953   6.795  12.833  0.00  0.00    +0.000 A 
ATOM      3  C   UNL     1      46.820   7.728  13.403  0.00  0.00    +0.000 A 
ATOM      4  C   UNL     1      48.033   7.280  13.894  0.00  0.00    +0.000 A 
ATOM      5  N   UNL     1      48.375   5.971  13.871  0.00  0.00    +0.000 NA
ATOM      6  N   UNL     1      47.524   5.048  13.324  0.00  0.00    +0.000 NA
ENDROOT
BRANCH   1   8
ATOM      7  N   UNL     1      44.935   4.723  10.964  0.00  0.00    +0.000 N 
ATOM      8  C   UNL     1      45.472   4.411  12.200  0.00  0.00    +0.000 C 
ATOM      9  O   UNL     1      45.269   3.354  12.784  0.00  0.00    +0.000 OA
ATOM     10  H   UNL     1      45.152   5.634  10.574  0.00  0.00    +0.000 HD
BRANCH   7  11
ATOM     11  C   UNL     1      44.042   3.835  10.246  0.00  0.00    +0.000 C 
BRANCH  11  13
ATOM     12  C   UNL     1      45.720   4.306   8.396  0.00  0.00    +0.000 C 
ATOM     13  C   UNL     1      44.609   3.377   8.891  0.00  0.00    +0.000 C 
ATOM     14  C   UNL     1      45.147   1.948   8.998  0.00  0.00    +0.000 C 
ENDBRANCH  11  13
ENDBRANCH   7  11
ENDBRANCH   1   8
BRANCH   4  15
ATOM     15  O   UNL     1      48.898   8.208  14.449  0.00  0.00    +0.000 OA
BRANCH  15  16
ATOM     16  C   UNL     1      49.608   7.660  15.570  0.00  0.00    +0.000 C 
BRANCH  16  17
ATOM     17  C   UNL     1      48.786   7.833  16.849  0.00  0.00    +0.000 C 
BRANCH  17  18
ATOM     18  C   UNL     1      48.740   6.571  17.674  0.00  0.00    +0.000 A 
ATOM     19  C   UNL     1      48.307   6.581  19.006  0.00  0.00    +0.000 A 
ATOM     20  C   UNL     1      48.298   5.387  19.720  0.00  0.00    +0.000 A 
ATOM     21  N   UNL     1      48.685   4.197  19.212  0.00  0.00    +0.000 NA
ATOM     22  C   UNL     1      49.088   4.206  17.912  0.00  0.00    +0.000 A 
ATOM     23  C   UNL     1      49.117   5.346  17.116  0.00  0.00    +0.000 A 
BRANCH  22  24
ATOM     24  C   UNL     1      49.556   2.904  17.338  0.00  0.00    +0.000 C 
ATOM     25  N   UNL     1      50.516   2.245  18.061  0.00  0.00    +0.000 N 
ATOM     26  O   UNL     1      49.127   2.454  16.283  0.00  0.00    +0.000 OA
ATOM     27  H   UNL     1      50.873   2.657  18.915  0.00  0.00    +0.000 HD
ATOM     28  H   UNL     1      50.904   1.385  17.701  0.00  0.00    +0.000 HD
ENDBRANCH  22  24
ENDBRANCH  17  18
ENDBRANCH  16  17
ENDBRANCH  15  16
ENDBRANCH   4  15
TORSDOF 8
ENDMDL
MODEL 9
REMARK VINA RESULT:    -5.529      3.650      8.260
REMARK INTER + INTRA:          -9.194
REMARK INTER:                  -8.011
REMARK INTRA:                  -1.183
REMARK UNBOUND:                -1.080
REMARK  Name = 
REMARK  10 active torsions:
REMARK  status: ('A' for Active; 'I' for Inactive)
REMARK    1  A    between atoms: C_1  and  C_2
REMARK    2  A    between atoms: C_2  and  C_3
REMARK    3  A    between atoms: C_2  and  C_4
REMARK    4  A    between atoms: C_4  and  N_5
REMARK    5  A    between atoms: C_6  and  C_8
REMARK    6  A    between atoms: C_11  and  O_12
REMARK    7  A    between atoms: O_12  and  C_13
REMARK    8  A    between atoms: C_13  and  C_14
REMARK    9  A    between atoms: C_14  and  C_15
REMARK   10  A    between atoms: C_19  and  C_20
REMARK                            x       y       z     vdW  Elec       q    Type
REMARK                         _______ _______ _______ _____ _____    ______ ____
ROOT
ATOM      1  C   UNL     1      47.057   7.200  13.126  0.00  0.00    +0.000 A 
ATOM      2  C   UNL     1      47.218   8.467  13.667  0.00  0.00    +0.000 A 
ATOM      3  C   UNL     1      48.470   8.817  14.175  0.00  0.00    +0.000 A 
ATOM      4  C   UNL     1      49.494   7.890  14.090  0.00  0.00    +0.000 A 
ATOM      5  N   UNL     1      49.301   6.656  13.571  0.00  0.00    +0.000 NA
ATOM      6  N   UNL     1      48.071   6.301  13.082  0.00  0.00    +0.000 NA
ENDROOT
BRANCH   1   8
ATOM      7  N   UNL     1      45.192   5.636  13.129  0.00  0.00    +0.000 N 
ATOM      8  C   UNL     1      45.751   6.760  12.549  0.00  0.00    +0.000 C 
ATOM      9  O   UNL     1      45.237   7.377  11.624  0.00  0.00    +0.000 OA
ATOM     10  H   UNL     1      45.707   5.188  13.879  0.00  0.00    +0.000 HD
BRANCH   7  11
ATOM     11  C   UNL     1      43.947   5.050  12.671  0.00  0.00    +0.000 C 
BRANCH  11  13
ATOM     12  C   UNL     1      43.340   2.717  11.867  0.00  0.00    +0.000 C 
ATOM     13  C   UNL     1      44.146   3.986  11.579  0.00  0.00    +0.000 C 
ATOM     14  C   UNL     1      43.744   4.548  10.213  0.00  0.00    +0.000 C 
ENDBRANCH  11  13
ENDBRANCH   7  11
ENDBRANCH   1   8
BRANCH   4  15
ATOM     15  O   UNL     1      50.738   8.242  14.582  0.00  0.00    +0.000 OA
BRANCH  15  16
ATOM     16  C   UNL     1      51.192   7.313  15.579  0.00  0.00    +0.000 C 
BRANCH  16  17
ATOM     17  C   UNL     1      50.491   7.587  16.911  0.00  0.00    +0.000 C 
BRANCH  17  18
ATOM     18  C   UNL     1      49.964   6.325  17.550  0.00  0.00    +0.000 A 
ATOM     19  C   UNL     1      50.519   5.813  18.729  0.00  0.00    +0.000 A 
ATOM     20  C   UNL     1      49.999   4.639  19.264  0.00  0.00    +0.000 A 
ATOM     21  N   UNL     1      48.979   3.944  18.716  0.00  0.00    +0.000 NA
ATOM     22  C   UNL     1      48.443   4.466  17.578  0.00  0.00    +0.000 A 
ATOM     23  C   UNL     1      48.887   5.641  16.980  0.00  0.00    +0.000 A 
BRANCH  22  24
ATOM     24  C   UNL     1      47.334   3.692  16.934  0.00  0.00    +0.000 C 
ATOM     25  N   UNL     1      46.798   2.681  17.686  0.00  0.00    +0.000 N 
ATOM     26  O   UNL     1      46.934   3.930  15.801  0.00  0.00    +0.000 OA
ATOM     27  H   UNL     1      47.171   2.489  18.609  0.00  0.00    +0.000 HD
ATOM     28  H   UNL     1      46.079   2.094  17.288  0.00  0.00    +0.000 HD
ENDBRANCH  22  24
ENDBRANCH  17  18
ENDBRANCH  16  17
ENDBRANCH  15  16
ENDBRANCH   4  15
TORSDOF 8
ENDMDL
