MODEL 1
REMARK VINA RESULT:    -7.315      0.000      0.000
REMARK INTER + INTRA:          -9.381
REMARK INTER:                  -8.812
REMARK INTRA:                  -0.569
REMARK UNBOUND:                -0.569
REMARK  Name = 
REMARK  4 active torsions:
REMARK  status: ('A' for Active; 'I' for Inactive)
REMARK    1  A    between atoms: N_1  and  C_2
REMARK    2  A    between atoms: C_2  and  C_3
REMARK    3  A    between atoms: C_6  and  C_7
REMARK    4  A    between atoms: C_7  and  C_8
REMARK                            x       y       z     vdW  Elec       q    Type
REMARK                         _______ _______ _______ _____ _____    ______ ____
ROOT
ATOM      1  C   UNL     1      43.635   4.426  10.000  0.00  0.00    +0.000 C 
ENDROOT
BRANCH   1   2
ATOM      2  C   UNL     1      44.373   5.200  11.045  0.00  0.00    +0.000 A 
ATOM      3  C   UNL     1      44.534   6.567  11.137  0.00  0.00    +0.000 A 
ATOM      4  N   UNL     1      45.883   6.706  11.392  0.00  0.00    +0.000 N 
ATOM      5  C   UNL     1      46.209   5.660  12.245  0.00  0.00    +0.000 A 
ATOM      6  C   UNL     1      47.317   5.480  13.050  0.00  0.00    +0.000 A 
ATOM      7  C   UNL     1      47.311   4.291  13.761  0.00  0.00    +0.000 A 
ATOM      8  N   UNL     1      46.360   3.331  13.669  0.00  0.00    +0.000 NA
ATOM      9  C   UNL     1      45.327   3.512  12.812  0.00  0.00    +0.000 A 
ATOM     10  C   UNL     1      45.213   4.704  12.081  0.00  0.00    +0.000 A 
ATOM     11  H   UNL     1      46.542   7.114  10.756  0.00  0.00    +0.000 HD
ENDBRANCH   1   2
BRANCH   1  15
ATOM     12  C   UNL     1      46.640   2.409   7.687  0.00  0.00    +0.000 A 
ATOM     13  C   UNL     1      46.555   3.802   7.590  0.00  0.00    +0.000 A 
ATOM     14  C   UNL     1      45.613   4.490   8.377  0.00  0.00    +0.000 A 
ATOM     15  C   UNL     1      44.799   3.757   9.255  0.00  0.00    +0.000 A 
ATOM     16  C   UNL     1      44.991   2.384   9.305  0.00  0.00    +0.000 A 
ATOM     17  N   UNL     1      45.873   1.705   8.548  0.00  0.00    +0.000 NA
BRANCH  12  18
ATOM     18  C   UNL     1      47.623   1.639   6.843  0.00  0.00    +0.000 C 
BRANCH  18  19
ATOM     19  N   UNL     1      48.628   2.516   6.242  0.00  0.00    +0.000 NA
ATOM     20  H   UNL     1      49.237   2.871   6.977  0.00  0.00    +0.000 HD
ATOM     21  H   UNL     1      48.127   3.331   5.880  0.00  0.00    +0.000 HD
ENDBRANCH  18  19
ENDBRANCH  12  18
ENDBRANCH   1  15
TORSDOF 4
ENDMDL
MODEL 2
REMARK VINA RESULT:    -6.909      1.125      2.327
REMARK INTER + INTRA:          -8.892
REMARK INTER:                  -8.502
REMARK INTRA:                  -0.390
REMARK UNBOUND:                -0.569
REMARK  Name = 
REMARK  4 active torsions:
REMARK  status: ('A' for Active; 'I' for Inactive)
REMARK    1  A    between atoms: N_1  and  C_2
REMARK    2  A    between atoms: C_2  and  C_3
REMARK    3  A    between atoms: C_6  and  C_7
REMARK    4  A    between atoms: C_7  and  C_8
REMARK                            x       y       z     vdW  Elec       q    Type
REMARK                         _______ _______ _______ _____ _____    ______ ____
ROOT
ATOM      1  C   UNL     1      44.051   4.205  10.582  0.00  0.00    +0.000 C 
ENDROOT
BRANCH   1   2
ATOM      2  C   UNL     1      45.147   4.231  11.599  0.00  0.00    +0.000 A 
ATOM      3  C   UNL     1      45.447   3.280  12.552  0.00  0.00    +0.000 A 
ATOM      4  N   UNL     1      45.616   4.029  13.699  0.00  0.00    +0.000 N 
ATOM      5  C   UNL     1      46.260   5.190  13.292  0.00  0.00    +0.000 A 
ATOM      6  C   UNL     1      46.937   6.139  14.033  0.00  0.00    +0.000 A 
ATOM      7  C   UNL     1      47.444   7.186  13.282  0.00  0.00    +0.000 A 
ATOM      8  N   UNL     1      47.272   7.345  11.947  0.00  0.00    +0.000 NA
ATOM      9  C   UNL     1      46.537   6.431  11.268  0.00  0.00    +0.000 A 
ATOM     10  C   UNL     1      46.021   5.306  11.927  0.00  0.00    +0.000 A 
ATOM     11  H   UNL     1      45.005   3.996  14.494  0.00  0.00    +0.000 HD
ENDBRANCH   1   2
BRANCH   1  15
ATOM     12  C   UNL     1      46.407   2.614   7.364  0.00  0.00    +0.000 A 
ATOM     13  C   UNL     1      45.850   1.718   8.281  0.00  0.00    +0.000 A 
ATOM     14  C   UNL     1      45.031   2.210   9.315  0.00  0.00    +0.000 A 
ATOM     15  C   UNL     1      44.781   3.590   9.380  0.00  0.00    +0.000 A 
ATOM     16  C   UNL     1      45.348   4.388   8.397  0.00  0.00    +0.000 A 
ATOM     17  N   UNL     1      46.148   3.940   7.412  0.00  0.00    +0.000 NA
BRANCH  12  18
ATOM     18  C   UNL     1      47.306   2.121   6.258  0.00  0.00    +0.000 C 
BRANCH  18  19
ATOM     19  N   UNL     1      48.698   2.514   6.472  0.00  0.00    +0.000 NA
ATOM     20  H   UNL     1      48.734   3.518   6.638  0.00  0.00    +0.000 HD
ATOM     21  H   UNL     1      49.185   2.363   5.586  0.00  0.00    +0.000 HD
ENDBRANCH  18  19
ENDBRANCH  12  18
ENDBRANCH   1  15
TORSDOF 4
ENDMDL
MODEL 3
REMARK VINA RESULT:    -6.268      1.457      5.473
REMARK INTER + INTRA:          -8.119
REMARK INTER:                  -8.056
REMARK INTRA:                  -0.063
REMARK UNBOUND:                -0.569
REMARK  Name = 
REMARK  4 active torsions:
REMARK  status: ('A' for Active; 'I' for Inactive)
REMARK    1  A    between atoms: N_1  and  C_2
REMARK    2  A    between atoms: C_2  and  C_3
REMARK    3  A    between atoms: C_6  and  C_7
REMARK    4  A    between atoms: C_7  and  C_8
REMARK                            x       y       z     vdW  Elec       q    Type
REMARK                         _______ _______ _______ _____ _____    ______ ____
ROOT
ATOM      1  C   UNL     1      44.442   5.988  10.750  0.00  0.00    +0.000 C 
ENDROOT
BRANCH   1   2
ATOM      2  C   UNL     1      44.248   4.617  10.185  0.00  0.00    +0.000 A 
ATOM      3  C   UNL     1      43.436   3.608  10.659  0.00  0.00    +0.000 A 
ATOM      4  N   UNL     1      44.263   2.503  10.631  0.00  0.00    +0.000 N 
ATOM      5  C   UNL     1      45.022   2.637   9.476  0.00  0.00    +0.000 A 
ATOM      6  C   UNL     1      45.777   1.702   8.794  0.00  0.00    +0.000 A 
ATOM      7  C   UNL     1      46.420   2.204   7.675  0.00  0.00    +0.000 A 
ATOM      8  N   UNL     1      46.394   3.498   7.274  0.00  0.00    +0.000 NA
ATOM      9  C   UNL     1      45.703   4.400   8.013  0.00  0.00    +0.000 A 
ATOM     10  C   UNL     1      44.975   3.984   9.137  0.00  0.00    +0.000 A 
ATOM     11  H   UNL     1      44.592   2.020  11.446  0.00  0.00    +0.000 HD
ENDBRANCH   1   2
BRANCH   1  15
ATOM     12  C   UNL     1      46.642   4.741  14.222  0.00  0.00    +0.000 A 
ATOM     13  C   UNL     1      47.320   5.460  13.232  0.00  0.00    +0.000 A 
ATOM     14  C   UNL     1      46.610   5.925  12.110  0.00  0.00    +0.000 A 
ATOM     15  C   UNL     1      45.232   5.669  12.028  0.00  0.00    +0.000 A 
ATOM     16  C   UNL     1      44.647   4.983  13.082  0.00  0.00    +0.000 A 
ATOM     17  N   UNL     1      45.311   4.515  14.155  0.00  0.00    +0.000 NA
BRANCH  12  18
ATOM     18  C   UNL     1      47.378   4.211  15.426  0.00  0.00    +0.000 C 
BRANCH  18  19
ATOM     19  N   UNL     1      47.874   2.853  15.207  0.00  0.00    +0.000 NA
ATOM     20  H   UNL     1      47.967   2.387  16.107  0.00  0.00    +0.000 HD
ATOM     21  H   UNL     1      48.826   2.944  14.843  0.00  0.00    +0.000 HD
ENDBRANCH  18  19
ENDBRANCH  12  18
ENDBRANCH   1  15
TORSDOF 4
ENDMDL
MODEL 4
REMARK VINA RESULT:    -6.219      2.565      6.247
REMARK INTER + INTRA:          -8.060
REMARK INTER:                  -7.666
REMARK INTRA:                  -0.394
REMARK UNBOUND:                -0.569
REMARK  Name = 
REMARK  4 active torsions:
REMARK  status: ('A' for Active; 'I' for Inactive)
REMARK    1  A    between atoms: N_1  and  C_2
REMARK    2  A    between atoms: C_2  and  C_3
REMARK    3  A    between atoms: C_6  and  C_7
REMARK    4  A    between atoms: C_7  and  C_8
REMARK                            x       y       z     vdW  Elec       q    Type
REMARK                         _______ _______ _______ _____ _____    ______ ____
ROOT
ATOM      1  C   UNL     1      47.780   6.644  12.356  0.00  0.00    +0.000 C 
ENDROOT
BRANCH   1   2
ATOM      2  C   UNL     1      46.333   6.790  12.009  0.00  0.00    +0.000 A 
ATOM      3  C   UNL     1      45.393   7.608  12.601  0.00  0.00    +0.000 A 
ATOM      4  N   UNL     1      44.318   6.764  12.786  0.00  0.00    +0.000 N 
ATOM      5  C   UNL     1      44.283   5.953  11.660  0.00  0.00    +0.000 A 
ATOM      6  C   UNL     1      43.270   5.152  11.171  0.00  0.00    +0.000 A 
ATOM      7  C   UNL     1      43.603   4.463  10.016  0.00  0.00    +0.000 A 
ATOM      8  N   UNL     1      44.816   4.490   9.413  0.00  0.00    +0.000 NA
ATOM      9  C   UNL     1      45.807   5.229   9.967  0.00  0.00    +0.000 A 
ATOM     10  C   UNL     1      45.559   6.004  11.109  0.00  0.00    +0.000 A 
ATOM     11  H   UNL     1      43.977   6.467  13.682  0.00  0.00    +0.000 HD
ENDBRANCH   1   2
BRANCH   1  15
ATOM     12  C   UNL     1      47.760   4.554  16.108  0.00  0.00    +0.000 A 
ATOM     13  C   UNL     1      48.350   5.821  16.060  0.00  0.00    +0.000 A 
ATOM     14  C   UNL     1      48.324   6.548  14.856  0.00  0.00    +0.000 A 
ATOM     15  C   UNL     1      47.684   5.985  13.739  0.00  0.00    +0.000 A 
ATOM     16  C   UNL     1      47.094   4.740  13.903  0.00  0.00    +0.000 A 
ATOM     17  N   UNL     1      47.125   4.021  15.041  0.00  0.00    +0.000 NA
BRANCH  12  18
ATOM     18  C   UNL     1      47.790   3.740  17.377  0.00  0.00    +0.000 C 
BRANCH  18  19
ATOM     19  N   UNL     1      46.552   2.987  17.570  0.00  0.00    +0.000 NA
ATOM     20  H   UNL     1      46.699   2.027  17.263  0.00  0.00    +0.000 HD
ATOM     21  H   UNL     1      45.865   3.382  16.923  0.00  0.00    +0.000 HD
ENDBRANCH  18  19
ENDBRANCH  12  18
ENDBRANCH   1  15
TORSDOF 4
ENDMDL
MODEL 5
REMARK VINA RESULT:    -5.948      2.240      5.937
REMARK INTER + INTRA:          -7.734
REMARK INTER:                  -7.736
REMARK INTRA:                   0.002
REMARK UNBOUND:                -0.569
REMARK  Name = 
REMARK  4 active torsions:
REMARK  status: ('A' for Active; 'I' for Inactive)
REMARK    1  A    between atoms: N_1  and  C_2
REMARK    2  A    between atoms: C_2  and  C_3
REMARK    3  A    between atoms: C_6  and  C_7
REMARK    4  A    between atoms: C_7  and  C_8
REMARK                            x       y       z     vdW  Elec       q    Type
REMARK                         _______ _______ _______ _____ _____    ______ ____
ROOT
ATOM      1  C   UNL     1      45.800   4.465  13.007  0.00  0.00    +0.000 C 
ENDROOT
BRANCH   1   2
ATOM      2  C   UNL     1      44.848   3.999  11.952  0.00  0.00    +0.000 A 
ATOM      3  C   UNL     1      43.705   3.243  12.111  0.00  0.00    +0.000 A 
ATOM      4  N   UNL     1      43.826   2.284  11.126  0.00  0.00    +0.000 N 
ATOM      5  C   UNL     1      44.376   2.941  10.033  0.00  0.00    +0.000 A 
ATOM      6  C   UNL     1      44.434   2.565   8.705  0.00  0.00    +0.000 A 
ATOM      7  C   UNL     1      45.082   3.477   7.889  0.00  0.00    +0.000 A 
ATOM      8  N   UNL     1      45.674   4.620   8.311  0.00  0.00    +0.000 NA
ATOM      9  C   UNL     1      45.661   4.916   9.632  0.00  0.00    +0.000 A 
ATOM     10  C   UNL     1      44.987   4.083  10.538  0.00  0.00    +0.000 A 
ATOM     11  H   UNL     1      43.967   1.306  11.300  0.00  0.00    +0.000 HD
ENDBRANCH   1   2
BRANCH   1  15
ATOM     12  C   UNL     1      46.269   8.665  12.244  0.00  0.00    +0.000 A 
ATOM     13  C   UNL     1      47.394   7.843  12.131  0.00  0.00    +0.000 A 
ATOM     14  C   UNL     1      47.256   6.456  12.325  0.00  0.00    +0.000 A 
ATOM     15  C   UNL     1      45.983   5.936  12.607  0.00  0.00    +0.000 A 
ATOM     16  C   UNL     1      44.925   6.832  12.657  0.00  0.00    +0.000 A 
ATOM     17  N   UNL     1      45.039   8.163  12.493  0.00  0.00    +0.000 NA
BRANCH  12  18
ATOM     18  C   UNL     1      46.386  10.158  12.063  0.00  0.00    +0.000 C 
BRANCH  18  19
ATOM     19  N   UNL     1      45.089  10.823  12.180  0.00  0.00    +0.000 NA
ATOM     20  H   UNL     1      44.890  10.986  13.165  0.00  0.00    +0.000 HD
ATOM     21  H   UNL     1      44.386  10.153  11.861  0.00  0.00    +0.000 HD
ENDBRANCH  18  19
ENDBRANCH  12  18
ENDBRANCH   1  15
TORSDOF 4
ENDMDL
MODEL 6
REMARK VINA RESULT:    -5.209      4.025      5.609
REMARK INTER + INTRA:          -6.844
REMARK INTER:                  -6.425
REMARK INTRA:                  -0.420
REMARK UNBOUND:                -0.569
REMARK  Name = 
REMARK  4 active torsions:
REMARK  status: ('A' for Active; 'I' for Inactive)
REMARK    1  A    between atoms: N_1  and  C_2
REMARK    2  A    between atoms: C_2  and  C_3
REMARK    3  A    between atoms: C_6  and  C_7
REMARK    4  A    between atoms: C_7  and  C_8
REMARK                            x       y       z     vdW  Elec       q    Type
REMARK                         _______ _______ _______ _____ _____    ______ ____
ROOT
ATOM      1  C   UNL     1      46.061   8.403  13.222  0.00  0.00    +0.000 C 
ENDROOT
BRANCH   1   2
ATOM      2  C   UNL     1      45.267   7.531  12.302  0.00  0.00    +0.000 A 
ATOM      3  C   UNL     1      44.600   7.893  11.150  0.00  0.00    +0.000 A 
ATOM      4  N   UNL     1      43.369   7.287  11.298  0.00  0.00    +0.000 N 
ATOM      5  C   UNL     1      43.629   6.058  11.888  0.00  0.00    +0.000 A 
ATOM      6  C   UNL     1      42.834   4.933  11.988  0.00  0.00    +0.000 A 
ATOM      7  C   UNL     1      43.426   3.882  12.670  0.00  0.00    +0.000 A 
ATOM      8  N   UNL     1      44.647   3.920  13.255  0.00  0.00    +0.000 NA
ATOM      9  C   UNL     1      45.365   5.068  13.200  0.00  0.00    +0.000 A 
ATOM     10  C   UNL     1      44.877   6.175  12.490  0.00  0.00    +0.000 A 
ATOM     11  H   UNL     1      42.505   7.781  11.426  0.00  0.00    +0.000 HD
ENDBRANCH   1   2
BRANCH   1  15
ATOM     12  C   UNL     1      50.034   8.515  11.596  0.00  0.00    +0.000 A 
ATOM     13  C   UNL     1      49.580   7.314  12.151  0.00  0.00    +0.000 A 
ATOM     14  C   UNL     1      48.264   7.237  12.643  0.00  0.00    +0.000 A 
ATOM     15  C   UNL     1      47.437   8.367  12.543  0.00  0.00    +0.000 A 
ATOM     16  C   UNL     1      47.971   9.496  11.939  0.00  0.00    +0.000 A 
ATOM     17  N   UNL     1      49.232   9.596  11.479  0.00  0.00    +0.000 NA
BRANCH  12  18
ATOM     18  C   UNL     1      51.446   8.637  11.080  0.00  0.00    +0.000 C 
BRANCH  18  19
ATOM     19  N   UNL     1      52.059   7.329  10.856  0.00  0.00    +0.000 NA
ATOM     20  H   UNL     1      53.071   7.429  10.892  0.00  0.00    +0.000 HD
ATOM     21  H   UNL     1      51.841   7.064   9.892  0.00  0.00    +0.000 HD
ENDBRANCH  18  19
ENDBRANCH  12  18
ENDBRANCH   1  15
TORSDOF 4
ENDMDL
MODEL 7
REMARK VINA RESULT:    -5.202      2.971      5.786
REMARK INTER + INTRA:          -6.836
REMARK INTER:                  -6.454
REMARK INTRA:                  -0.382
REMARK UNBOUND:                -0.569
REMARK  Name = 
REMARK  4 active torsions:
REMARK  status: ('A' for Active; 'I' for Inactive)
REMARK    1  A    between atoms: N_1  and  C_2
REMARK    2  A    between atoms: C_2  and  C_3
REMARK    3  A    between atoms: C_6  and  C_7
REMARK    4  A    between atoms: C_7  and  C_8
REMARK                            x       y       z     vdW  Elec       q    Type
REMARK                         _______ _______ _______ _____ _____    ______ ____
ROOT
ATOM      1  C   UNL     1      45.365   7.669  12.492  0.00  0.00    +0.000 C 
ENDROOT
BRANCH   1   2
ATOM      2  C   UNL     1      45.468   6.378  11.745  0.00  0.00    +0.000 A 
ATOM      3  C   UNL     1      46.040   6.152  10.511  0.00  0.00    +0.000 A 
ATOM      4  N   UNL     1      45.090   5.390   9.861  0.00  0.00    +0.000 N 
ATOM      5  C   UNL     1      44.571   4.540  10.828  0.00  0.00    +0.000 A 
ATOM      6  C   UNL     1      43.829   3.383  10.690  0.00  0.00    +0.000 A 
ATOM      7  C   UNL     1      43.467   2.798  11.892  0.00  0.00    +0.000 A 
ATOM      8  N   UNL     1      43.738   3.304  13.120  0.00  0.00    +0.000 NA
ATOM      9  C   UNL     1      44.403   4.481  13.212  0.00  0.00    +0.000 A 
ATOM     10  C   UNL     1      44.859   5.129  12.054  0.00  0.00    +0.000 A 
ATOM     11  H   UNL     1      44.560   5.699   9.068  0.00  0.00    +0.000 HD
ENDBRANCH   1   2
BRANCH   1  15
ATOM     12  C   UNL     1      49.584   8.180  13.107  0.00  0.00    +0.000 A 
ATOM     13  C   UNL     1      48.914   9.114  12.310  0.00  0.00    +0.000 A 
ATOM     14  C   UNL     1      47.523   8.998  12.136  0.00  0.00    +0.000 A 
ATOM     15  C   UNL     1      46.844   7.956  12.787  0.00  0.00    +0.000 A 
ATOM     16  C   UNL     1      47.595   7.108  13.588  0.00  0.00    +0.000 A 
ATOM     17  N   UNL     1      48.928   7.191  13.753  0.00  0.00    +0.000 NA
BRANCH  12  18
ATOM     18  C   UNL     1      51.078   8.264  13.297  0.00  0.00    +0.000 C 
BRANCH  18  19
ATOM     19  N   UNL     1      51.506   7.612  14.534  0.00  0.00    +0.000 NA
ATOM     20  H   UNL     1      52.458   7.271  14.413  0.00  0.00    +0.000 HD
ATOM     21  H   UNL     1      50.925   6.777  14.642  0.00  0.00    +0.000 HD
ENDBRANCH  18  19
ENDBRANCH  12  18
ENDBRANCH   1  15
TORSDOF 4
ENDMDL
MODEL 8
REMARK VINA RESULT:    -5.055      3.427      5.494
REMARK INTER + INTRA:          -6.658
REMARK INTER:                  -6.298
REMARK INTRA:                  -0.361
REMARK UNBOUND:                -0.569
REMARK  Name = 
REMARK  4 active torsions:
REMARK  status: ('A' for Active; 'I' for Inactive)
REMARK    1  A    between atoms: N_1  and  C_2
REMARK    2  A    between atoms: C_2  and  C_3
REMARK    3  A    between atoms: C_6  and  C_7
REMARK    4  A    between atoms: C_7  and  C_8
REMARK                            x       y       z     vdW  Elec       q    Type
REMARK                         _______ _______ _______ _____ _____    ______ ____
ROOT
ATOM      1  C   UNL     1      46.523   7.548  13.134  0.00  0.00    +0.000 C 
ENDROOT
BRANCH   1   2
ATOM      2  C   UNL     1      47.935   7.591  12.642  0.00  0.00    +0.000 A 
ATOM      3  C   UNL     1      48.908   6.621  12.764  0.00  0.00    +0.000 A 
ATOM      4  N   UNL     1      50.007   7.334  13.196  0.00  0.00    +0.000 N 
ATOM      5  C   UNL     1      49.961   8.540  12.510  0.00  0.00    +0.000 A 
ATOM      6  C   UNL     1      50.942   9.493  12.318  0.00  0.00    +0.000 A 
ATOM      7  C   UNL     1      50.526  10.592  11.584  0.00  0.00    +0.000 A 
ATOM      8  N   UNL     1      49.267  10.792  11.123  0.00  0.00    +0.000 NA
ATOM      9  C   UNL     1      48.314   9.869  11.398  0.00  0.00    +0.000 A 
ATOM     10  C   UNL     1      48.644   8.695  12.091  0.00  0.00    +0.000 A 
ATOM     11  H   UNL     1      50.424   7.240  14.104  0.00  0.00    +0.000 HD
ENDBRANCH   1   2
BRANCH   1  15
ATOM     12  C   UNL     1      44.739   4.106  11.286  0.00  0.00    +0.000 A 
ATOM     13  C   UNL     1      45.125   5.171  10.466  0.00  0.00    +0.000 A 
ATOM     14  C   UNL     1      45.759   6.288  11.041  0.00  0.00    +0.000 A 
ATOM     15  C   UNL     1      46.004   6.290  12.424  0.00  0.00    +0.000 A 
ATOM     16  C   UNL     1      45.618   5.166  13.141  0.00  0.00    +0.000 A 
ATOM     17  N   UNL     1      44.995   4.097  12.613  0.00  0.00    +0.000 NA
BRANCH  12  18
ATOM     18  C   UNL     1      44.038   2.904  10.704  0.00  0.00    +0.000 C 
BRANCH  18  19
ATOM     19  N   UNL     1      43.046   2.354  11.627  0.00  0.00    +0.000 NA
ATOM     20  H   UNL     1      43.153   2.805  12.533  0.00  0.00    +0.000 HD
ATOM     21  H   UNL     1      43.294   1.373  11.774  0.00  0.00    +0.000 HD
ENDBRANCH  18  19
ENDBRANCH  12  18
ENDBRANCH   1  15
TORSDOF 4
ENDMDL
