MODEL 1
REMARK VINA RESULT:    -8.591      0.000      0.000
REMARK INTER + INTRA:         -11.836
REMARK INTER:                 -11.102
REMARK INTRA:                  -0.734
REMARK UNBOUND:                -0.734
REMARK  Name = 
REMARK  5 active torsions:
REMARK  status: ('A' for Active; 'I' for Inactive)
REMARK    1  A    between atoms: C_2  and  C_4
REMARK    2  A    between atoms: C_7  and  N_8
REMARK    3  A    between atoms: N_8  and  C_9
REMARK    4  A    between atoms: C_9  and  C_10
REMARK    5  A    between atoms: C_12  and  N_13
REMARK                            x       y       z     vdW  Elec       q    Type
REMARK                         _______ _______ _______ _____ _____    ______ ____
ROOT
ATOM      1  N   UNL     1      43.863   4.698  10.172  0.00  0.00    +0.000 N 
ATOM      2  H   UNL     1      44.000   5.700  10.061  0.00  0.00    +0.000 HD
ENDROOT
BRANCH   1   6
ATOM      3  C   UNL     1      46.395   2.319   7.772  0.00  0.00    +0.000 A 
ATOM      4  C   UNL     1      46.430   3.707   7.647  0.00  0.00    +0.000 A 
ATOM      5  C   UNL     1      45.575   4.504   8.416  0.00  0.00    +0.000 A 
ATOM      6  C   UNL     1      44.649   3.941   9.303  0.00  0.00    +0.000 A 
ATOM      7  C   UNL     1      44.638   2.544   9.425  0.00  0.00    +0.000 A 
ATOM      8  C   UNL     1      45.485   1.735   8.656  0.00  0.00    +0.000 A 
BRANCH   3  10
ATOM      9  N   UNL     1      48.387   2.031   6.402  0.00  0.00    +0.000 N 
ATOM     10  C   UNL     1      47.294   1.443   6.982  0.00  0.00    +0.000 C 
ATOM     11  O   UNL     1      47.097   0.239   6.881  0.00  0.00    +0.000 OA
ATOM     12  H   UNL     1      49.044   1.406   5.955  0.00  0.00    +0.000 HD
ATOM     13  H   UNL     1      48.724   2.940   6.684  0.00  0.00    +0.000 HD
ENDBRANCH   3  10
ENDBRANCH   1   6
BRANCH   1  14
ATOM     14  C   UNL     1      43.740   4.342  11.587  0.00  0.00    +0.000 C 
BRANCH  14  15
ATOM     15  C   UNL     1      45.088   4.452  12.269  0.00  0.00    +0.000 A 
ATOM     16  C   UNL     1      45.721   5.685  12.298  0.00  0.00    +0.000 A 
ATOM     17  C   UNL     1      46.903   5.807  13.001  0.00  0.00    +0.000 A 
ATOM     18  N   UNL     1      47.418   4.736  13.631  0.00  0.00    +0.000 NA
ATOM     19  C   UNL     1      46.750   3.574  13.532  0.00  0.00    +0.000 A 
ATOM     20  N   UNL     1      45.598   3.369  12.882  0.00  0.00    +0.000 NA
BRANCH  17  21
ATOM     21  N   UNL     1      47.542   7.020  13.114  0.00  0.00    +0.000 N 
ATOM     22  C   UNL     1      46.843   8.284  13.366  0.00  0.00    +0.000 C 
ATOM     23  C   UNL     1      47.120   9.270  12.222  0.00  0.00    +0.000 C 
ATOM     24  O   UNL     1      48.530   9.461  12.021  0.00  0.00    +0.000 OA
ATOM     25  C   UNL     1      49.155   8.211  11.677  0.00  0.00    +0.000 C 
ATOM     26  C   UNL     1      48.963   7.155  12.774  0.00  0.00    +0.000 C 
ENDBRANCH  17  21
ENDBRANCH  14  15
ENDBRANCH   1  14
TORSDOF 5
ENDMDL
MODEL 2
REMARK VINA RESULT:    -8.141      1.942      2.842
REMARK INTER + INTRA:         -11.254
REMARK INTER:                 -10.739
REMARK INTRA:                  -0.515
REMARK UNBOUND:                -0.734
REMARK  Name = 
REMARK  5 active torsions:
REMARK  status: ('A' for Active; 'I' for Inactive)
REMARK    1  A    between atoms: C_2  and  C_4
REMARK    2  A    between atoms: C_7  and  N_8
REMARK    3  A    between atoms: N_8  and  C_9
REMARK    4  A    between atoms: C_9  and  C_10
REMARK    5  A    between atoms: C_12  and  N_13
REMARK                            x       y       z     vdW  Elec       q    Type
REMARK                         _______ _______ _______ _____ _____    ______ ____
ROOT
ATOM      1  N   UNL     1      43.829   3.717  10.638  0.00  0.00    +0.000 N 
ATOM      2  H   UNL     1      43.113   3.017  10.821  0.00  0.00    +0.000 HD
ENDROOT
BRANCH   1   6
ATOM      3  C   UNL     1      46.472   2.699   7.507  0.00  0.00    +0.000 A 
ATOM      4  C   UNL     1      46.071   4.025   7.668  0.00  0.00    +0.000 A 
ATOM      5  C   UNL     1      45.172   4.369   8.683  0.00  0.00    +0.000 A 
ATOM      6  C   UNL     1      44.632   3.403   9.542  0.00  0.00    +0.000 A 
ATOM      7  C   UNL     1      45.058   2.078   9.374  0.00  0.00    +0.000 A 
ATOM      8  C   UNL     1      45.953   1.720   8.356  0.00  0.00    +0.000 A 
BRANCH   3  10
ATOM      9  N   UNL     1      47.471   3.070   5.317  0.00  0.00    +0.000 N 
ATOM     10  C   UNL     1      47.431   2.299   6.449  0.00  0.00    +0.000 C 
ATOM     11  O   UNL     1      48.186   1.345   6.589  0.00  0.00    +0.000 OA
ATOM     12  H   UNL     1      48.199   2.847   4.652  0.00  0.00    +0.000 HD
ATOM     13  H   UNL     1      47.073   3.997   5.283  0.00  0.00    +0.000 HD
ENDBRANCH   3  10
ENDBRANCH   1   6
BRANCH   1  14
ATOM     14  C   UNL     1      43.296   5.069  10.824  0.00  0.00    +0.000 C 
BRANCH  14  15
ATOM     15  C   UNL     1      44.307   5.930  11.552  0.00  0.00    +0.000 A 
ATOM     16  C   UNL     1      45.250   5.313  12.359  0.00  0.00    +0.000 A 
ATOM     17  C   UNL     1      46.229   6.088  12.947  0.00  0.00    +0.000 A 
ATOM     18  N   UNL     1      46.244   7.416  12.736  0.00  0.00    +0.000 NA
ATOM     19  C   UNL     1      45.279   7.935  11.958  0.00  0.00    +0.000 A 
ATOM     20  N   UNL     1      44.300   7.259  11.345  0.00  0.00    +0.000 NA
BRANCH  17  21
ATOM     21  N   UNL     1      47.225   5.520  13.708  0.00  0.00    +0.000 N 
ATOM     22  C   UNL     1      47.118   4.194  14.324  0.00  0.00    +0.000 C 
ATOM     23  C   UNL     1      47.273   4.314  15.848  0.00  0.00    +0.000 C 
ATOM     24  O   UNL     1      48.496   4.978  16.201  0.00  0.00    +0.000 OA
ATOM     25  C   UNL     1      48.510   6.311  15.659  0.00  0.00    +0.000 C 
ATOM     26  C   UNL     1      48.390   6.306  14.128  0.00  0.00    +0.000 C 
ENDBRANCH  17  21
ENDBRANCH  14  15
ENDBRANCH   1  14
TORSDOF 5
ENDMDL
MODEL 3
REMARK VINA RESULT:    -7.601      1.735      2.738
REMARK INTER + INTRA:         -10.557
REMARK INTER:                  -9.915
REMARK INTRA:                  -0.642
REMARK UNBOUND:                -0.734
REMARK  Name = 
REMARK  5 active torsions:
REMARK  status: ('A' for Active; 'I' for Inactive)
REMARK    1  A    between atoms: C_2  and  C_4
REMARK    2  A    between atoms: C_7  and  N_8
REMARK    3  A    between atoms: N_8  and  C_9
REMARK    4  A    between atoms: C_9  and  C_10
REMARK    5  A    between atoms: C_12  and  N_13
REMARK                            x       y       z     vdW  Elec       q    Type
REMARK                         _______ _______ _______ _____ _____    ______ ____
ROOT
ATOM      1  N   UNL     1      43.817   4.846   9.982  0.00  0.00    +0.000 N 
ATOM      2  H   UNL     1      43.657   5.720   9.485  0.00  0.00    +0.000 HD
ENDROOT
BRANCH   1   6
ATOM      3  C   UNL     1      46.438   2.378   7.776  0.00  0.00    +0.000 A 
ATOM      4  C   UNL     1      45.540   1.802   8.674  0.00  0.00    +0.000 A 
ATOM      5  C   UNL     1      44.687   2.612   9.432  0.00  0.00    +0.000 A 
ATOM      6  C   UNL     1      44.726   4.009   9.336  0.00  0.00    +0.000 A 
ATOM      7  C   UNL     1      45.626   4.569   8.418  0.00  0.00    +0.000 A 
ATOM      8  C   UNL     1      46.490   3.769   7.658  0.00  0.00    +0.000 A 
BRANCH   3  10
ATOM      9  N   UNL     1      48.464   2.164   6.443  0.00  0.00    +0.000 N 
ATOM     10  C   UNL     1      47.349   1.551   6.948  0.00  0.00    +0.000 C 
ATOM     11  O   UNL     1      47.140   0.360   6.751  0.00  0.00    +0.000 OA
ATOM     12  H   UNL     1      49.126   1.565   5.970  0.00  0.00    +0.000 HD
ATOM     13  H   UNL     1      48.804   3.045   6.802  0.00  0.00    +0.000 HD
ENDBRANCH   3  10
ENDBRANCH   1   6
BRANCH   1  14
ATOM     14  C   UNL     1      43.892   5.074  11.427  0.00  0.00    +0.000 C 
BRANCH  14  15
ATOM     15  C   UNL     1      44.525   6.422  11.708  0.00  0.00    +0.000 A 
ATOM     16  C   UNL     1      45.704   6.465  12.436  0.00  0.00    +0.000 A 
ATOM     17  C   UNL     1      46.331   7.683  12.611  0.00  0.00    +0.000 A 
ATOM     18  N   UNL     1      45.786   8.794  12.085  0.00  0.00    +0.000 NA
ATOM     19  C   UNL     1      44.630   8.665  11.413  0.00  0.00    +0.000 A 
ATOM     20  N   UNL     1      43.961   7.527  11.190  0.00  0.00    +0.000 NA
BRANCH  17  21
ATOM     21  N   UNL     1      47.534   7.775  13.273  0.00  0.00    +0.000 N 
ATOM     22  C   UNL     1      48.335   6.611  13.663  0.00  0.00    +0.000 C 
ATOM     23  C   UNL     1      48.534   6.603  15.186  0.00  0.00    +0.000 C 
ATOM     24  O   UNL     1      49.107   7.835  15.649  0.00  0.00    +0.000 OA
ATOM     25  C   UNL     1      48.236   8.936  15.332  0.00  0.00    +0.000 C 
ATOM     26  C   UNL     1      47.993   9.055  13.821  0.00  0.00    +0.000 C 
ENDBRANCH  17  21
ENDBRANCH  14  15
ENDBRANCH   1  14
TORSDOF 5
ENDMDL
MODEL 4
REMARK VINA RESULT:    -7.074      3.559      8.161
REMARK INTER + INTRA:          -9.876
REMARK INTER:                  -9.420
REMARK INTRA:                  -0.456
REMARK UNBOUND:                -0.734
REMARK  Name = 
REMARK  5 active torsions:
REMARK  status: ('A' for Active; 'I' for Inactive)
REMARK    1  A    between atoms: C_2  and  C_4
REMARK    2  A    between atoms: C_7  and  N_8
REMARK    3  A    between atoms: N_8  and  C_9
REMARK    4  A    between atoms: C_9  and  C_10
REMARK    5  A    between atoms: C_12  and  N_13
REMARK                            x       y       z     vdW  Elec       q    Type
REMARK                         _______ _______ _______ _____ _____    ______ ____
ROOT
ATOM      1  N   UNL     1      47.047   3.715  14.306  0.00  0.00    +0.000 N 
ATOM      2  H   UNL     1      47.774   3.313  13.718  0.00  0.00    +0.000 HD
ENDROOT
BRANCH   1   6
ATOM      3  C   UNL     1      48.557   4.385  18.192  0.00  0.00    +0.000 A 
ATOM      4  C   UNL     1      48.199   3.095  17.804  0.00  0.00    +0.000 A 
ATOM      5  C   UNL     1      47.669   2.865  16.530  0.00  0.00    +0.000 A 
ATOM      6  C   UNL     1      47.460   3.913  15.624  0.00  0.00    +0.000 A 
ATOM      7  C   UNL     1      47.839   5.201  16.027  0.00  0.00    +0.000 A 
ATOM      8  C   UNL     1      48.364   5.444  17.303  0.00  0.00    +0.000 A 
BRANCH   3  10
ATOM      9  N   UNL     1      48.609   3.972  20.591  0.00  0.00    +0.000 N 
ATOM     10  C   UNL     1      49.131   4.664  19.531  0.00  0.00    +0.000 C 
ATOM     11  O   UNL     1      50.059   5.449  19.685  0.00  0.00    +0.000 OA
ATOM     12  H   UNL     1      49.079   4.096  21.478  0.00  0.00    +0.000 HD
ATOM     13  H   UNL     1      48.051   3.140  20.469  0.00  0.00    +0.000 HD
ENDBRANCH   3  10
ENDBRANCH   1   6
BRANCH   1  14
ATOM     14  C   UNL     1      46.301   4.747  13.582  0.00  0.00    +0.000 C 
BRANCH  14  15
ATOM     15  C   UNL     1      45.223   4.108  12.731  0.00  0.00    +0.000 A 
ATOM     16  C   UNL     1      45.468   3.912  11.381  0.00  0.00    +0.000 A 
ATOM     17  C   UNL     1      44.525   3.245  10.625  0.00  0.00    +0.000 A 
ATOM     18  N   UNL     1      43.393   2.809  11.206  0.00  0.00    +0.000 NA
ATOM     19  C   UNL     1      43.226   3.061  12.515  0.00  0.00    +0.000 A 
ATOM     20  N   UNL     1      44.089   3.691  13.322  0.00  0.00    +0.000 NA
BRANCH  17  21
ATOM     21  N   UNL     1      44.744   2.971   9.295  0.00  0.00    +0.000 N 
ATOM     22  C   UNL     1      44.994   1.623   8.776  0.00  0.00    +0.000 C 
ATOM     23  C   UNL     1      46.359   1.580   8.073  0.00  0.00    +0.000 C 
ATOM     24  O   UNL     1      46.455   2.582   7.049  0.00  0.00    +0.000 OA
ATOM     25  C   UNL     1      46.304   3.893   7.622  0.00  0.00    +0.000 C 
ATOM     26  C   UNL     1      44.951   4.055   8.329  0.00  0.00    +0.000 C 
ENDBRANCH  17  21
ENDBRANCH  14  15
ENDBRANCH   1  14
TORSDOF 5
ENDMDL
MODEL 5
REMARK VINA RESULT:    -6.940      1.992      6.479
REMARK INTER + INTRA:          -9.702
REMARK INTER:                  -8.878
REMARK INTRA:                  -0.824
REMARK UNBOUND:                -0.734
REMARK  Name = 
REMARK  5 active torsions:
REMARK  status: ('A' for Active; 'I' for Inactive)
REMARK    1  A    between atoms: C_2  and  C_4
REMARK    2  A    between atoms: C_7  and  N_8
REMARK    3  A    between atoms: N_8  and  C_9
REMARK    4  A    between atoms: C_9  and  C_10
REMARK    5  A    between atoms: C_12  and  N_13
REMARK                            x       y       z     vdW  Elec       q    Type
REMARK                         _______ _______ _______ _____ _____    ______ ____
ROOT
ATOM      1  N   UNL     1      44.272   6.769  12.859  0.00  0.00    +0.000 N 
ATOM      2  H   UNL     1      43.980   6.170  13.627  0.00  0.00    +0.000 HD
ENDROOT
BRANCH   1   6
ATOM      3  C   UNL     1      48.433   7.335  12.417  0.00  0.00    +0.000 A 
ATOM      4  C   UNL     1      47.952   6.139  12.948  0.00  0.00    +0.000 A 
ATOM      5  C   UNL     1      46.577   5.952  13.126  0.00  0.00    +0.000 A 
ATOM      6  C   UNL     1      45.654   6.956  12.808  0.00  0.00    +0.000 A 
ATOM      7  C   UNL     1      46.155   8.146  12.263  0.00  0.00    +0.000 A 
ATOM      8  C   UNL     1      47.531   8.348  12.086  0.00  0.00    +0.000 A 
BRANCH   3  10
ATOM      9  N   UNL     1      50.667   7.689  13.320  0.00  0.00    +0.000 N 
ATOM     10  C   UNL     1      49.883   7.565  12.204  0.00  0.00    +0.000 C 
ATOM     11  O   UNL     1      50.371   7.604  11.081  0.00  0.00    +0.000 OA
ATOM     12  H   UNL     1      51.664   7.741  13.160  0.00  0.00    +0.000 HD
ATOM     13  H   UNL     1      50.354   7.394  14.233  0.00  0.00    +0.000 HD
ENDBRANCH   3  10
ENDBRANCH   1   6
BRANCH   1  14
ATOM     14  C   UNL     1      43.503   6.477  11.647  0.00  0.00    +0.000 C 
BRANCH  14  15
ATOM     15  C   UNL     1      43.544   4.992  11.351  0.00  0.00    +0.000 A 
ATOM     16  C   UNL     1      44.001   4.572  10.111  0.00  0.00    +0.000 A 
ATOM     17  C   UNL     1      44.128   3.217   9.876  0.00  0.00    +0.000 A 
ATOM     18  N   UNL     1      43.801   2.339  10.840  0.00  0.00    +0.000 NA
ATOM     19  C   UNL     1      43.345   2.832  12.004  0.00  0.00    +0.000 A 
ATOM     20  N   UNL     1      43.198   4.125  12.319  0.00  0.00    +0.000 NA
BRANCH  17  21
ATOM     21  N   UNL     1      44.634   2.747   8.686  0.00  0.00    +0.000 N 
ATOM     22  C   UNL     1      45.033   1.353   8.470  0.00  0.00    +0.000 C 
ATOM     23  C   UNL     1      46.517   1.290   8.078  0.00  0.00    +0.000 C 
ATOM     24  O   UNL     1      46.796   2.117   6.938  0.00  0.00    +0.000 OA
ATOM     25  C   UNL     1      46.484   3.491   7.234  0.00  0.00    +0.000 C 
ATOM     26  C   UNL     1      45.007   3.672   7.610  0.00  0.00    +0.000 C 
ENDBRANCH  17  21
ENDBRANCH  14  15
ENDBRANCH   1  14
TORSDOF 5
ENDMDL
MODEL 6
REMARK VINA RESULT:    -6.611      5.010      8.192
REMARK INTER + INTRA:          -9.277
REMARK INTER:                  -8.725
REMARK INTRA:                  -0.552
REMARK UNBOUND:                -0.734
REMARK  Name = 
REMARK  5 active torsions:
REMARK  status: ('A' for Active; 'I' for Inactive)
REMARK    1  A    between atoms: C_2  and  C_4
REMARK    2  A    between atoms: C_7  and  N_8
REMARK    3  A    between atoms: N_8  and  C_9
REMARK    4  A    between atoms: C_9  and  C_10
REMARK    5  A    between atoms: C_12  and  N_13
REMARK                            x       y       z     vdW  Elec       q    Type
REMARK                         _______ _______ _______ _____ _____    ______ ____
ROOT
ATOM      1  N   UNL     1      48.620   4.542  17.164  0.00  0.00    +0.000 N 
ATOM      2  H   UNL     1      48.359   5.091  17.980  0.00  0.00    +0.000 HD
ENDROOT
BRANCH   1   6
ATOM      3  C   UNL     1      51.982   2.043  17.697  0.00  0.00    +0.000 A 
ATOM      4  C   UNL     1      50.790   1.502  17.217  0.00  0.00    +0.000 A 
ATOM      5  C   UNL     1      49.661   2.314  17.065  0.00  0.00    +0.000 A 
ATOM      6  C   UNL     1      49.683   3.672  17.411  0.00  0.00    +0.000 A 
ATOM      7  C   UNL     1      50.894   4.200  17.878  0.00  0.00    +0.000 A 
ATOM      8  C   UNL     1      52.030   3.395  18.041  0.00  0.00    +0.000 A 
BRANCH   3  10
ATOM      9  N   UNL     1      53.025  -0.089  18.242  0.00  0.00    +0.000 N 
ATOM     10  C   UNL     1      53.201   1.214  17.861  0.00  0.00    +0.000 C 
ATOM     11  O   UNL     1      54.319   1.659  17.630  0.00  0.00    +0.000 OA
ATOM     12  H   UNL     1      53.854  -0.667  18.248  0.00  0.00    +0.000 HD
ATOM     13  H   UNL     1      52.131  -0.554  18.174  0.00  0.00    +0.000 HD
ENDBRANCH   3  10
ENDBRANCH   1   6
BRANCH   1  14
ATOM     14  C   UNL     1      47.432   4.097  16.433  0.00  0.00    +0.000 C 
BRANCH  14  15
ATOM     15  C   UNL     1      47.360   4.790  15.087  0.00  0.00    +0.000 A 
ATOM     16  C   UNL     1      46.442   4.337  14.153  0.00  0.00    +0.000 A 
ATOM     17  C   UNL     1      46.310   5.028  12.964  0.00  0.00    +0.000 A 
ATOM     18  N   UNL     1      47.075   6.110  12.734  0.00  0.00    +0.000 NA
ATOM     19  C   UNL     1      47.955   6.465  13.684  0.00  0.00    +0.000 A 
ATOM     20  N   UNL     1      48.142   5.861  14.864  0.00  0.00    +0.000 NA
BRANCH  17  21
ATOM     21  N   UNL     1      45.373   4.659  12.027  0.00  0.00    +0.000 N 
ATOM     22  C   UNL     1      44.508   5.613  11.328  0.00  0.00    +0.000 C 
ATOM     23  C   UNL     1      43.034   5.280  11.604  0.00  0.00    +0.000 C 
ATOM     24  O   UNL     1      42.728   3.919  11.262  0.00  0.00    +0.000 OA
ATOM     25  C   UNL     1      43.530   3.019  12.047  0.00  0.00    +0.000 C 
ATOM     26  C   UNL     1      45.032   3.247  11.822  0.00  0.00    +0.000 C 
ENDBRANCH  17  21
ENDBRANCH  14  15
ENDBRANCH   1  14
TORSDOF 5
ENDMDL
MODEL 7
REMARK VINA RESULT:    -6.502      3.336      7.361
REMARK INTER + INTRA:          -9.136
REMARK INTER:                  -8.694
REMARK INTRA:                  -0.442
REMARK UNBOUND:                -0.734
REMARK  Name = 
REMARK  5 active torsions:
REMARK  status: ('A' for Active; 'I' for Inactive)
REMARK    1  A    between atoms: C_2  and  C_4
REMARK    2  A    between atoms: C_7  and  N_8
REMARK    3  A    between atoms: N_8  and  C_9
REMARK    4  A    between atoms: C_9  and  C_10
REMARK    5  A    between atoms: C_12  and  N_13
REMARK                            x       y       z     vdW  Elec       q    Type
REMARK                         _______ _______ _______ _____ _____    ______ ____
ROOT
ATOM      1  N   UNL     1      48.381   7.316  13.912  0.00  0.00    +0.000 N 
ATOM      2  H   UNL     1      47.839   8.138  14.167  0.00  0.00    +0.000 HD
ENDROOT
BRANCH   1   6
ATOM      3  C   UNL     1      47.835   4.290  16.806  0.00  0.00    +0.000 A 
ATOM      4  C   UNL     1      48.700   5.351  17.072  0.00  0.00    +0.000 A 
ATOM      5  C   UNL     1      48.911   6.344  16.109  0.00  0.00    +0.000 A 
ATOM      6  C   UNL     1      48.292   6.290  14.853  0.00  0.00    +0.000 A 
ATOM      7  C   UNL     1      47.415   5.224  14.610  0.00  0.00    +0.000 A 
ATOM      8  C   UNL     1      47.200   4.220  15.564  0.00  0.00    +0.000 A 
BRANCH   3  10
ATOM      9  N   UNL     1      48.404   3.181  18.897  0.00  0.00    +0.000 N 
ATOM     10  C   UNL     1      47.578   3.226  17.807  0.00  0.00    +0.000 C 
ATOM     11  O   UNL     1      46.645   2.441  17.689  0.00  0.00    +0.000 OA
ATOM     12  H   UNL     1      48.154   2.519  19.619  0.00  0.00    +0.000 HD
ATOM     13  H   UNL     1      48.993   3.958  19.160  0.00  0.00    +0.000 HD
ENDBRANCH   3  10
ENDBRANCH   1   6
BRANCH   1  14
ATOM     14  C   UNL     1      48.268   7.040  12.478  0.00  0.00    +0.000 C 
BRANCH  14  15
ATOM     15  C   UNL     1      46.835   7.227  12.024  0.00  0.00    +0.000 A 
ATOM     16  C   UNL     1      46.121   6.118  11.598  0.00  0.00    +0.000 A 
ATOM     17  C   UNL     1      44.787   6.272  11.275  0.00  0.00    +0.000 A 
ATOM     18  N   UNL     1      44.214   7.485  11.370  0.00  0.00    +0.000 NA
ATOM     19  C   UNL     1      44.986   8.509  11.770  0.00  0.00    +0.000 A 
ATOM     20  N   UNL     1      46.279   8.448  12.109  0.00  0.00    +0.000 NA
BRANCH  17  21
ATOM     21  N   UNL     1      44.016   5.194  10.905  0.00  0.00    +0.000 N 
ATOM     22  C   UNL     1      43.044   4.550  11.794  0.00  0.00    +0.000 C 
ATOM     23  C   UNL     1      43.409   3.069  11.979  0.00  0.00    +0.000 C 
ATOM     24  O   UNL     1      43.521   2.393  10.716  0.00  0.00    +0.000 OA
ATOM     25  C   UNL     1      44.557   2.998   9.921  0.00  0.00    +0.000 C 
ATOM     26  C   UNL     1      44.274   4.482   9.649  0.00  0.00    +0.000 C 
ENDBRANCH  17  21
ENDBRANCH  14  15
ENDBRANCH   1  14
TORSDOF 5
ENDMDL
MODEL 8
REMARK VINA RESULT:    -6.274      3.624      5.825
REMARK INTER + INTRA:          -8.842
REMARK INTER:                  -8.180
REMARK INTRA:                  -0.662
REMARK UNBOUND:                -0.734
REMARK  Name = 
REMARK  5 active torsions:
REMARK  status: ('A' for Active; 'I' for Inactive)
REMARK    1  A    between atoms: C_2  and  C_4
REMARK    2  A    between atoms: C_7  and  N_8
REMARK    3  A    between atoms: N_8  and  C_9
REMARK    4  A    between atoms: C_9  and  C_10
REMARK    5  A    between atoms: C_12  and  N_13
REMARK                            x       y       z     vdW  Elec       q    Type
REMARK                         _______ _______ _______ _____ _____    ______ ____
ROOT
ATOM      1  N   UNL     1      46.887   7.478  13.632  0.00  0.00    +0.000 N 
ATOM      2  H   UNL     1      46.267   8.250  13.867  0.00  0.00    +0.000 HD
ENDROOT
BRANCH   1   6
ATOM      3  C   UNL     1      44.884   4.806  11.048  0.00  0.00    +0.000 A 
ATOM      4  C   UNL     1      44.797   4.627  12.428  0.00  0.00    +0.000 A 
ATOM      5  C   UNL     1      45.481   5.488  13.293  0.00  0.00    +0.000 A 
ATOM      6  C   UNL     1      46.286   6.527  12.807  0.00  0.00    +0.000 A 
ATOM      7  C   UNL     1      46.349   6.700  11.418  0.00  0.00    +0.000 A 
ATOM      8  C   UNL     1      45.674   5.840  10.541  0.00  0.00    +0.000 A 
BRANCH   3  10
ATOM      9  N   UNL     1      44.092   4.327   8.796  0.00  0.00    +0.000 N 
ATOM     10  C   UNL     1      44.164   3.920  10.101  0.00  0.00    +0.000 C 
ATOM     11  O   UNL     1      43.686   2.849  10.456  0.00  0.00    +0.000 OA
ATOM     12  H   UNL     1      43.690   3.666   8.145  0.00  0.00    +0.000 HD
ATOM     13  H   UNL     1      44.694   5.046   8.422  0.00  0.00    +0.000 HD
ENDBRANCH   3  10
ENDBRANCH   1   6
BRANCH   1  14
ATOM     14  C   UNL     1      48.244   7.962  13.365  0.00  0.00    +0.000 C 
BRANCH  14  15
ATOM     15  C   UNL     1      49.181   7.517  14.469  0.00  0.00    +0.000 A 
ATOM     16  C   UNL     1      48.719   6.605  15.407  0.00  0.00    +0.000 A 
ATOM     17  C   UNL     1      49.601   6.127  16.356  0.00  0.00    +0.000 A 
ATOM     18  N   UNL     1      50.875   6.557  16.359  0.00  0.00    +0.000 NA
ATOM     19  C   UNL     1      51.231   7.458  15.428  0.00  0.00    +0.000 A 
ATOM     20  N   UNL     1      50.448   7.967  14.470  0.00  0.00    +0.000 NA
BRANCH  17  21
ATOM     21  N   UNL     1      49.212   5.176  17.272  0.00  0.00    +0.000 N 
ATOM     22  C   UNL     1      50.076   4.077  17.714  0.00  0.00    +0.000 C 
ATOM     23  C   UNL     1      49.411   2.730  17.394  0.00  0.00    +0.000 C 
ATOM     24  O   UNL     1      48.094   2.646  17.960  0.00  0.00    +0.000 OA
ATOM     25  C   UNL     1      47.255   3.682  17.418  0.00  0.00    +0.000 C 
ATOM     26  C   UNL     1      47.816   5.081  17.710  0.00  0.00    +0.000 C 
ENDBRANCH  17  21
ENDBRANCH  14  15
ENDBRANCH   1  14
TORSDOF 5
ENDMDL
MODEL 9
REMARK VINA RESULT:    -5.989      4.374      7.875
REMARK INTER + INTRA:          -8.474
REMARK INTER:                  -7.770
REMARK INTRA:                  -0.704
REMARK UNBOUND:                -0.734
REMARK  Name = 
REMARK  5 active torsions:
REMARK  status: ('A' for Active; 'I' for Inactive)
REMARK    1  A    between atoms: C_2  and  C_4
REMARK    2  A    between atoms: C_7  and  N_8
REMARK    3  A    between atoms: N_8  and  C_9
REMARK    4  A    between atoms: C_9  and  C_10
REMARK    5  A    between atoms: C_12  and  N_13
REMARK                            x       y       z     vdW  Elec       q    Type
REMARK                         _______ _______ _______ _____ _____    ______ ____
ROOT
ATOM      1  N   UNL     1      48.348   6.182  16.555  0.00  0.00    +0.000 N 
ATOM      2  H   UNL     1      47.446   5.882  16.194  0.00  0.00    +0.000 HD
ENDROOT
BRANCH   1   6
ATOM      3  C   UNL     1      50.936   2.992  17.533  0.00  0.00    +0.000 A 
ATOM      4  C   UNL     1      49.590   2.735  17.278  0.00  0.00    +0.000 A 
ATOM      5  C   UNL     1      48.717   3.788  16.982  0.00  0.00    +0.000 A 
ATOM      6  C   UNL     1      49.155   5.118  16.960  0.00  0.00    +0.000 A 
ATOM      7  C   UNL     1      50.514   5.356  17.205  0.00  0.00    +0.000 A 
ATOM      8  C   UNL     1      51.397   4.310  17.509  0.00  0.00    +0.000 A 
BRANCH   3  10
ATOM      9  N   UNL     1      51.421   0.618  17.767  0.00  0.00    +0.000 N 
ATOM     10  C   UNL     1      51.893   1.901  17.839  0.00  0.00    +0.000 C 
ATOM     11  O   UNL     1      53.066   2.128  18.108  0.00  0.00    +0.000 OA
ATOM     12  H   UNL     1      52.107  -0.116  17.876  0.00  0.00    +0.000 HD
ATOM     13  H   UNL     1      50.560   0.386  17.293  0.00  0.00    +0.000 HD
ENDBRANCH   3  10
ENDBRANCH   1   6
BRANCH   1  14
ATOM     14  C   UNL     1      48.891   7.282  15.754  0.00  0.00    +0.000 C 
BRANCH  14  15
ATOM     15  C   UNL     1      48.503   7.106  14.300  0.00  0.00    +0.000 A 
ATOM     16  C   UNL     1      47.363   6.376  13.999  0.00  0.00    +0.000 A 
ATOM     17  C   UNL     1      46.956   6.295  12.682  0.00  0.00    +0.000 A 
ATOM     18  N   UNL     1      47.671   6.913  11.724  0.00  0.00    +0.000 NA
ATOM     19  C   UNL     1      48.774   7.580  12.102  0.00  0.00    +0.000 A 
ATOM     20  N   UNL     1      49.235   7.716  13.352  0.00  0.00    +0.000 NA
BRANCH  17  21
ATOM     21  N   UNL     1      45.800   5.635  12.333  0.00  0.00    +0.000 N 
ATOM     22  C   UNL     1      45.259   4.499  13.084  0.00  0.00    +0.000 C 
ATOM     23  C   UNL     1      45.159   3.270  12.168  0.00  0.00    +0.000 C 
ATOM     24  O   UNL     1      44.393   3.554  10.987  0.00  0.00    +0.000 OA
ATOM     25  C   UNL     1      45.019   4.608  10.232  0.00  0.00    +0.000 C 
ATOM     26  C   UNL     1      45.142   5.901  11.050  0.00  0.00    +0.000 C 
ENDBRANCH  17  21
ENDBRANCH  14  15
ENDBRANCH   1  14
TORSDOF 5
ENDMDL
