MODEL 1
REMARK VINA RESULT:    -8.420      0.000      0.000
REMARK INTER + INTRA:         -13.318
REMARK INTER:                 -12.604
REMARK INTRA:                  -0.714
REMARK UNBOUND:                -0.714
REMARK  Name = 
REMARK  12 active torsions:
REMARK  status: ('A' for Active; 'I' for Inactive)
REMARK    1  A    between atoms: C_1  and  C_2
REMARK    2  A    between atoms: C_5  and  C_6
REMARK    3  A    between atoms: C_6  and  O_7
REMARK    4  A    between atoms: O_7  and  C_8
REMARK    5  A    between atoms: C_10  and  C_11
REMARK    6  A    between atoms: C_11  and  C_12
REMARK    7  A    between atoms: C_11  and  C_13
REMARK    8  A    between atoms: C_11  and  C_14
REMARK    9  A    between atoms: C_14  and  O_15
REMARK   10  A    between atoms: O_15  and  C_16
REMARK   11  A    between atoms: CA_19  and  C_20
REMARK   12  A    between atoms: C_20  and  OXT_22
REMARK                            x       y       z     vdW  Elec       q    Type
REMARK                         _______ _______ _______ _____ _____    ______ ____
ROOT
ATOM      1  C   UNL     1      43.961   4.452  12.372  0.00  0.00    +0.000 C 
ATOM      2  C   UNL     1      43.663   2.974  12.709  0.00  0.00    +0.000 C 
ATOM      3  C   UNL     1      42.801   5.322  12.912  0.00  0.00    +0.000 C 
ENDROOT
BRANCH   1   6
ATOM      4  C   UNL     1      47.208   4.678  14.438  0.00  0.00    +0.000 A 
ATOM      5  C   UNL     1      45.975   4.258  13.946  0.00  0.00    +0.000 A 
ATOM      6  C   UNL     1      45.283   5.013  12.966  0.00  0.00    +0.000 A 
ATOM      7  C   UNL     1      45.935   6.194  12.551  0.00  0.00    +0.000 A 
ATOM      8 CL   UNL     1      45.415   7.252  11.296  0.00  0.00    +0.000 Cl
ATOM      9  C   UNL     1      47.150   6.551  13.144  0.00  0.00    +0.000 A 
ATOM     10  N   UNL     1      47.801   5.823  14.073  0.00  0.00    +0.000 NA
BRANCH   4  11
ATOM     11  O   UNL     1      47.840   3.856  15.350  0.00  0.00    +0.000 OA
BRANCH  11  12
ATOM     12  C   UNL     1      47.156   3.834  16.609  0.00  0.00    +0.000 C 
BRANCH  12  17
ATOM     13  C   UNL     1      50.304   2.042  17.157  0.00  0.00    +0.000 C 
ATOM     14  C   UNL     1      49.625   3.384  17.307  0.00  0.00    +0.000 C 
ATOM     15  O   UNL     1      49.935   4.009  18.590  0.00  0.00    +0.000 OA
ATOM     16  C   UNL     1      48.549   4.441  18.694  0.00  0.00    +0.000 C 
ATOM     17  C   UNL     1      48.129   3.374  17.673  0.00  0.00    +0.000 C 
ENDBRANCH  12  17
ENDBRANCH  11  12
ENDBRANCH   4  11
ENDBRANCH   1   6
BRANCH   1  18
ATOM     18  C   UNL     1      43.881   4.549  10.811  0.00  0.00    +0.000 C 
BRANCH  18  19
ATOM     19  O   UNL     1      43.684   3.261  10.204  0.00  0.00    +0.000 OA
BRANCH  19  20
ATOM     20  C   UNL     1      44.630   3.020   9.234  0.00  0.00    +0.000 A 
ATOM     21  C   UNL     1      45.072   4.078   8.441  0.00  0.00    +0.000 A 
ATOM     22  N   UNL     1      46.026   3.931   7.481  0.00  0.00    +0.000 NA
ATOM     23  CA  UNL     1      46.494   2.654   7.344  0.00  0.00    +0.000 A 
ATOM     24  C   UNL     1      46.038   1.596   8.106  0.00  0.00    +0.000 A 
ATOM     25  N   UNL     1      45.097   1.761   9.068  0.00  0.00    +0.000 NA
BRANCH  23  26
ATOM     26  C   UNL     1      47.559   2.431   6.334  0.00  0.00    +0.000 C 
ATOM     27  O   UNL     1      48.529   1.712   6.503  0.00  0.00    +0.000 OA
BRANCH  26  28
ATOM     28  OXT UNL     1      47.312   3.145   5.214  0.00  0.00    +0.000 OA
ATOM     29  HXT UNL     1      48.155   3.527   4.873  0.00  0.00    +0.000 HD
ENDBRANCH  26  28
ENDBRANCH  23  26
ENDBRANCH  19  20
ENDBRANCH  18  19
ENDBRANCH   1  18
TORSDOF 9
ENDMDL
MODEL 2
REMARK VINA RESULT:    -7.667      3.084      4.639
REMARK INTER + INTRA:         -12.190
REMARK INTER:                 -10.979
REMARK INTRA:                  -1.211
REMARK UNBOUND:                -0.714
REMARK  Name = 
REMARK  12 active torsions:
REMARK  status: ('A' for Active; 'I' for Inactive)
REMARK    1  A    between atoms: C_1  and  C_2
REMARK    2  A    between atoms: C_5  and  C_6
REMARK    3  A    between atoms: C_6  and  O_7
REMARK    4  A    between atoms: O_7  and  C_8
REMARK    5  A    between atoms: C_10  and  C_11
REMARK    6  A    between atoms: C_11  and  C_12
REMARK    7  A    between atoms: C_11  and  C_13
REMARK    8  A    between atoms: C_11  and  C_14
REMARK    9  A    between atoms: C_14  and  O_15
REMARK   10  A    between atoms: O_15  and  C_16
REMARK   11  A    between atoms: CA_19  and  C_20
REMARK   12  A    between atoms: C_20  and  OXT_22
REMARK                            x       y       z     vdW  Elec       q    Type
REMARK                         _______ _______ _______ _____ _____    ______ ____
ROOT
ATOM      1  C   UNL     1      43.689   5.586  11.906  0.00  0.00    +0.000 C 
ATOM      2  C   UNL     1      42.719   5.006  12.961  0.00  0.00    +0.000 C 
ATOM      3  C   UNL     1      43.086   6.900  11.355  0.00  0.00    +0.000 C 
ENDROOT
BRANCH   1   6
ATOM      4  C   UNL     1      46.728   7.588  13.178  0.00  0.00    +0.000 A 
ATOM      5  C   UNL     1      45.491   7.260  12.629  0.00  0.00    +0.000 A 
ATOM      6  C   UNL     1      45.117   5.907  12.427  0.00  0.00    +0.000 A 
ATOM      7  C   UNL     1      46.083   4.955  12.817  0.00  0.00    +0.000 A 
ATOM      8 CL   UNL     1      45.882   3.245  12.814  0.00  0.00    +0.000 Cl
ATOM      9  C   UNL     1      47.316   5.393  13.314  0.00  0.00    +0.000 A 
ATOM     10  N   UNL     1      47.659   6.681  13.506  0.00  0.00    +0.000 NA
BRANCH   4  11
ATOM     11  O   UNL     1      46.990   8.927  13.392  0.00  0.00    +0.000 OA
BRANCH  11  12
ATOM     12  C   UNL     1      47.153   9.641  12.160  0.00  0.00    +0.000 C 
BRANCH  12  17
ATOM     13  C   UNL     1      50.674   8.799  12.723  0.00  0.00    +0.000 C 
ATOM     14  C   UNL     1      49.677   9.223  11.669  0.00  0.00    +0.000 C 
ATOM     15  O   UNL     1      50.223  10.252  10.789  0.00  0.00    +0.000 OA
ATOM     16  C   UNL     1      48.938  10.935  10.821  0.00  0.00    +0.000 C 
ATOM     17  C   UNL     1      48.562  10.189  12.110  0.00  0.00    +0.000 C 
ENDBRANCH  12  17
ENDBRANCH  11  12
ENDBRANCH   4  11
ENDBRANCH   1   6
BRANCH   1  18
ATOM     18  C   UNL     1      43.666   4.570  10.715  0.00  0.00    +0.000 C 
BRANCH  18  19
ATOM     19  O   UNL     1      44.338   5.089   9.556  0.00  0.00    +0.000 OA
BRANCH  19  20
ATOM     20  C   UNL     1      45.106   4.120   8.952  0.00  0.00    +0.000 A 
ATOM     21  C   UNL     1      44.983   2.797   9.374  0.00  0.00    +0.000 A 
ATOM     22  N   UNL     1      45.683   1.774   8.809  0.00  0.00    +0.000 NA
ATOM     23  CA  UNL     1      46.536   2.160   7.813  0.00  0.00    +0.000 A 
ATOM     24  C   UNL     1      46.686   3.474   7.412  0.00  0.00    +0.000 A 
ATOM     25  N   UNL     1      45.971   4.480   7.975  0.00  0.00    +0.000 NA
BRANCH  23  26
ATOM     26  C   UNL     1      47.308   1.090   7.134  0.00  0.00    +0.000 C 
ATOM     27  O   UNL     1      48.047   1.270   6.182  0.00  0.00    +0.000 OA
BRANCH  26  28
ATOM     28  OXT UNL     1      47.064  -0.111   7.706  0.00  0.00    +0.000 OA
ATOM     29  HXT UNL     1      47.245  -0.058   8.674  0.00  0.00    +0.000 HD
ENDBRANCH  26  28
ENDBRANCH  23  26
ENDBRANCH  19  20
ENDBRANCH  18  19
ENDBRANCH   1  18
TORSDOF 9
ENDMDL
MODEL 3
REMARK VINA RESULT:    -7.387      1.927      8.235
REMARK INTER + INTRA:         -11.771
REMARK INTER:                 -11.048
REMARK INTRA:                  -0.724
REMARK UNBOUND:                -0.714
REMARK  Name = 
REMARK  12 active torsions:
REMARK  status: ('A' for Active; 'I' for Inactive)
REMARK    1  A    between atoms: C_1  and  C_2
REMARK    2  A    between atoms: C_5  and  C_6
REMARK    3  A    between atoms: C_6  and  O_7
REMARK    4  A    between atoms: O_7  and  C_8
REMARK    5  A    between atoms: C_10  and  C_11
REMARK    6  A    between atoms: C_11  and  C_12
REMARK    7  A    between atoms: C_11  and  C_13
REMARK    8  A    between atoms: C_11  and  C_14
REMARK    9  A    between atoms: C_14  and  O_15
REMARK   10  A    between atoms: O_15  and  C_16
REMARK   11  A    between atoms: CA_19  and  C_20
REMARK   12  A    between atoms: C_20  and  OXT_22
REMARK                            x       y       z     vdW  Elec       q    Type
REMARK                         _______ _______ _______ _____ _____    ______ ____
ROOT
ATOM      1  C   UNL     1      45.987   7.320  11.938  0.00  0.00    +0.000 C 
ATOM      2  C   UNL     1      47.386   7.744  11.437  0.00  0.00    +0.000 C 
ATOM      3  C   UNL     1      45.070   8.566  11.947  0.00  0.00    +0.000 C 
ENDROOT
BRANCH   1   6
ATOM      4  C   UNL     1      45.282   4.840   9.072  0.00  0.00    +0.000 A 
ATOM      5  C   UNL     1      45.827   5.876   9.825  0.00  0.00    +0.000 A 
ATOM      6  C   UNL     1      45.284   6.226  11.088  0.00  0.00    +0.000 A 
ATOM      7  C   UNL     1      44.174   5.455  11.495  0.00  0.00    +0.000 A 
ATOM      8 CL   UNL     1      43.376   5.552  13.018  0.00  0.00    +0.000 Cl
ATOM      9  C   UNL     1      43.674   4.467  10.640  0.00  0.00    +0.000 A 
ATOM     10  N   UNL     1      44.200   4.141   9.443  0.00  0.00    +0.000 NA
BRANCH   4  11
ATOM     11  O   UNL     1      45.905   4.528   7.880  0.00  0.00    +0.000 OA
BRANCH  11  12
ATOM     12  C   UNL     1      45.582   3.202   7.442  0.00  0.00    +0.000 C 
BRANCH  12  17
ATOM     13  C   UNL     1      46.713  -0.276   7.659  0.00  0.00    +0.000 C 
ATOM     14  C   UNL     1      46.843   0.999   6.857  0.00  0.00    +0.000 C 
ATOM     15  O   UNL     1      48.230   1.266   6.483  0.00  0.00    +0.000 OA
ATOM     16  C   UNL     1      48.018   2.676   6.775  0.00  0.00    +0.000 C 
ATOM     17  C   UNL     1      46.798   2.325   7.640  0.00  0.00    +0.000 C 
ENDBRANCH  12  17
ENDBRANCH  11  12
ENDBRANCH   4  11
ENDBRANCH   1   6
BRANCH   1  18
ATOM     18  C   UNL     1      46.185   6.920  13.439  0.00  0.00    +0.000 C 
BRANCH  18  19
ATOM     19  O   UNL     1      47.571   6.716  13.761  0.00  0.00    +0.000 OA
BRANCH  19  20
ATOM     20  C   UNL     1      47.714   5.801  14.778  0.00  0.00    +0.000 A 
ATOM     21  C   UNL     1      46.891   4.676  14.799  0.00  0.00    +0.000 A 
ATOM     22  N   UNL     1      46.989   3.708  15.752  0.00  0.00    +0.000 NA
ATOM     23  CA  UNL     1      47.944   3.947  16.700  0.00  0.00    +0.000 A 
ATOM     24  C   UNL     1      48.742   5.075  16.702  0.00  0.00    +0.000 A 
ATOM     25  N   UNL     1      48.643   6.024  15.738  0.00  0.00    +0.000 NA
BRANCH  23  26
ATOM     26  C   UNL     1      48.123   2.915  17.751  0.00  0.00    +0.000 C 
ATOM     27  O   UNL     1      49.205   2.518  18.150  0.00  0.00    +0.000 OA
BRANCH  26  28
ATOM     28  OXT UNL     1      46.926   2.468  18.191  0.00  0.00    +0.000 OA
ATOM     29  HXT UNL     1      47.052   1.634  18.701  0.00  0.00    +0.000 HD
ENDBRANCH  26  28
ENDBRANCH  23  26
ENDBRANCH  19  20
ENDBRANCH  18  19
ENDBRANCH   1  18
TORSDOF 9
ENDMDL
MODEL 4
REMARK VINA RESULT:    -6.634      3.327      9.125
REMARK INTER + INTRA:         -10.645
REMARK INTER:                  -9.795
REMARK INTRA:                  -0.850
REMARK UNBOUND:                -0.714
REMARK  Name = 
REMARK  12 active torsions:
REMARK  status: ('A' for Active; 'I' for Inactive)
REMARK    1  A    between atoms: C_1  and  C_2
REMARK    2  A    between atoms: C_5  and  C_6
REMARK    3  A    between atoms: C_6  and  O_7
REMARK    4  A    between atoms: O_7  and  C_8
REMARK    5  A    between atoms: C_10  and  C_11
REMARK    6  A    between atoms: C_11  and  C_12
REMARK    7  A    between atoms: C_11  and  C_13
REMARK    8  A    between atoms: C_11  and  C_14
REMARK    9  A    between atoms: C_14  and  O_15
REMARK   10  A    between atoms: O_15  and  C_16
REMARK   11  A    between atoms: CA_19  and  C_20
REMARK   12  A    between atoms: C_20  and  OXT_22
REMARK                            x       y       z     vdW  Elec       q    Type
REMARK                         _______ _______ _______ _____ _____    ______ ____
ROOT
ATOM      1  C   UNL     1      48.022   4.511  17.322  0.00  0.00    +0.000 C 
ATOM      2  C   UNL     1      47.579   5.445  18.471  0.00  0.00    +0.000 C 
ATOM      3  C   UNL     1      47.160   3.227  17.374  0.00  0.00    +0.000 C 
ENDROOT
BRANCH   1   6
ATOM      4  C   UNL     1      46.755   5.080  13.726  0.00  0.00    +0.000 A 
ATOM      5  C   UNL     1      46.973   4.523  14.982  0.00  0.00    +0.000 A 
ATOM      6  C   UNL     1      47.887   5.109  15.894  0.00  0.00    +0.000 A 
ATOM      7  C   UNL     1      48.539   6.269  15.424  0.00  0.00    +0.000 A 
ATOM      8 CL   UNL     1      49.604   7.273  16.331  0.00  0.00    +0.000 Cl
ATOM      9  C   UNL     1      48.284   6.720  14.124  0.00  0.00    +0.000 A 
ATOM     10  N   UNL     1      47.409   6.157  13.267  0.00  0.00    +0.000 NA
BRANCH   4  11
ATOM     11  O   UNL     1      45.807   4.479  12.921  0.00  0.00    +0.000 OA
BRANCH  11  12
ATOM     12  C   UNL     1      45.521   5.265  11.758  0.00  0.00    +0.000 C 
BRANCH  12  17
ATOM     13  C   UNL     1      44.752   2.510   9.468  0.00  0.00    +0.000 C 
ATOM     14  C   UNL     1      44.474   3.060  10.848  0.00  0.00    +0.000 C 
ATOM     15  O   UNL     1      43.059   2.963  11.196  0.00  0.00    +0.000 OA
ATOM     16  C   UNL     1      43.135   4.286  11.797  0.00  0.00    +0.000 C 
ATOM     17  C   UNL     1      44.405   4.592  10.990  0.00  0.00    +0.000 C 
ENDBRANCH  12  17
ENDBRANCH  11  12
ENDBRANCH   4  11
ENDBRANCH   1   6
BRANCH   1  18
ATOM     18  C   UNL     1      49.478   4.067  17.684  0.00  0.00    +0.000 C 
BRANCH  18  19
ATOM     19  O   UNL     1      49.907   2.943  16.897  0.00  0.00    +0.000 OA
BRANCH  19  20
ATOM     20  C   UNL     1      51.105   2.445  17.355  0.00  0.00    +0.000 A 
ATOM     21  C   UNL     1      52.038   3.322  17.906  0.00  0.00    +0.000 A 
ATOM     22  N   UNL     1      53.233   2.908  18.409  0.00  0.00    +0.000 NA
ATOM     23  CA  UNL     1      53.451   1.562  18.302  0.00  0.00    +0.000 A 
ATOM     24  C   UNL     1      52.545   0.692  17.729  0.00  0.00    +0.000 A 
ATOM     25  N   UNL     1      51.352   1.118  17.245  0.00  0.00    +0.000 NA
BRANCH  23  26
ATOM     26  C   UNL     1      54.724   1.040  18.859  0.00  0.00    +0.000 C 
ATOM     27  O   UNL     1      55.631   0.576  18.189  0.00  0.00    +0.000 OA
BRANCH  26  28
ATOM     28  OXT UNL     1      54.730   1.134  20.208  0.00  0.00    +0.000 OA
ATOM     29  HXT UNL     1      53.819   0.981  20.553  0.00  0.00    +0.000 HD
ENDBRANCH  26  28
ENDBRANCH  23  26
ENDBRANCH  19  20
ENDBRANCH  18  19
ENDBRANCH   1  18
TORSDOF 9
ENDMDL
MODEL 5
REMARK VINA RESULT:    -6.448      3.052      8.105
REMARK INTER + INTRA:         -10.365
REMARK INTER:                  -9.246
REMARK INTRA:                  -1.120
REMARK UNBOUND:                -0.714
REMARK  Name = 
REMARK  12 active torsions:
REMARK  status: ('A' for Active; 'I' for Inactive)
REMARK    1  A    between atoms: C_1  and  C_2
REMARK    2  A    between atoms: C_5  and  C_6
REMARK    3  A    between atoms: C_6  and  O_7
REMARK    4  A    between atoms: O_7  and  C_8
REMARK    5  A    between atoms: C_10  and  C_11
REMARK    6  A    between atoms: C_11  and  C_12
REMARK    7  A    between atoms: C_11  and  C_13
REMARK    8  A    between atoms: C_11  and  C_14
REMARK    9  A    between atoms: C_14  and  O_15
REMARK   10  A    between atoms: O_15  and  C_16
REMARK   11  A    between atoms: CA_19  and  C_20
REMARK   12  A    between atoms: C_20  and  OXT_22
REMARK                            x       y       z     vdW  Elec       q    Type
REMARK                         _______ _______ _______ _____ _____    ______ ____
ROOT
ATOM      1  C   UNL     1      48.410   8.863  12.671  0.00  0.00    +0.000 C 
ATOM      2  C   UNL     1      49.406   9.331  11.587  0.00  0.00    +0.000 C 
ATOM      3  C   UNL     1      48.438   9.881  13.836  0.00  0.00    +0.000 C 
ENDROOT
BRANCH   1   6
ATOM      4  C   UNL     1      44.950   7.318  11.962  0.00  0.00    +0.000 A 
ATOM      5  C   UNL     1      46.296   7.464  12.287  0.00  0.00    +0.000 A 
ATOM      6  C   UNL     1      46.935   8.727  12.201  0.00  0.00    +0.000 A 
ATOM      7  C   UNL     1      46.111   9.786  11.766  0.00  0.00    +0.000 A 
ATOM      8 CL   UNL     1      46.555  11.448  11.678  0.00  0.00    +0.000 Cl
ATOM      9  C   UNL     1      44.782   9.522  11.418  0.00  0.00    +0.000 A 
ATOM     10  N   UNL     1      44.183   8.318  11.507  0.00  0.00    +0.000 NA
BRANCH   4  11
ATOM     11  O   UNL     1      44.392   6.066  12.127  0.00  0.00    +0.000 OA
BRANCH  11  12
ATOM     12  C   UNL     1      43.274   5.863  11.252  0.00  0.00    +0.000 C 
BRANCH  12  17
ATOM     13  C   UNL     1      45.271   4.286   8.615  0.00  0.00    +0.000 C 
ATOM     14  C   UNL     1      44.938   4.230  10.088  0.00  0.00    +0.000 C 
ATOM     15  O   UNL     1      44.743   2.858  10.549  0.00  0.00    +0.000 OA
ATOM     16  C   UNL     1      43.617   3.308  11.355  0.00  0.00    +0.000 C 
ATOM     17  C   UNL     1      43.492   4.572  10.492  0.00  0.00    +0.000 C 
ENDBRANCH  12  17
ENDBRANCH  11  12
ENDBRANCH   4  11
ENDBRANCH   1   6
BRANCH   1  18
ATOM     18  C   UNL     1      49.012   7.536  13.246  0.00  0.00    +0.000 C 
BRANCH  18  19
ATOM     19  O   UNL     1      49.418   7.682  14.617  0.00  0.00    +0.000 OA
BRANCH  19  20
ATOM     20  C   UNL     1      48.999   6.613  15.375  0.00  0.00    +0.000 A 
ATOM     21  C   UNL     1      49.569   6.408  16.631  0.00  0.00    +0.000 A 
ATOM     22  N   UNL     1      49.189   5.393  17.456  0.00  0.00    +0.000 NA
ATOM     23  CA  UNL     1      48.222   4.579  16.936  0.00  0.00    +0.000 A 
ATOM     24  C   UNL     1      47.675   4.758  15.680  0.00  0.00    +0.000 A 
ATOM     25  N   UNL     1      48.054   5.782  14.875  0.00  0.00    +0.000 NA
BRANCH  23  26
ATOM     26  C   UNL     1      47.740   3.470  17.798  0.00  0.00    +0.000 C 
ATOM     27  O   UNL     1      48.399   2.947  18.681  0.00  0.00    +0.000 OA
BRANCH  26  28
ATOM     28  OXT UNL     1      46.483   3.111  17.456  0.00  0.00    +0.000 OA
ATOM     29  HXT UNL     1      45.992   3.901  17.128  0.00  0.00    +0.000 HD
ENDBRANCH  26  28
ENDBRANCH  23  26
ENDBRANCH  19  20
ENDBRANCH  18  19
ENDBRANCH   1  18
TORSDOF 9
ENDMDL
MODEL 6
REMARK VINA RESULT:    -6.434      3.709      5.531
REMARK INTER + INTRA:         -10.345
REMARK INTER:                  -9.375
REMARK INTRA:                  -0.970
REMARK UNBOUND:                -0.714
REMARK  Name = 
REMARK  12 active torsions:
REMARK  status: ('A' for Active; 'I' for Inactive)
REMARK    1  A    between atoms: C_1  and  C_2
REMARK    2  A    between atoms: C_5  and  C_6
REMARK    3  A    between atoms: C_6  and  O_7
REMARK    4  A    between atoms: O_7  and  C_8
REMARK    5  A    between atoms: C_10  and  C_11
REMARK    6  A    between atoms: C_11  and  C_12
REMARK    7  A    between atoms: C_11  and  C_13
REMARK    8  A    between atoms: C_11  and  C_14
REMARK    9  A    between atoms: C_14  and  O_15
REMARK   10  A    between atoms: O_15  and  C_16
REMARK   11  A    between atoms: CA_19  and  C_20
REMARK   12  A    between atoms: C_20  and  OXT_22
REMARK                            x       y       z     vdW  Elec       q    Type
REMARK                         _______ _______ _______ _____ _____    ______ ____
ROOT
ATOM      1  C   UNL     1      48.777   8.565  14.210  0.00  0.00    +0.000 C 
ATOM      2  C   UNL     1      49.105  10.073  14.132  0.00  0.00    +0.000 C 
ATOM      3  C   UNL     1      49.671   7.815  13.193  0.00  0.00    +0.000 C 
ENDROOT
BRANCH   1   6
ATOM      4  C   UNL     1      49.999   6.106  16.916  0.00  0.00    +0.000 A 
ATOM      5  C   UNL     1      49.701   6.682  15.684  0.00  0.00    +0.000 A 
ATOM      6  C   UNL     1      48.997   7.910  15.602  0.00  0.00    +0.000 A 
ATOM      7  C   UNL     1      48.636   8.476  16.843  0.00  0.00    +0.000 A 
ATOM      8 CL   UNL     1      47.891  10.011  17.080  0.00  0.00    +0.000 Cl
ATOM      9  C   UNL     1      48.942   7.792  18.024  0.00  0.00    +0.000 A 
ATOM     10  N   UNL     1      49.615   6.626  18.091  0.00  0.00    +0.000 NA
BRANCH   4  11
ATOM     11  O   UNL     1      50.734   4.938  16.908  0.00  0.00    +0.000 OA
BRANCH  11  12
ATOM     12  C   UNL     1      50.612   4.224  18.145  0.00  0.00    +0.000 C 
BRANCH  12  17
ATOM     13  C   UNL     1      47.291   2.870  17.397  0.00  0.00    +0.000 C 
ATOM     14  C   UNL     1      48.697   3.012  16.861  0.00  0.00    +0.000 C 
ATOM     15  O   UNL     1      49.171   1.774  16.247  0.00  0.00    +0.000 OA
ATOM     16  C   UNL     1      50.474   1.993  16.857  0.00  0.00    +0.000 C 
ATOM     17  C   UNL     1      49.846   2.946  17.884  0.00  0.00    +0.000 C 
ENDBRANCH  12  17
ENDBRANCH  11  12
ENDBRANCH   4  11
ENDBRANCH   1   6
BRANCH   1  18
ATOM     18  C   UNL     1      47.311   8.429  13.676  0.00  0.00    +0.000 C 
BRANCH  18  19
ATOM     19  O   UNL     1      47.266   7.785  12.392  0.00  0.00    +0.000 OA
BRANCH  19  20
ATOM     20  C   UNL     1      46.355   6.754  12.385  0.00  0.00    +0.000 A 
ATOM     21  C   UNL     1      45.366   6.730  11.402  0.00  0.00    +0.000 A 
ATOM     22  N   UNL     1      44.446   5.731  11.306  0.00  0.00    +0.000 NA
ATOM     23  CA  UNL     1      44.558   4.770  12.272  0.00  0.00    +0.000 A 
ATOM     24  C   UNL     1      45.516   4.804  13.266  0.00  0.00    +0.000 A 
ATOM     25  N   UNL     1      46.435   5.799  13.340  0.00  0.00    +0.000 NA
BRANCH  23  26
ATOM     26  C   UNL     1      43.603   3.635  12.207  0.00  0.00    +0.000 C 
ATOM     27  O   UNL     1      43.713   2.604  12.848  0.00  0.00    +0.000 OA
BRANCH  26  28
ATOM     28  OXT UNL     1      42.608   3.897  11.330  0.00  0.00    +0.000 OA
ATOM     29  HXT UNL     1      42.337   4.842  11.411  0.00  0.00    +0.000 HD
ENDBRANCH  26  28
ENDBRANCH  23  26
ENDBRANCH  19  20
ENDBRANCH  18  19
ENDBRANCH   1  18
TORSDOF 9
ENDMDL
MODEL 7
REMARK VINA RESULT:    -6.357      3.415      5.393
REMARK INTER + INTRA:         -10.230
REMARK INTER:                  -9.155
REMARK INTRA:                  -1.075
REMARK UNBOUND:                -0.714
REMARK  Name = 
REMARK  12 active torsions:
REMARK  status: ('A' for Active; 'I' for Inactive)
REMARK    1  A    between atoms: C_1  and  C_2
REMARK    2  A    between atoms: C_5  and  C_6
REMARK    3  A    between atoms: C_6  and  O_7
REMARK    4  A    between atoms: O_7  and  C_8
REMARK    5  A    between atoms: C_10  and  C_11
REMARK    6  A    between atoms: C_11  and  C_12
REMARK    7  A    between atoms: C_11  and  C_13
REMARK    8  A    between atoms: C_11  and  C_14
REMARK    9  A    between atoms: C_14  and  O_15
REMARK   10  A    between atoms: O_15  and  C_16
REMARK   11  A    between atoms: CA_19  and  C_20
REMARK   12  A    between atoms: C_20  and  OXT_22
REMARK                            x       y       z     vdW  Elec       q    Type
REMARK                         _______ _______ _______ _____ _____    ______ ____
ROOT
ATOM      1  C   UNL     1      49.037   8.212  13.363  0.00  0.00    +0.000 C 
ATOM      2  C   UNL     1      48.971   9.743  13.164  0.00  0.00    +0.000 C 
ATOM      3  C   UNL     1      49.533   7.566  12.047  0.00  0.00    +0.000 C 
ENDROOT
BRANCH   1   6
ATOM      4  C   UNL     1      50.290   6.350  16.498  0.00  0.00    +0.000 A 
ATOM      5  C   UNL     1      49.463   6.874  15.509  0.00  0.00    +0.000 A 
ATOM      6  C   UNL     1      49.977   7.733  14.505  0.00  0.00    +0.000 A 
ATOM      7  C   UNL     1      51.359   8.001  14.598  0.00  0.00    +0.000 A 
ATOM      8 CL   UNL     1      52.297   8.899  13.467  0.00  0.00    +0.000 Cl
ATOM      9  C   UNL     1      52.092   7.462  15.661  0.00  0.00    +0.000 A 
ATOM     10  N   UNL     1      51.594   6.643  16.608  0.00  0.00    +0.000 NA
BRANCH   4  11
ATOM     11  O   UNL     1      49.720   5.478  17.404  0.00  0.00    +0.000 OA
BRANCH  11  12
ATOM     12  C   UNL     1      50.620   4.422  17.765  0.00  0.00    +0.000 C 
BRANCH  12  17
ATOM     13  C   UNL     1      47.287   2.951  17.377  0.00  0.00    +0.000 C 
ATOM     14  C   UNL     1      48.665   3.025  16.759  0.00  0.00    +0.000 C 
ATOM     15  O   UNL     1      49.127   1.716  16.306  0.00  0.00    +0.000 OA
ATOM     16  C   UNL     1      50.455   2.029  16.816  0.00  0.00    +0.000 C 
ATOM     17  C   UNL     1      49.860   3.114  17.726  0.00  0.00    +0.000 C 
ENDBRANCH  12  17
ENDBRANCH  11  12
ENDBRANCH   4  11
ENDBRANCH   1   6
BRANCH   1  18
ATOM     18  C   UNL     1      47.551   7.749  13.536  0.00  0.00    +0.000 C 
BRANCH  18  19
ATOM     19  O   UNL     1      46.822   7.815  12.299  0.00  0.00    +0.000 OA
BRANCH  19  20
ATOM     20  C   UNL     1      46.116   6.656  12.076  0.00  0.00    +0.000 A 
ATOM     21  C   UNL     1      46.424   5.521  12.824  0.00  0.00    +0.000 A 
ATOM     22  N   UNL     1      45.752   4.343  12.688  0.00  0.00    +0.000 NA
ATOM     23  CA  UNL     1      44.770   4.364  11.738  0.00  0.00    +0.000 A 
ATOM     24  C   UNL     1      44.480   5.476  10.972  0.00  0.00    +0.000 A 
ATOM     25  N   UNL     1      45.149   6.646  11.129  0.00  0.00    +0.000 NA
BRANCH  23  26
ATOM     26  C   UNL     1      43.979   3.120  11.560  0.00  0.00    +0.000 C 
ATOM     27  O   UNL     1      43.496   2.756  10.501  0.00  0.00    +0.000 OA
BRANCH  26  28
ATOM     28  OXT UNL     1      43.855   2.461  12.733  0.00  0.00    +0.000 OA
ATOM     29  HXT UNL     1      44.677   2.577  13.266  0.00  0.00    +0.000 HD
ENDBRANCH  26  28
ENDBRANCH  23  26
ENDBRANCH  19  20
ENDBRANCH  18  19
ENDBRANCH   1  18
TORSDOF 9
ENDMDL
MODEL 8
REMARK VINA RESULT:    -6.154      3.457      4.157
REMARK INTER + INTRA:          -9.926
REMARK INTER:                  -9.696
REMARK INTRA:                  -0.230
REMARK UNBOUND:                -0.714
REMARK  Name = 
REMARK  12 active torsions:
REMARK  status: ('A' for Active; 'I' for Inactive)
REMARK    1  A    between atoms: C_1  and  C_2
REMARK    2  A    between atoms: C_5  and  C_6
REMARK    3  A    between atoms: C_6  and  O_7
REMARK    4  A    between atoms: O_7  and  C_8
REMARK    5  A    between atoms: C_10  and  C_11
REMARK    6  A    between atoms: C_11  and  C_12
REMARK    7  A    between atoms: C_11  and  C_13
REMARK    8  A    between atoms: C_11  and  C_14
REMARK    9  A    between atoms: C_14  and  O_15
REMARK   10  A    between atoms: O_15  and  C_16
REMARK   11  A    between atoms: CA_19  and  C_20
REMARK   12  A    between atoms: C_20  and  OXT_22
REMARK                            x       y       z     vdW  Elec       q    Type
REMARK                         _______ _______ _______ _____ _____    ______ ____
ROOT
ATOM      1  C   UNL     1      44.160   4.992  11.909  0.00  0.00    +0.000 C 
ATOM      2  C   UNL     1      43.546   4.578  13.265  0.00  0.00    +0.000 C 
ATOM      3  C   UNL     1      43.009   5.239  10.905  0.00  0.00    +0.000 C 
ENDROOT
BRANCH   1   6
ATOM      4  C   UNL     1      47.267   7.265  12.101  0.00  0.00    +0.000 A 
ATOM      5  C   UNL     1      46.433   6.152  12.153  0.00  0.00    +0.000 A 
ATOM      6  C   UNL     1      45.036   6.275  11.943  0.00  0.00    +0.000 A 
ATOM      7  C   UNL     1      44.583   7.587  11.689  0.00  0.00    +0.000 A 
ATOM      8 CL   UNL     1      42.975   8.042  11.275  0.00  0.00    +0.000 Cl
ATOM      9  C   UNL     1      45.499   8.644  11.706  0.00  0.00    +0.000 A 
ATOM     10  N   UNL     1      46.826   8.515  11.903  0.00  0.00    +0.000 NA
BRANCH   4  11
ATOM     11  O   UNL     1      48.622   7.050  12.261  0.00  0.00    +0.000 OA
BRANCH  11  12
ATOM     12  C   UNL     1      49.337   8.278  12.451  0.00  0.00    +0.000 C 
BRANCH  12  17
ATOM     13  C   UNL     1      52.014   7.285  10.156  0.00  0.00    +0.000 C 
ATOM     14  C   UNL     1      51.535   8.398  11.058  0.00  0.00    +0.000 C 
ATOM     15  O   UNL     1      52.627   8.970  11.841  0.00  0.00    +0.000 OA
ATOM     16  C   UNL     1      51.742   9.034  12.996  0.00  0.00    +0.000 C 
ATOM     17  C   UNL     1      50.818   7.986  12.358  0.00  0.00    +0.000 C 
ENDBRANCH  12  17
ENDBRANCH  11  12
ENDBRANCH   4  11
ENDBRANCH   1   6
BRANCH   1  18
ATOM     18  C   UNL     1      44.919   3.724  11.390  0.00  0.00    +0.000 C 
BRANCH  18  19
ATOM     19  O   UNL     1      44.201   3.065  10.334  0.00  0.00    +0.000 OA
BRANCH  19  20
ATOM     20  C   UNL     1      45.005   2.868   9.235  0.00  0.00    +0.000 A 
ATOM     21  C   UNL     1      45.187   3.914   8.332  0.00  0.00    +0.000 A 
ATOM     22  N   UNL     1      45.990   3.812   7.237  0.00  0.00    +0.000 NA
ATOM     23  CA  UNL     1      46.580   2.588   7.085  0.00  0.00    +0.000 A 
ATOM     24  C   UNL     1      46.379   1.538   7.959  0.00  0.00    +0.000 A 
ATOM     25  N   UNL     1      45.587   1.659   9.053  0.00  0.00    +0.000 NA
BRANCH  23  26
ATOM     26  C   UNL     1      47.492   2.419   5.926  0.00  0.00    +0.000 C 
ATOM     27  O   UNL     1      47.381   3.016   4.869  0.00  0.00    +0.000 OA
BRANCH  26  28
ATOM     28  OXT UNL     1      48.448   1.504   6.201  0.00  0.00    +0.000 OA
ATOM     29  HXT UNL     1      48.695   1.026   5.374  0.00  0.00    +0.000 HD
ENDBRANCH  26  28
ENDBRANCH  23  26
ENDBRANCH  19  20
ENDBRANCH  18  19
ENDBRANCH   1  18
TORSDOF 9
ENDMDL
MODEL 9
REMARK VINA RESULT:    -5.817      3.177      5.280
REMARK INTER + INTRA:          -9.422
REMARK INTER:                  -8.420
REMARK INTRA:                  -1.002
REMARK UNBOUND:                -0.714
REMARK  Name = 
REMARK  12 active torsions:
REMARK  status: ('A' for Active; 'I' for Inactive)
REMARK    1  A    between atoms: C_1  and  C_2
REMARK    2  A    between atoms: C_5  and  C_6
REMARK    3  A    between atoms: C_6  and  O_7
REMARK    4  A    between atoms: O_7  and  C_8
REMARK    5  A    between atoms: C_10  and  C_11
REMARK    6  A    between atoms: C_11  and  C_12
REMARK    7  A    between atoms: C_11  and  C_13
REMARK    8  A    between atoms: C_11  and  C_14
REMARK    9  A    between atoms: C_14  and  O_15
REMARK   10  A    between atoms: O_15  and  C_16
REMARK   11  A    between atoms: CA_19  and  C_20
REMARK   12  A    between atoms: C_20  and  OXT_22
REMARK                            x       y       z     vdW  Elec       q    Type
REMARK                         _______ _______ _______ _____ _____    ______ ____
ROOT
ATOM      1  C   UNL     1      49.055   7.950  13.068  0.00  0.00    +0.000 C 
ATOM      2  C   UNL     1      47.989   8.969  12.604  0.00  0.00    +0.000 C 
ATOM      3  C   UNL     1      50.241   7.994  12.075  0.00  0.00    +0.000 C 
ENDROOT
BRANCH   1   6
ATOM      4  C   UNL     1      50.353   7.251  16.630  0.00  0.00    +0.000 A 
ATOM      5  C   UNL     1      49.762   7.095  15.379  0.00  0.00    +0.000 A 
ATOM      6  C   UNL     1      49.627   8.193  14.493  0.00  0.00    +0.000 A 
ATOM      7  C   UNL     1      50.125   9.420  14.980  0.00  0.00    +0.000 A 
ATOM      8 CL   UNL     1      50.219  10.898  14.101  0.00  0.00    +0.000 Cl
ATOM      9  C   UNL     1      50.656   9.479  16.273  0.00  0.00    +0.000 A 
ATOM     10  N   UNL     1      50.784   8.428  17.106  0.00  0.00    +0.000 NA
BRANCH   4  11
ATOM     11  O   UNL     1      50.496   6.120  17.409  0.00  0.00    +0.000 OA
BRANCH  11  12
ATOM     12  C   UNL     1      49.594   5.081  17.008  0.00  0.00    +0.000 C 
BRANCH  12  17
ATOM     13  C   UNL     1      47.986   6.649  19.902  0.00  0.00    +0.000 C 
ATOM     14  C   UNL     1      47.721   6.038  18.545  0.00  0.00    +0.000 C 
ATOM     15  O   UNL     1      46.551   5.164  18.561  0.00  0.00    +0.000 OA
ATOM     16  C   UNL     1      47.266   4.221  17.714  0.00  0.00    +0.000 C 
ATOM     17  C   UNL     1      48.606   4.848  18.129  0.00  0.00    +0.000 C 
ENDBRANCH  12  17
ENDBRANCH  11  12
ENDBRANCH   4  11
ENDBRANCH   1   6
BRANCH   1  18
ATOM     18  C   UNL     1      48.394   6.543  12.887  0.00  0.00    +0.000 C 
BRANCH  18  19
ATOM     19  O   UNL     1      47.048   6.514  13.391  0.00  0.00    +0.000 OA
BRANCH  19  20
ATOM     20  C   UNL     1      46.282   5.595  12.710  0.00  0.00    +0.000 A 
ATOM     21  C   UNL     1      45.914   4.413  13.351  0.00  0.00    +0.000 A 
ATOM     22  N   UNL     1      45.132   3.467  12.760  0.00  0.00    +0.000 NA
ATOM     23  CA  UNL     1      44.764   3.763  11.477  0.00  0.00    +0.000 A 
ATOM     24  C   UNL     1      45.152   4.919  10.827  0.00  0.00    +0.000 A 
ATOM     25  N   UNL     1      45.919   5.858  11.433  0.00  0.00    +0.000 NA
BRANCH  23  26
ATOM     26  C   UNL     1      43.887   2.786  10.785  0.00  0.00    +0.000 C 
ATOM     27  O   UNL     1      43.962   2.510   9.600  0.00  0.00    +0.000 OA
BRANCH  26  28
ATOM     28  OXT UNL     1      42.985   2.261  11.645  0.00  0.00    +0.000 OA
ATOM     29  HXT UNL     1      42.959   2.804  12.468  0.00  0.00    +0.000 HD
ENDBRANCH  26  28
ENDBRANCH  23  26
ENDBRANCH  19  20
ENDBRANCH  18  19
ENDBRANCH   1  18
TORSDOF 9
ENDMDL
