MODEL 1
REMARK VINA RESULT:    -8.254      0.000      0.000
REMARK INTER + INTRA:         -12.781
REMARK INTER:                 -11.391
REMARK INTRA:                  -1.390
REMARK UNBOUND:                -1.390
REMARK  Name = 
REMARK  8 active torsions:
REMARK  status: ('A' for Active; 'I' for Inactive)
REMARK    1  A    between atoms: C_1  and  N_2
REMARK    2  A    between atoms: N_2  and  C_3
REMARK    3  A    between atoms: C_3  and  C_4
REMARK    4  A    between atoms: C_7  and  C_8
REMARK    5  A    between atoms: C_8  and  N_9
REMARK    6  A    between atoms: N_9  and  C_10
REMARK    7  A    between atoms: C_13  and  N_14
REMARK    8  A    between atoms: C_19  and  C_21
REMARK                            x       y       z     vdW  Elec       q    Type
REMARK                         _______ _______ _______ _____ _____    ______ ____
ROOT
ATOM      1  C   UNL     1      46.695   6.196  12.938  0.00  0.00    +0.000 A 
ATOM      2  C   UNL     1      46.418   4.964  13.549  0.00  0.00    +0.000 A 
ATOM      3  C   UNL     1      45.656   3.995  12.889  0.00  0.00    +0.000 A 
ATOM      4  C   UNL     1      45.234   4.204  11.569  0.00  0.00    +0.000 A 
ATOM      5  C   UNL     1      45.444   5.471  10.999  0.00  0.00    +0.000 A 
ATOM      6  C   UNL     1      46.140   6.469  11.688  0.00  0.00    +0.000 A 
ENDROOT
BRANCH   1   7
ATOM      7  C   UNL     1      47.509   7.228  13.664  0.00  0.00    +0.000 C 
BRANCH   7   9
ATOM      8  C   UNL     1      49.686   7.523  12.392  0.00  0.00    +0.000 C 
ATOM      9  N   UNL     1      48.980   7.187  13.615  0.00  0.00    +0.000 N 
ATOM     10  C   UNL     1      49.759   7.210  14.792  0.00  0.00    +0.000 C 
ATOM     11  O   UNL     1      50.958   7.446  14.768  0.00  0.00    +0.000 OA
BRANCH  10  12
ATOM     12  C   UNL     1      49.096   6.902  16.066  0.00  0.00    +0.000 A 
ATOM     13  C   UNL     1      48.961   5.623  16.596  0.00  0.00    +0.000 A 
ATOM     14  S   UNL     1      48.175   5.568  18.099  0.00  0.00    +0.000 S 
ATOM     15  C   UNL     1      48.082   7.262  18.154  0.00  0.00    +0.000 A 
ATOM     16  N   UNL     1      47.573   7.883  19.247  0.00  0.00    +0.000 NA
ATOM     17  C   UNL     1      47.609   9.172  19.180  0.00  0.00    +0.000 A 
ATOM     18  N   UNL     1      48.058   9.891  18.099  0.00  0.00    +0.000 N 
ATOM     19  C   UNL     1      48.448   9.300  16.922  0.00  0.00    +0.000 A 
ATOM     20  O   UNL     1      48.604   9.974  15.897  0.00  0.00    +0.000 OA
ATOM     21  C   UNL     1      48.563   7.856  17.004  0.00  0.00    +0.000 A 
ATOM     22  H   UNL     1      47.990  10.896  18.083  0.00  0.00    +0.000 HD
ENDBRANCH  10  12
ENDBRANCH   7   9
ENDBRANCH   1   7
BRANCH   4  23
ATOM     23  C   UNL     1      44.723   3.055  10.712  0.00  0.00    +0.000 C 
BRANCH  23  24
ATOM     24  N   UNL     1      44.179   3.469   9.419  0.00  0.00    +0.000 NA
ATOM     25  H   UNL     1      44.185   4.489   9.398  0.00  0.00    +0.000 HD
BRANCH  24  26
ATOM     26  C   UNL     1      44.935   2.967   8.248  0.00  0.00    +0.000 C 
ATOM     27  C   UNL     1      45.882   4.010   7.618  0.00  0.00    +0.000 C 
ATOM     28  C   UNL     1      46.768   3.427   6.514  0.00  0.00    +0.000 C 
ATOM     29  C   UNL     1      47.591   2.258   7.050  0.00  0.00    +0.000 C 
ATOM     30  C   UNL     1      46.666   1.181   7.626  0.00  0.00    +0.000 C 
ATOM     31  C   UNL     1      45.754   1.748   8.721  0.00  0.00    +0.000 C 
BRANCH  29  32
ATOM     32  N   UNL     1      48.433   1.729   5.982  0.00  0.00    +0.000 NA
ATOM     33  H   UNL     1      49.187   2.381   5.769  0.00  0.00    +0.000 HD
ATOM     34  H   UNL     1      47.890   1.625   5.127  0.00  0.00    +0.000 HD
ENDBRANCH  29  32
ENDBRANCH  24  26
ENDBRANCH  23  24
ENDBRANCH   4  23
TORSDOF 7
ENDMDL
MODEL 2
REMARK VINA RESULT:    -8.103      1.225      1.851
REMARK INTER + INTRA:         -12.572
REMARK INTER:                 -11.270
REMARK INTRA:                  -1.302
REMARK UNBOUND:                -1.390
REMARK  Name = 
REMARK  8 active torsions:
REMARK  status: ('A' for Active; 'I' for Inactive)
REMARK    1  A    between atoms: C_1  and  N_2
REMARK    2  A    between atoms: N_2  and  C_3
REMARK    3  A    between atoms: C_3  and  C_4
REMARK    4  A    between atoms: C_7  and  C_8
REMARK    5  A    between atoms: C_8  and  N_9
REMARK    6  A    between atoms: N_9  and  C_10
REMARK    7  A    between atoms: C_13  and  N_14
REMARK    8  A    between atoms: C_19  and  C_21
REMARK                            x       y       z     vdW  Elec       q    Type
REMARK                         _______ _______ _______ _____ _____    ______ ____
ROOT
ATOM      1  C   UNL     1      46.742   6.443  12.898  0.00  0.00    +0.000 A 
ATOM      2  C   UNL     1      46.639   5.175  13.487  0.00  0.00    +0.000 A 
ATOM      3  C   UNL     1      45.898   4.160  12.873  0.00  0.00    +0.000 A 
ATOM      4  C   UNL     1      45.321   4.369  11.613  0.00  0.00    +0.000 A 
ATOM      5  C   UNL     1      45.359   5.665  11.073  0.00  0.00    +0.000 A 
ATOM      6  C   UNL     1      46.036   6.701  11.724  0.00  0.00    +0.000 A 
ENDROOT
BRANCH   1   7
ATOM      7  C   UNL     1      47.536   7.523  13.575  0.00  0.00    +0.000 C 
BRANCH   7   9
ATOM      8  C   UNL     1      49.678   7.257  12.238  0.00  0.00    +0.000 C 
ATOM      9  N   UNL     1      49.007   7.527  13.496  0.00  0.00    +0.000 N 
ATOM     10  C   UNL     1      49.797   8.153  14.484  0.00  0.00    +0.000 C 
ATOM     11  O   UNL     1      50.981   8.400  14.303  0.00  0.00    +0.000 OA
BRANCH  10  12
ATOM     12  C   UNL     1      49.168   8.475  15.771  0.00  0.00    +0.000 A 
ATOM     13  C   UNL     1      48.759   9.748  16.154  0.00  0.00    +0.000 A 
ATOM     14  S   UNL     1      48.037   9.820  17.688  0.00  0.00    +0.000 S 
ATOM     15  C   UNL     1      48.142   8.135  17.857  0.00  0.00    +0.000 A 
ATOM     16  N   UNL     1      47.616   7.523  18.948  0.00  0.00    +0.000 NA
ATOM     17  C   UNL     1      47.718   6.236  18.925  0.00  0.00    +0.000 A 
ATOM     18  N   UNL     1      48.344   5.514  17.940  0.00  0.00    +0.000 N 
ATOM     19  C   UNL     1      49.011   6.104  16.894  0.00  0.00    +0.000 A 
ATOM     20  O   UNL     1      49.768   5.444  16.172  0.00  0.00    +0.000 OA
ATOM     21  C   UNL     1      48.798   7.537  16.799  0.00  0.00    +0.000 A 
ATOM     22  H   UNL     1      48.453   4.516  18.021  0.00  0.00    +0.000 HD
ENDBRANCH  10  12
ENDBRANCH   7   9
ENDBRANCH   1   7
BRANCH   4  23
ATOM     23  C   UNL     1      44.823   3.204  10.771  0.00  0.00    +0.000 C 
BRANCH  23  24
ATOM     24  N   UNL     1      44.225   3.599   9.496  0.00  0.00    +0.000 NA
ATOM     25  H   UNL     1      44.226   4.619   9.462  0.00  0.00    +0.000 HD
BRANCH  24  26
ATOM     26  C   UNL     1      44.935   3.086   8.301  0.00  0.00    +0.000 C 
ATOM     27  C   UNL     1      45.944   4.083   7.694  0.00  0.00    +0.000 C 
ATOM     28  C   UNL     1      46.779   3.478   6.562  0.00  0.00    +0.000 C 
ATOM     29  C   UNL     1      47.527   2.240   7.052  0.00  0.00    +0.000 C 
ATOM     30  C   UNL     1      46.537   1.210   7.605  0.00  0.00    +0.000 C 
ATOM     31  C   UNL     1      45.675   1.800   8.726  0.00  0.00    +0.000 C 
BRANCH  29  32
ATOM     32  N   UNL     1      48.322   1.691   5.959  0.00  0.00    +0.000 NA
ATOM     33  H   UNL     1      49.303   1.943   6.073  0.00  0.00    +0.000 HD
ATOM     34  H   UNL     1      48.021   2.091   5.072  0.00  0.00    +0.000 HD
ENDBRANCH  29  32
ENDBRANCH  24  26
ENDBRANCH  23  24
ENDBRANCH   4  23
TORSDOF 7
ENDMDL
MODEL 3
REMARK VINA RESULT:    -7.553      3.734      8.670
REMARK INTER + INTRA:         -11.813
REMARK INTER:                 -10.707
REMARK INTRA:                  -1.107
REMARK UNBOUND:                -1.390
REMARK  Name = 
REMARK  8 active torsions:
REMARK  status: ('A' for Active; 'I' for Inactive)
REMARK    1  A    between atoms: C_1  and  N_2
REMARK    2  A    between atoms: N_2  and  C_3
REMARK    3  A    between atoms: C_3  and  C_4
REMARK    4  A    between atoms: C_7  and  C_8
REMARK    5  A    between atoms: C_8  and  N_9
REMARK    6  A    between atoms: N_9  and  C_10
REMARK    7  A    between atoms: C_13  and  N_14
REMARK    8  A    between atoms: C_19  and  C_21
REMARK                            x       y       z     vdW  Elec       q    Type
REMARK                         _______ _______ _______ _____ _____    ______ ____
ROOT
ATOM      1  C   UNL     1      47.350   5.881  13.691  0.00  0.00    +0.000 A 
ATOM      2  C   UNL     1      46.877   4.695  14.270  0.00  0.00    +0.000 A 
ATOM      3  C   UNL     1      47.280   4.318  15.555  0.00  0.00    +0.000 A 
ATOM      4  C   UNL     1      48.093   5.165  16.319  0.00  0.00    +0.000 A 
ATOM      5  C   UNL     1      48.628   6.307  15.700  0.00  0.00    +0.000 A 
ATOM      6  C   UNL     1      48.285   6.646  14.387  0.00  0.00    +0.000 A 
ENDROOT
BRANCH   1   7
ATOM      7  C   UNL     1      46.912   6.268  12.308  0.00  0.00    +0.000 C 
BRANCH   7   9
ATOM      8  C   UNL     1      45.957   8.615  12.151  0.00  0.00    +0.000 C 
ATOM      9  N   UNL     1      45.769   7.176  12.114  0.00  0.00    +0.000 N 
ATOM     10  C   UNL     1      44.570   6.735  11.515  0.00  0.00    +0.000 C 
ATOM     11  O   UNL     1      43.726   7.519  11.106  0.00  0.00    +0.000 OA
BRANCH  10  12
ATOM     12  C   UNL     1      44.333   5.288  11.426  0.00  0.00    +0.000 A 
ATOM     13  C   UNL     1      43.623   4.545  12.363  0.00  0.00    +0.000 A 
ATOM     14  S   UNL     1      43.482   2.897  11.988  0.00  0.00    +0.000 S 
ATOM     15  C   UNL     1      44.268   3.129  10.503  0.00  0.00    +0.000 A 
ATOM     16  N   UNL     1      44.408   2.097   9.634  0.00  0.00    +0.000 NA
ATOM     17  C   UNL     1      44.977   2.423   8.522  0.00  0.00    +0.000 A 
ATOM     18  N   UNL     1      45.465   3.671   8.224  0.00  0.00    +0.000 N 
ATOM     19  C   UNL     1      45.470   4.704   9.130  0.00  0.00    +0.000 A 
ATOM     20  O   UNL     1      46.134   5.726   8.921  0.00  0.00    +0.000 OA
ATOM     21  C   UNL     1      44.711   4.427  10.335  0.00  0.00    +0.000 A 
ATOM     22  H   UNL     1      45.964   3.839   7.365  0.00  0.00    +0.000 HD
ENDBRANCH  10  12
ENDBRANCH   7   9
ENDBRANCH   1   7
BRANCH   4  23
ATOM     23  C   UNL     1      48.256   4.961  17.818  0.00  0.00    +0.000 C 
BRANCH  23  24
ATOM     24  N   UNL     1      49.638   5.048  18.288  0.00  0.00    +0.000 NA
ATOM     25  H   UNL     1      49.630   4.873  19.294  0.00  0.00    +0.000 HD
BRANCH  24  26
ATOM     26  C   UNL     1      50.565   4.085  17.648  0.00  0.00    +0.000 C 
ATOM     27  C   UNL     1      51.909   3.921  18.387  0.00  0.00    +0.000 C 
ATOM     28  C   UNL     1      52.784   2.809  17.802  0.00  0.00    +0.000 C 
ATOM     29  C   UNL     1      52.036   1.478  17.814  0.00  0.00    +0.000 C 
ATOM     30  C   UNL     1      50.724   1.602  17.033  0.00  0.00    +0.000 C 
ATOM     31  C   UNL     1      49.840   2.724  17.589  0.00  0.00    +0.000 C 
BRANCH  29  32
ATOM     32  N   UNL     1      52.895   0.435  17.262  0.00  0.00    +0.000 NA
ATOM     33  H   UNL     1      53.313   0.747  16.387  0.00  0.00    +0.000 HD
ATOM     34  H   UNL     1      52.343  -0.392  17.041  0.00  0.00    +0.000 HD
ENDBRANCH  29  32
ENDBRANCH  24  26
ENDBRANCH  23  24
ENDBRANCH   4  23
TORSDOF 7
ENDMDL
MODEL 4
REMARK VINA RESULT:    -7.440      2.046      2.748
REMARK INTER + INTRA:         -11.657
REMARK INTER:                 -10.499
REMARK INTRA:                  -1.158
REMARK UNBOUND:                -1.390
REMARK  Name = 
REMARK  8 active torsions:
REMARK  status: ('A' for Active; 'I' for Inactive)
REMARK    1  A    between atoms: C_1  and  N_2
REMARK    2  A    between atoms: N_2  and  C_3
REMARK    3  A    between atoms: C_3  and  C_4
REMARK    4  A    between atoms: C_7  and  C_8
REMARK    5  A    between atoms: C_8  and  N_9
REMARK    6  A    between atoms: N_9  and  C_10
REMARK    7  A    between atoms: C_13  and  N_14
REMARK    8  A    between atoms: C_19  and  C_21
REMARK                            x       y       z     vdW  Elec       q    Type
REMARK                         _______ _______ _______ _____ _____    ______ ____
ROOT
ATOM      1  C   UNL     1      47.588   6.097  13.189  0.00  0.00    +0.000 A 
ATOM      2  C   UNL     1      46.940   4.979  13.732  0.00  0.00    +0.000 A 
ATOM      3  C   UNL     1      45.791   4.457  13.129  0.00  0.00    +0.000 A 
ATOM      4  C   UNL     1      45.321   4.990  11.922  0.00  0.00    +0.000 A 
ATOM      5  C   UNL     1      45.926   6.159  11.433  0.00  0.00    +0.000 A 
ATOM      6  C   UNL     1      47.030   6.727  12.077  0.00  0.00    +0.000 A 
ENDROOT
BRANCH   1   7
ATOM      7  C   UNL     1      48.817   6.649  13.852  0.00  0.00    +0.000 C 
BRANCH   7   9
ATOM      8  C   UNL     1      48.299   9.099  14.268  0.00  0.00    +0.000 C 
ATOM      9  N   UNL     1      48.720   7.801  14.764  0.00  0.00    +0.000 N 
ATOM     10  C   UNL     1      48.644   7.631  16.162  0.00  0.00    +0.000 C 
ATOM     11  O   UNL     1      48.296   8.538  16.905  0.00  0.00    +0.000 OA
BRANCH  10  12
ATOM     12  C   UNL     1      49.033   6.331  16.724  0.00  0.00    +0.000 A 
ATOM     13  C   UNL     1      48.149   5.293  16.999  0.00  0.00    +0.000 A 
ATOM     14  S   UNL     1      48.883   3.894  17.618  0.00  0.00    +0.000 S 
ATOM     15  C   UNL     1      50.425   4.579  17.440  0.00  0.00    +0.000 A 
ATOM     16  N   UNL     1      51.534   3.852  17.726  0.00  0.00    +0.000 NA
ATOM     17  C   UNL     1      52.641   4.475  17.497  0.00  0.00    +0.000 A 
ATOM     18  N   UNL     1      52.738   5.773  17.061  0.00  0.00    +0.000 N 
ATOM     19  C   UNL     1      51.643   6.586  16.896  0.00  0.00    +0.000 A 
ATOM     20  O   UNL     1      51.777   7.807  16.748  0.00  0.00    +0.000 OA
ATOM     21  C   UNL     1      50.375   5.887  16.999  0.00  0.00    +0.000 A 
ATOM     22  H   UNL     1      53.635   6.224  16.973  0.00  0.00    +0.000 HD
ENDBRANCH  10  12
ENDBRANCH   7   9
ENDBRANCH   1   7
BRANCH   4  23
ATOM     23  C   UNL     1      44.309   4.239  11.069  0.00  0.00    +0.000 C 
BRANCH  23  24
ATOM     24  N   UNL     1      44.184   4.744   9.702  0.00  0.00    +0.000 NA
ATOM     25  H   UNL     1      44.723   5.610   9.647  0.00  0.00    +0.000 HD
BRANCH  24  26
ATOM     26  C   UNL     1      44.676   3.815   8.658  0.00  0.00    +0.000 C 
ATOM     27  C   UNL     1      45.937   4.310   7.920  0.00  0.00    +0.000 C 
ATOM     28  C   UNL     1      46.519   3.268   6.961  0.00  0.00    +0.000 C 
ATOM     29  C   UNL     1      46.846   1.977   7.708  0.00  0.00    +0.000 C 
ATOM     30  C   UNL     1      45.591   1.434   8.399  0.00  0.00    +0.000 C 
ATOM     31  C   UNL     1      44.979   2.469   9.350  0.00  0.00    +0.000 C 
BRANCH  29  32
ATOM     32  N   UNL     1      47.408   1.006   6.774  0.00  0.00    +0.000 NA
ATOM     33  H   UNL     1      48.322   1.317   6.447  0.00  0.00    +0.000 HD
ATOM     34  H   UNL     1      46.816   0.932   5.948  0.00  0.00    +0.000 HD
ENDBRANCH  29  32
ENDBRANCH  24  26
ENDBRANCH  23  24
ENDBRANCH   4  23
TORSDOF 7
ENDMDL
MODEL 5
REMARK VINA RESULT:    -7.358      2.220      3.112
REMARK INTER + INTRA:         -11.544
REMARK INTER:                 -10.341
REMARK INTRA:                  -1.203
REMARK UNBOUND:                -1.390
REMARK  Name = 
REMARK  8 active torsions:
REMARK  status: ('A' for Active; 'I' for Inactive)
REMARK    1  A    between atoms: C_1  and  N_2
REMARK    2  A    between atoms: N_2  and  C_3
REMARK    3  A    between atoms: C_3  and  C_4
REMARK    4  A    between atoms: C_7  and  C_8
REMARK    5  A    between atoms: C_8  and  N_9
REMARK    6  A    between atoms: N_9  and  C_10
REMARK    7  A    between atoms: C_13  and  N_14
REMARK    8  A    between atoms: C_19  and  C_21
REMARK                            x       y       z     vdW  Elec       q    Type
REMARK                         _______ _______ _______ _____ _____    ______ ____
ROOT
ATOM      1  C   UNL     1      47.704   6.346  13.026  0.00  0.00    +0.000 A 
ATOM      2  C   UNL     1      47.250   6.867  11.807  0.00  0.00    +0.000 A 
ATOM      3  C   UNL     1      46.210   6.246  11.108  0.00  0.00    +0.000 A 
ATOM      4  C   UNL     1      45.545   5.143  11.661  0.00  0.00    +0.000 A 
ATOM      5  C   UNL     1      46.061   4.580  12.840  0.00  0.00    +0.000 A 
ATOM      6  C   UNL     1      47.151   5.157  13.500  0.00  0.00    +0.000 A 
ENDROOT
BRANCH   1   7
ATOM      7  C   UNL     1      48.827   7.022  13.760  0.00  0.00    +0.000 C 
BRANCH   7   9
ATOM      8  C   UNL     1      47.437   9.021  14.479  0.00  0.00    +0.000 C 
ATOM      9  N   UNL     1      48.547   8.114  14.707  0.00  0.00    +0.000 N 
ATOM     10  C   UNL     1      49.061   8.101  16.021  0.00  0.00    +0.000 C 
ATOM     11  O   UNL     1      48.629   8.844  16.891  0.00  0.00    +0.000 OA
BRANCH  10  12
ATOM     12  C   UNL     1      50.170   7.186  16.322  0.00  0.00    +0.000 A 
ATOM     13  C   UNL     1      51.517   7.511  16.195  0.00  0.00    +0.000 A 
ATOM     14  S   UNL     1      52.581   6.266  16.640  0.00  0.00    +0.000 S 
ATOM     15  C   UNL     1      51.287   5.281  17.124  0.00  0.00    +0.000 A 
ATOM     16  N   UNL     1      51.523   4.071  17.689  0.00  0.00    +0.000 NA
ATOM     17  C   UNL     1      50.453   3.449  18.058  0.00  0.00    +0.000 A 
ATOM     18  N   UNL     1      49.172   3.904  17.864  0.00  0.00    +0.000 N 
ATOM     19  C   UNL     1      48.888   5.055  17.171  0.00  0.00    +0.000 A 
ATOM     20  O   UNL     1      47.734   5.303  16.800  0.00  0.00    +0.000 OA
ATOM     21  C   UNL     1      50.058   5.858  16.867  0.00  0.00    +0.000 A 
ATOM     22  H   UNL     1      48.379   3.334  18.111  0.00  0.00    +0.000 HD
ENDBRANCH  10  12
ENDBRANCH   7   9
ENDBRANCH   1   7
BRANCH   4  23
ATOM     23  C   UNL     1      44.206   4.672  11.112  0.00  0.00    +0.000 C 
BRANCH  23  24
ATOM     24  N   UNL     1      43.997   4.982   9.697  0.00  0.00    +0.000 NA
ATOM     25  H   UNL     1      44.531   5.826   9.488  0.00  0.00    +0.000 HD
BRANCH  24  26
ATOM     26  C   UNL     1      44.421   3.910   8.766  0.00  0.00    +0.000 C 
ATOM     27  C   UNL     1      45.767   4.187   8.063  0.00  0.00    +0.000 C 
ATOM     28  C   UNL     1      46.264   3.001   7.231  0.00  0.00    +0.000 C 
ATOM     29  C   UNL     1      46.397   1.754   8.102  0.00  0.00    +0.000 C 
ATOM     30  C   UNL     1      45.054   1.427   8.763  0.00  0.00    +0.000 C 
ATOM     31  C   UNL     1      44.527   2.608   9.586  0.00  0.00    +0.000 C 
BRANCH  29  32
ATOM     32  N   UNL     1      46.881   0.645   7.288  0.00  0.00    +0.000 NA
ATOM     33  H   UNL     1      46.185  -0.099   7.253  0.00  0.00    +0.000 HD
ATOM     34  H   UNL     1      47.716   0.241   7.709  0.00  0.00    +0.000 HD
ENDBRANCH  29  32
ENDBRANCH  24  26
ENDBRANCH  23  24
ENDBRANCH   4  23
TORSDOF 7
ENDMDL
MODEL 6
REMARK VINA RESULT:    -7.351      2.811      3.815
REMARK INTER + INTRA:         -11.534
REMARK INTER:                 -10.802
REMARK INTRA:                  -0.733
REMARK UNBOUND:                -1.390
REMARK  Name = 
REMARK  8 active torsions:
REMARK  status: ('A' for Active; 'I' for Inactive)
REMARK    1  A    between atoms: C_1  and  N_2
REMARK    2  A    between atoms: N_2  and  C_3
REMARK    3  A    between atoms: C_3  and  C_4
REMARK    4  A    between atoms: C_7  and  C_8
REMARK    5  A    between atoms: C_8  and  N_9
REMARK    6  A    between atoms: N_9  and  C_10
REMARK    7  A    between atoms: C_13  and  N_14
REMARK    8  A    between atoms: C_19  and  C_21
REMARK                            x       y       z     vdW  Elec       q    Type
REMARK                         _______ _______ _______ _____ _____    ______ ____
ROOT
ATOM      1  C   UNL     1      46.627   6.081  12.109  0.00  0.00    +0.000 A 
ATOM      2  C   UNL     1      46.442   4.938  12.900  0.00  0.00    +0.000 A 
ATOM      3  C   UNL     1      45.498   3.969  12.547  0.00  0.00    +0.000 A 
ATOM      4  C   UNL     1      44.784   4.081  11.346  0.00  0.00    +0.000 A 
ATOM      5  C   UNL     1      44.915   5.268  10.606  0.00  0.00    +0.000 A 
ATOM      6  C   UNL     1      45.804   6.273  10.999  0.00  0.00    +0.000 A 
ENDROOT
BRANCH   1   7
ATOM      7  C   UNL     1      47.640   7.114  12.508  0.00  0.00    +0.000 C 
BRANCH   7   9
ATOM      8  C   UNL     1      45.892   8.895  12.974  0.00  0.00    +0.000 C 
ATOM      9  N   UNL     1      47.254   8.530  12.629  0.00  0.00    +0.000 N 
ATOM     10  C   UNL     1      48.218   9.545  12.804  0.00  0.00    +0.000 C 
ATOM     11  O   UNL     1      47.911  10.671  13.171  0.00  0.00    +0.000 OA
BRANCH  10  12
ATOM     12  C   UNL     1      49.618   9.231  12.494  0.00  0.00    +0.000 A 
ATOM     13  C   UNL     1      50.222   9.447  11.260  0.00  0.00    +0.000 A 
ATOM     14  S   UNL     1      51.861   9.015  11.196  0.00  0.00    +0.000 S 
ATOM     15  C   UNL     1      51.860   8.624  12.848  0.00  0.00    +0.000 A 
ATOM     16  N   UNL     1      53.010   8.247  13.462  0.00  0.00    +0.000 NA
ATOM     17  C   UNL     1      52.879   8.030  14.728  0.00  0.00    +0.000 A 
ATOM     18  N   UNL     1      51.696   8.104  15.420  0.00  0.00    +0.000 N 
ATOM     19  C   UNL     1      50.489   8.343  14.809  0.00  0.00    +0.000 A 
ATOM     20  O   UNL     1      49.425   8.156  15.412  0.00  0.00    +0.000 OA
ATOM     21  C   UNL     1      50.607   8.737  13.418  0.00  0.00    +0.000 A 
ATOM     22  H   UNL     1      51.650   7.850  16.394  0.00  0.00    +0.000 HD
ENDBRANCH  10  12
ENDBRANCH   7   9
ENDBRANCH   1   7
BRANCH   4  23
ATOM     23  C   UNL     1      44.027   2.897  10.764  0.00  0.00    +0.000 C 
BRANCH  23  24
ATOM     24  N   UNL     1      44.095   2.800   9.306  0.00  0.00    +0.000 NA
ATOM     25  H   UNL     1      43.728   3.674   8.926  0.00  0.00    +0.000 HD
BRANCH  24  26
ATOM     26  C   UNL     1      45.459   2.586   8.769  0.00  0.00    +0.000 C 
ATOM     27  C   UNL     1      45.732   1.139   8.308  0.00  0.00    +0.000 C 
ATOM     28  C   UNL     1      47.086   0.976   7.611  0.00  0.00    +0.000 C 
ATOM     29  C   UNL     1      47.187   1.916   6.411  0.00  0.00    +0.000 C 
ATOM     30  C   UNL     1      46.979   3.366   6.858  0.00  0.00    +0.000 C 
ATOM     31  C   UNL     1      45.637   3.549   7.576  0.00  0.00    +0.000 C 
BRANCH  29  32
ATOM     32  N   UNL     1      48.480   1.733   5.761  0.00  0.00    +0.000 NA
ATOM     33  H   UNL     1      48.887   2.636   5.521  0.00  0.00    +0.000 HD
ATOM     34  H   UNL     1      48.363   1.226   4.885  0.00  0.00    +0.000 HD
ENDBRANCH  29  32
ENDBRANCH  24  26
ENDBRANCH  23  24
ENDBRANCH   4  23
TORSDOF 7
ENDMDL
MODEL 7
REMARK VINA RESULT:    -7.120      3.162      9.511
REMARK INTER + INTRA:         -11.216
REMARK INTER:                  -9.732
REMARK INTRA:                  -1.484
REMARK UNBOUND:                -1.390
REMARK  Name = 
REMARK  8 active torsions:
REMARK  status: ('A' for Active; 'I' for Inactive)
REMARK    1  A    between atoms: C_1  and  N_2
REMARK    2  A    between atoms: N_2  and  C_3
REMARK    3  A    between atoms: C_3  and  C_4
REMARK    4  A    between atoms: C_7  and  C_8
REMARK    5  A    between atoms: C_8  and  N_9
REMARK    6  A    between atoms: N_9  and  C_10
REMARK    7  A    between atoms: C_13  and  N_14
REMARK    8  A    between atoms: C_19  and  C_21
REMARK                            x       y       z     vdW  Elec       q    Type
REMARK                         _______ _______ _______ _____ _____    ______ ____
ROOT
ATOM      1  C   UNL     1      47.407   5.747  13.881  0.00  0.00    +0.000 A 
ATOM      2  C   UNL     1      48.317   6.499  14.638  0.00  0.00    +0.000 A 
ATOM      3  C   UNL     1      48.667   6.105  15.933  0.00  0.00    +0.000 A 
ATOM      4  C   UNL     1      48.181   4.902  16.462  0.00  0.00    +0.000 A 
ATOM      5  C   UNL     1      47.207   4.202  15.731  0.00  0.00    +0.000 A 
ATOM      6  C   UNL     1      46.800   4.636  14.466  0.00  0.00    +0.000 A 
ENDROOT
BRANCH   1   7
ATOM      7  C   UNL     1      47.038   6.188  12.494  0.00  0.00    +0.000 C 
BRANCH   7   9
ATOM      8  C   UNL     1      46.167   8.569  12.351  0.00  0.00    +0.000 C 
ATOM      9  N   UNL     1      45.933   7.138  12.283  0.00  0.00    +0.000 N 
ATOM     10  C   UNL     1      44.738   6.748  11.642  0.00  0.00    +0.000 C 
ATOM     11  O   UNL     1      43.933   7.568  11.222  0.00  0.00    +0.000 OA
BRANCH  10  12
ATOM     12  C   UNL     1      44.454   5.312  11.520  0.00  0.00    +0.000 A 
ATOM     13  C   UNL     1      43.743   4.566  12.454  0.00  0.00    +0.000 A 
ATOM     14  S   UNL     1      43.543   2.933  12.039  0.00  0.00    +0.000 S 
ATOM     15  C   UNL     1      44.303   3.181  10.543  0.00  0.00    +0.000 A 
ATOM     16  N   UNL     1      44.391   2.169   9.644  0.00  0.00    +0.000 NA
ATOM     17  C   UNL     1      44.945   2.507   8.528  0.00  0.00    +0.000 A 
ATOM     18  N   UNL     1      45.465   3.748   8.252  0.00  0.00    +0.000 N 
ATOM     19  C   UNL     1      45.521   4.755   9.184  0.00  0.00    +0.000 A 
ATOM     20  O   UNL     1      46.212   5.762   8.987  0.00  0.00    +0.000 OA
ATOM     21  C   UNL     1      44.781   4.469  10.399  0.00  0.00    +0.000 A 
ATOM     22  H   UNL     1      45.950   3.924   7.387  0.00  0.00    +0.000 HD
ENDBRANCH  10  12
ENDBRANCH   7   9
ENDBRANCH   1   7
BRANCH   4  23
ATOM     23  C   UNL     1      48.806   4.275  17.700  0.00  0.00    +0.000 C 
BRANCH  23  24
ATOM     24  N   UNL     1      47.966   4.344  18.895  0.00  0.00    +0.000 NA
ATOM     25  H   UNL     1      48.035   3.441  19.368  0.00  0.00    +0.000 HD
BRANCH  24  26
ATOM     26  C   UNL     1      48.347   5.409  19.852  0.00  0.00    +0.000 C 
ATOM     27  C   UNL     1      49.796   5.914  19.684  0.00  0.00    +0.000 C 
ATOM     28  C   UNL     1      50.118   7.120  20.571  0.00  0.00    +0.000 C 
ATOM     29  C   UNL     1      49.148   8.265  20.289  0.00  0.00    +0.000 C 
ATOM     30  C   UNL     1      47.705   7.801  20.510  0.00  0.00    +0.000 C 
ATOM     31  C   UNL     1      47.366   6.581  19.646  0.00  0.00    +0.000 C 
BRANCH  29  32
ATOM     32  N   UNL     1      49.484   9.403  21.139  0.00  0.00    +0.000 NA
ATOM     33  H   UNL     1      49.559   9.109  22.112  0.00  0.00    +0.000 HD
ATOM     34  H   UNL     1      48.740  10.098  21.103  0.00  0.00    +0.000 HD
ENDBRANCH  29  32
ENDBRANCH  24  26
ENDBRANCH  23  24
ENDBRANCH   4  23
TORSDOF 7
ENDMDL
MODEL 8
REMARK VINA RESULT:    -6.811      3.346      5.434
REMARK INTER + INTRA:         -10.790
REMARK INTER:                  -9.311
REMARK INTRA:                  -1.479
REMARK UNBOUND:                -1.390
REMARK  Name = 
REMARK  8 active torsions:
REMARK  status: ('A' for Active; 'I' for Inactive)
REMARK    1  A    between atoms: C_1  and  N_2
REMARK    2  A    between atoms: N_2  and  C_3
REMARK    3  A    between atoms: C_3  and  C_4
REMARK    4  A    between atoms: C_7  and  C_8
REMARK    5  A    between atoms: C_8  and  N_9
REMARK    6  A    between atoms: N_9  and  C_10
REMARK    7  A    between atoms: C_13  and  N_14
REMARK    8  A    between atoms: C_19  and  C_21
REMARK                            x       y       z     vdW  Elec       q    Type
REMARK                         _______ _______ _______ _____ _____    ______ ____
ROOT
ATOM      1  C   UNL     1      48.803   7.981  16.006  0.00  0.00    +0.000 A 
ATOM      2  C   UNL     1      48.151   9.059  15.389  0.00  0.00    +0.000 A 
ATOM      3  C   UNL     1      47.684   8.955  14.075  0.00  0.00    +0.000 A 
ATOM      4  C   UNL     1      47.782   7.740  13.384  0.00  0.00    +0.000 A 
ATOM      5  C   UNL     1      48.510   6.696  13.978  0.00  0.00    +0.000 A 
ATOM      6  C   UNL     1      49.043   6.825  15.264  0.00  0.00    +0.000 A 
ENDROOT
BRANCH   1   7
ATOM      7  C   UNL     1      49.303   8.112  17.415  0.00  0.00    +0.000 C 
BRANCH   7   9
ATOM      8  C   UNL     1      47.332   8.615  18.934  0.00  0.00    +0.000 C 
ATOM      9  N   UNL     1      48.436   7.755  18.551  0.00  0.00    +0.000 N 
ATOM     10  C   UNL     1      48.380   6.436  19.049  0.00  0.00    +0.000 C 
ATOM     11  O   UNL     1      47.486   6.066  19.797  0.00  0.00    +0.000 OA
BRANCH  10  12
ATOM     12  C   UNL     1      49.456   5.509  18.677  0.00  0.00    +0.000 A 
ATOM     13  C   UNL     1      50.764   5.590  19.143  0.00  0.00    +0.000 A 
ATOM     14  S   UNL     1      51.789   4.367  18.567  0.00  0.00    +0.000 S 
ATOM     15  C   UNL     1      50.501   3.615  17.759  0.00  0.00    +0.000 A 
ATOM     16  N   UNL     1      50.692   2.438  17.112  0.00  0.00    +0.000 NA
ATOM     17  C   UNL     1      49.619   1.951  16.585  0.00  0.00    +0.000 A 
ATOM     18  N   UNL     1      48.388   2.559  16.602  0.00  0.00    +0.000 N 
ATOM     19  C   UNL     1      48.184   3.813  17.123  0.00  0.00    +0.000 A 
ATOM     20  O   UNL     1      47.135   4.429  16.901  0.00  0.00    +0.000 OA
ATOM     21  C   UNL     1      49.325   4.335  17.853  0.00  0.00    +0.000 A 
ATOM     22  H   UNL     1      47.607   2.158  16.108  0.00  0.00    +0.000 HD
ENDBRANCH  10  12
ENDBRANCH   7   9
ENDBRANCH   1   7
BRANCH   4  23
ATOM     23  C   UNL     1      46.984   7.489  12.113  0.00  0.00    +0.000 C 
BRANCH  23  24
ATOM     24  N   UNL     1      45.576   7.165  12.344  0.00  0.00    +0.000 NA
ATOM     25  H   UNL     1      45.018   7.897  11.902  0.00  0.00    +0.000 HD
BRANCH  24  26
ATOM     26  C   UNL     1      45.152   5.853  11.801  0.00  0.00    +0.000 C 
ATOM     27  C   UNL     1      45.664   4.643  12.611  0.00  0.00    +0.000 C 
ATOM     28  C   UNL     1      45.086   3.310  12.129  0.00  0.00    +0.000 C 
ATOM     29  C   UNL     1      43.560   3.340  12.176  0.00  0.00    +0.000 C 
ATOM     30  C   UNL     1      43.028   4.500  11.327  0.00  0.00    +0.000 C 
ATOM     31  C   UNL     1      43.610   5.844  11.780  0.00  0.00    +0.000 C 
BRANCH  29  32
ATOM     32  N   UNL     1      43.036   2.056  11.722  0.00  0.00    +0.000 NA
ATOM     33  H   UNL     1      43.771   1.350  11.731  0.00  0.00    +0.000 HD
ATOM     34  H   UNL     1      42.717   2.130  10.758  0.00  0.00    +0.000 HD
ENDBRANCH  29  32
ENDBRANCH  24  26
ENDBRANCH  23  24
ENDBRANCH   4  23
TORSDOF 7
ENDMDL
MODEL 9
REMARK VINA RESULT:    -6.754      2.773      4.698
REMARK INTER + INTRA:         -10.710
REMARK INTER:                  -9.389
REMARK INTRA:                  -1.321
REMARK UNBOUND:                -1.390
REMARK  Name = 
REMARK  8 active torsions:
REMARK  status: ('A' for Active; 'I' for Inactive)
REMARK    1  A    between atoms: C_1  and  N_2
REMARK    2  A    between atoms: N_2  and  C_3
REMARK    3  A    between atoms: C_3  and  C_4
REMARK    4  A    between atoms: C_7  and  C_8
REMARK    5  A    between atoms: C_8  and  N_9
REMARK    6  A    between atoms: N_9  and  C_10
REMARK    7  A    between atoms: C_13  and  N_14
REMARK    8  A    between atoms: C_19  and  C_21
REMARK                            x       y       z     vdW  Elec       q    Type
REMARK                         _______ _______ _______ _____ _____    ______ ____
ROOT
ATOM      1  C   UNL     1      48.617   7.265  14.968  0.00  0.00    +0.000 A 
ATOM      2  C   UNL     1      48.102   8.525  14.629  0.00  0.00    +0.000 A 
ATOM      3  C   UNL     1      47.138   8.656  13.625  0.00  0.00    +0.000 A 
ATOM      4  C   UNL     1      46.605   7.519  13.003  0.00  0.00    +0.000 A 
ATOM      5  C   UNL     1      47.186   6.273  13.290  0.00  0.00    +0.000 A 
ATOM      6  C   UNL     1      48.205   6.150  14.240  0.00  0.00    +0.000 A 
ENDROOT
BRANCH   1   7
ATOM      7  C   UNL     1      49.657   7.144  16.045  0.00  0.00    +0.000 C 
BRANCH   7   9
ATOM      8  C   UNL     1      49.366   8.881  17.873  0.00  0.00    +0.000 C 
ATOM      9  N   UNL     1      49.333   7.496  17.437  0.00  0.00    +0.000 N 
ATOM     10  C   UNL     1      48.624   6.612  18.277  0.00  0.00    +0.000 C 
ATOM     11  O   UNL     1      48.119   6.983  19.327  0.00  0.00    +0.000 OA
BRANCH  10  12
ATOM     12  C   UNL     1      48.535   5.201  17.878  0.00  0.00    +0.000 A 
ATOM     13  C   UNL     1      47.381   4.585  17.407  0.00  0.00    +0.000 A 
ATOM     14  S   UNL     1      47.578   2.951  16.994  0.00  0.00    +0.000 S 
ATOM     15  C   UNL     1      49.240   3.029  17.325  0.00  0.00    +0.000 A 
ATOM     16  N   UNL     1      50.034   1.954  17.095  0.00  0.00    +0.000 NA
ATOM     17  C   UNL     1      51.284   2.165  17.340  0.00  0.00    +0.000 A 
ATOM     18  N   UNL     1      51.801   3.334  17.841  0.00  0.00    +0.000 N 
ATOM     19  C   UNL     1      51.013   4.394  18.219  0.00  0.00    +0.000 A 
ATOM     20  O   UNL     1      51.479   5.321  18.892  0.00  0.00    +0.000 OA
ATOM     21  C   UNL     1      49.623   4.258  17.827  0.00  0.00    +0.000 A 
ATOM     22  H   UNL     1      52.777   3.408  18.079  0.00  0.00    +0.000 HD
ENDBRANCH  10  12
ENDBRANCH   7   9
ENDBRANCH   1   7
BRANCH   4  23
ATOM     23  C   UNL     1      45.328   7.596  12.180  0.00  0.00    +0.000 C 
BRANCH  23  24
ATOM     24  N   UNL     1      44.293   6.646  12.590  0.00  0.00    +0.000 NA
ATOM     25  H   UNL     1      43.442   7.182  12.769  0.00  0.00    +0.000 HD
BRANCH  24  26
ATOM     26  C   UNL     1      43.991   5.599  11.587  0.00  0.00    +0.000 C 
ATOM     27  C   UNL     1      45.050   5.473  10.472  0.00  0.00    +0.000 C 
ATOM     28  C   UNL     1      44.803   4.284   9.540  0.00  0.00    +0.000 C 
ATOM     29  C   UNL     1      44.751   2.982  10.336  0.00  0.00    +0.000 C 
ATOM     30  C   UNL     1      43.662   3.063  11.410  0.00  0.00    +0.000 C 
ATOM     31  C   UNL     1      43.879   4.259  12.344  0.00  0.00    +0.000 C 
BRANCH  29  32
ATOM     32  N   UNL     1      44.525   1.865   9.423  0.00  0.00    +0.000 NA
ATOM     33  H   UNL     1      43.626   1.426   9.616  0.00  0.00    +0.000 HD
ATOM     34  H   UNL     1      45.234   1.148   9.565  0.00  0.00    +0.000 HD
ENDBRANCH  29  32
ENDBRANCH  24  26
ENDBRANCH  23  24
ENDBRANCH   4  23
TORSDOF 7
ENDMDL
