MODEL 1
REMARK VINA RESULT:    -9.505      0.000      0.000
REMARK INTER + INTRA:         -13.335
REMARK INTER:                 -13.117
REMARK INTRA:                  -0.219
REMARK UNBOUND:                -0.219
REMARK  Name = 
REMARK  8 active torsions:
REMARK  status: ('A' for Active; 'I' for Inactive)
REMARK    1  A    between atoms: C_1  and  C_2
REMARK    2  A    between atoms: C_2  and  O_3
REMARK    3  A    between atoms: C_5  and  N_6
REMARK    4  A    between atoms: C_9  and  C_10
REMARK    5  A    between atoms: C_10  and  C_13
REMARK    6  A    between atoms: C_13  and  N_14
REMARK    7  A    between atoms: N_14  and  C_15
REMARK    8  A    between atoms: C_18  and  C_19
REMARK                            x       y       z     vdW  Elec       q    Type
REMARK                         _______ _______ _______ _____ _____    ______ ____
ROOT
ATOM      1  C   UNL     1      45.107   6.446  11.279  0.00  0.00    +0.000 C 
ATOM      2  F   UNL     1      44.358   7.573  11.485  0.00  0.00    +0.000 F 
ATOM      3  F   UNL     1      45.676   6.623  10.045  0.00  0.00    +0.000 F 
ENDROOT
BRANCH   1   7
ATOM      4  N   UNL     1      46.686   4.366  15.484  0.00  0.00    +0.000 N 
ATOM      5  C   UNL     1      46.932   5.241  14.406  0.00  0.00    +0.000 A 
ATOM      6  C   UNL     1      45.922   5.477  13.472  0.00  0.00    +0.000 A 
ATOM      7  C   UNL     1      46.173   6.300  12.359  0.00  0.00    +0.000 A 
ATOM      8  C   UNL     1      47.429   6.912  12.286  0.00  0.00    +0.000 A 
ATOM      9  C   UNL     1      48.362   6.649  13.272  0.00  0.00    +0.000 A 
ATOM     10  N   UNL     1      48.144   5.816  14.303  0.00  0.00    +0.000 NA
ATOM     11  H   UNL     1      46.049   4.836  16.129  0.00  0.00    +0.000 HD
BRANCH   4  15
ATOM     12  C   UNL     1      48.532   4.004  19.541  0.00  0.00    +0.000 C 
ATOM     13  C   UNL     1      47.748   4.285  18.267  0.00  0.00    +0.000 C 
ATOM     14  C   UNL     1      47.322   3.024  17.470  0.00  0.00    +0.000 C 
ATOM     15  C   UNL     1      47.783   3.732  16.178  0.00  0.00    +0.000 C 
ATOM     16  C   UNL     1      48.626   4.681  17.051  0.00  0.00    +0.000 C 
BRANCH  13  17
ATOM     17  O   UNL     1      46.672   5.211  18.553  0.00  0.00    +0.000 OA
ATOM     18  H   UNL     1      46.905   5.613  19.407  0.00  0.00    +0.000 HD
ENDBRANCH  13  17
ENDBRANCH   4  15
ENDBRANCH   1   7
BRANCH   1  19
ATOM     19  C   UNL     1      44.139   5.231  11.179  0.00  0.00    +0.000 C 
BRANCH  19  20
ATOM     20  N   UNL     1      43.751   4.832   9.813  0.00  0.00    +0.000 N 
ATOM     21  H   UNL     1      43.329   5.577   9.260  0.00  0.00    +0.000 HD
BRANCH  20  22
ATOM     22  C   UNL     1      44.576   3.964   9.090  0.00  0.00    +0.000 A 
ATOM     23  C   UNL     1      45.547   4.404   8.177  0.00  0.00    +0.000 A 
ATOM     24  C   UNL     1      46.415   3.509   7.543  0.00  0.00    +0.000 A 
ATOM     25  C   UNL     1      46.362   2.146   7.840  0.00  0.00    +0.000 A 
ATOM     26  C   UNL     1      45.413   1.687   8.758  0.00  0.00    +0.000 A 
ATOM     27  C   UNL     1      44.540   2.594   9.380  0.00  0.00    +0.000 A 
BRANCH  25  28
ATOM     28  C   UNL     1      47.326   1.241   7.157  0.00  0.00    +0.000 C 
ATOM     29  N   UNL     1      48.342   1.815   6.450  0.00  0.00    +0.000 N 
ATOM     30  O   UNL     1      47.197   0.025   7.193  0.00  0.00    +0.000 OA
ATOM     31  H   UNL     1      48.337   2.791   6.190  0.00  0.00    +0.000 HD
ATOM     32  H   UNL     1      48.913   1.184   5.900  0.00  0.00    +0.000 HD
ENDBRANCH  25  28
ENDBRANCH  20  22
ENDBRANCH  19  20
ENDBRANCH   1  19
TORSDOF 7
ENDMDL
MODEL 2
REMARK VINA RESULT:    -9.427      2.066      2.882
REMARK INTER + INTRA:         -13.228
REMARK INTER:                 -12.360
REMARK INTRA:                  -0.867
REMARK UNBOUND:                -0.219
REMARK  Name = 
REMARK  8 active torsions:
REMARK  status: ('A' for Active; 'I' for Inactive)
REMARK    1  A    between atoms: C_1  and  C_2
REMARK    2  A    between atoms: C_2  and  O_3
REMARK    3  A    between atoms: C_5  and  N_6
REMARK    4  A    between atoms: C_9  and  C_10
REMARK    5  A    between atoms: C_10  and  C_13
REMARK    6  A    between atoms: C_13  and  N_14
REMARK    7  A    between atoms: N_14  and  C_15
REMARK    8  A    between atoms: C_18  and  C_19
REMARK                            x       y       z     vdW  Elec       q    Type
REMARK                         _______ _______ _______ _____ _____    ______ ____
ROOT
ATOM      1  C   UNL     1      43.738   5.468  12.299  0.00  0.00    +0.000 C 
ATOM      2  F   UNL     1      42.877   5.409  13.361  0.00  0.00    +0.000 F 
ATOM      3  F   UNL     1      43.577   6.728  11.784  0.00  0.00    +0.000 F 
ENDROOT
BRANCH   1   7
ATOM      4  N   UNL     1      48.150   7.282  13.622  0.00  0.00    +0.000 N 
ATOM      5  C   UNL     1      47.317   6.161  13.426  0.00  0.00    +0.000 A 
ATOM      6  C   UNL     1      46.039   6.342  12.897  0.00  0.00    +0.000 A 
ATOM      7  C   UNL     1      45.176   5.241  12.755  0.00  0.00    +0.000 A 
ATOM      8  C   UNL     1      45.684   3.980  13.090  0.00  0.00    +0.000 A 
ATOM      9  C   UNL     1      46.975   3.887  13.578  0.00  0.00    +0.000 A 
ATOM     10  N   UNL     1      47.779   4.945  13.771  0.00  0.00    +0.000 NA
ATOM     11  H   UNL     1      48.457   7.606  12.703  0.00  0.00    +0.000 HD
BRANCH   4  15
ATOM     12  C   UNL     1      49.497   8.988  17.530  0.00  0.00    +0.000 C 
ATOM     13  C   UNL     1      48.846   8.558  16.223  0.00  0.00    +0.000 C 
ATOM     14  C   UNL     1      48.749   7.024  16.014  0.00  0.00    +0.000 C 
ATOM     15  C   UNL     1      49.242   7.229  14.566  0.00  0.00    +0.000 C 
ATOM     16  C   UNL     1      49.790   8.605  14.993  0.00  0.00    +0.000 C 
BRANCH  13  17
ATOM     17  O   UNL     1      47.599   9.272  16.045  0.00  0.00    +0.000 OA
ATOM     18  H   UNL     1      47.650  10.027  16.656  0.00  0.00    +0.000 HD
ENDBRANCH  13  17
ENDBRANCH   4  15
ENDBRANCH   1   7
BRANCH   1  19
ATOM     19  C   UNL     1      43.251   4.455  11.222  0.00  0.00    +0.000 C 
BRANCH  19  20
ATOM     20  N   UNL     1      43.673   4.740   9.837  0.00  0.00    +0.000 N 
ATOM     21  H   UNL     1      43.763   5.731   9.619  0.00  0.00    +0.000 HD
BRANCH  20  22
ATOM     22  C   UNL     1      44.629   3.920   9.229  0.00  0.00    +0.000 A 
ATOM     23  C   UNL     1      44.671   2.527   9.400  0.00  0.00    +0.000 A 
ATOM     24  C   UNL     1      45.586   1.731   8.701  0.00  0.00    +0.000 A 
ATOM     25  C   UNL     1      46.458   2.306   7.776  0.00  0.00    +0.000 A 
ATOM     26  C   UNL     1      46.422   3.690   7.577  0.00  0.00    +0.000 A 
ATOM     27  C   UNL     1      45.508   4.480   8.292  0.00  0.00    +0.000 A 
BRANCH  25  28
ATOM     28  C   UNL     1      47.392   1.411   7.040  0.00  0.00    +0.000 C 
ATOM     29  N   UNL     1      48.474   1.982   6.436  0.00  0.00    +0.000 N 
ATOM     30  O   UNL     1      47.183   0.209   6.945  0.00  0.00    +0.000 OA
ATOM     31  H   UNL     1      48.543   2.978   6.280  0.00  0.00    +0.000 HD
ATOM     32  H   UNL     1      49.027   1.372   5.847  0.00  0.00    +0.000 HD
ENDBRANCH  25  28
ENDBRANCH  20  22
ENDBRANCH  19  20
ENDBRANCH   1  19
TORSDOF 7
ENDMDL
MODEL 3
REMARK VINA RESULT:    -9.266      2.711      4.233
REMARK INTER + INTRA:         -13.006
REMARK INTER:                 -11.972
REMARK INTRA:                  -1.035
REMARK UNBOUND:                -0.219
REMARK  Name = 
REMARK  8 active torsions:
REMARK  status: ('A' for Active; 'I' for Inactive)
REMARK    1  A    between atoms: C_1  and  C_2
REMARK    2  A    between atoms: C_2  and  O_3
REMARK    3  A    between atoms: C_5  and  N_6
REMARK    4  A    between atoms: C_9  and  C_10
REMARK    5  A    between atoms: C_10  and  C_13
REMARK    6  A    between atoms: C_13  and  N_14
REMARK    7  A    between atoms: N_14  and  C_15
REMARK    8  A    between atoms: C_18  and  C_19
REMARK                            x       y       z     vdW  Elec       q    Type
REMARK                         _______ _______ _______ _____ _____    ______ ____
ROOT
ATOM      1  C   UNL     1      43.700   5.468  12.287  0.00  0.00    +0.000 C 
ATOM      2  F   UNL     1      42.915   5.232  13.383  0.00  0.00    +0.000 F 
ATOM      3  F   UNL     1      43.334   6.715  11.854  0.00  0.00    +0.000 F 
ENDROOT
BRANCH   1   7
ATOM      4  N   UNL     1      48.298   7.228  11.773  0.00  0.00    +0.000 N 
ATOM      5  C   UNL     1      47.415   6.332  12.410  0.00  0.00    +0.000 A 
ATOM      6  C   UNL     1      46.084   6.273  11.996  0.00  0.00    +0.000 A 
ATOM      7  C   UNL     1      45.178   5.428  12.662  0.00  0.00    +0.000 A 
ATOM      8  C   UNL     1      45.689   4.617  13.682  0.00  0.00    +0.000 A 
ATOM      9  C   UNL     1      47.029   4.716  14.008  0.00  0.00    +0.000 A 
ATOM     10  N   UNL     1      47.882   5.566  13.412  0.00  0.00    +0.000 NA
ATOM     11  H   UNL     1      48.491   6.865  10.838  0.00  0.00    +0.000 HD
BRANCH   4  15
ATOM     12  C   UNL     1      50.950  10.799  12.235  0.00  0.00    +0.000 C 
ATOM     13  C   UNL     1      49.922   9.722  11.918  0.00  0.00    +0.000 C 
ATOM     14  C   UNL     1      49.310   9.019  13.159  0.00  0.00    +0.000 C 
ATOM     15  C   UNL     1      49.503   7.667  12.439  0.00  0.00    +0.000 C 
ATOM     16  C   UNL     1      50.532   8.354  11.519  0.00  0.00    +0.000 C 
BRANCH  13  17
ATOM     17  O   UNL     1      48.951  10.241  10.978  0.00  0.00    +0.000 OA
ATOM     18  H   UNL     1      48.692  11.108  11.333  0.00  0.00    +0.000 HD
ENDBRANCH  13  17
ENDBRANCH   4  15
ENDBRANCH   1   7
BRANCH   1  19
ATOM     19  C   UNL     1      43.303   4.450  11.178  0.00  0.00    +0.000 C 
BRANCH  19  20
ATOM     20  N   UNL     1      43.681   4.824   9.802  0.00  0.00    +0.000 N 
ATOM     21  H   UNL     1      43.833   5.821   9.663  0.00  0.00    +0.000 HD
BRANCH  20  22
ATOM     22  C   UNL     1      44.545   3.996   9.078  0.00  0.00    +0.000 A 
ATOM     23  C   UNL     1      45.544   4.484   8.222  0.00  0.00    +0.000 A 
ATOM     24  C   UNL     1      46.449   3.625   7.587  0.00  0.00    +0.000 A 
ATOM     25  C   UNL     1      46.401   2.251   7.825  0.00  0.00    +0.000 A 
ATOM     26  C   UNL     1      45.424   1.744   8.687  0.00  0.00    +0.000 A 
ATOM     27  C   UNL     1      44.516   2.614   9.310  0.00  0.00    +0.000 A 
BRANCH  25  28
ATOM     28  C   UNL     1      47.403   1.385   7.145  0.00  0.00    +0.000 C 
ATOM     29  N   UNL     1      48.490   1.993   6.586  0.00  0.00    +0.000 N 
ATOM     30  O   UNL     1      47.245   0.176   7.054  0.00  0.00    +0.000 OA
ATOM     31  H   UNL     1      48.528   2.989   6.422  0.00  0.00    +0.000 HD
ATOM     32  H   UNL     1      49.093   1.399   6.030  0.00  0.00    +0.000 HD
ENDBRANCH  25  28
ENDBRANCH  20  22
ENDBRANCH  19  20
ENDBRANCH   1  19
TORSDOF 7
ENDMDL
MODEL 4
REMARK VINA RESULT:    -8.955      3.360      4.283
REMARK INTER + INTRA:         -12.577
REMARK INTER:                 -11.602
REMARK INTRA:                  -0.975
REMARK UNBOUND:                -0.219
REMARK  Name = 
REMARK  8 active torsions:
REMARK  status: ('A' for Active; 'I' for Inactive)
REMARK    1  A    between atoms: C_1  and  C_2
REMARK    2  A    between atoms: C_2  and  O_3
REMARK    3  A    between atoms: C_5  and  N_6
REMARK    4  A    between atoms: C_9  and  C_10
REMARK    5  A    between atoms: C_10  and  C_13
REMARK    6  A    between atoms: C_13  and  N_14
REMARK    7  A    between atoms: N_14  and  C_15
REMARK    8  A    between atoms: C_18  and  C_19
REMARK                            x       y       z     vdW  Elec       q    Type
REMARK                         _______ _______ _______ _____ _____    ______ ____
ROOT
ATOM      1  C   UNL     1      44.578   4.405  12.422  0.00  0.00    +0.000 C 
ATOM      2  F   UNL     1      45.492   3.401  12.249  0.00  0.00    +0.000 F 
ATOM      3  F   UNL     1      44.042   4.183  13.664  0.00  0.00    +0.000 F 
ENDROOT
BRANCH   1   7
ATOM      4  N   UNL     1      48.703   7.135  12.210  0.00  0.00    +0.000 N 
ATOM      5  C   UNL     1      47.293   7.079  12.220  0.00  0.00    +0.000 A 
ATOM      6  C   UNL     1      46.659   5.849  12.402  0.00  0.00    +0.000 A 
ATOM      7  C   UNL     1      45.256   5.770  12.353  0.00  0.00    +0.000 A 
ATOM      8  C   UNL     1      44.551   6.969  12.195  0.00  0.00    +0.000 A 
ATOM      9  C   UNL     1      45.258   8.148  12.053  0.00  0.00    +0.000 A 
ATOM     10  N   UNL     1      46.600   8.217  12.040  0.00  0.00    +0.000 NA
ATOM     11  H   UNL     1      49.027   6.985  13.167  0.00  0.00    +0.000 HD
BRANCH   4  15
ATOM     12  C   UNL     1      52.507   9.478  12.401  0.00  0.00    +0.000 C 
ATOM     13  C   UNL     1      51.299   8.561  12.533  0.00  0.00    +0.000 C 
ATOM     14  C   UNL     1      50.846   7.883  11.213  0.00  0.00    +0.000 C 
ATOM     15  C   UNL     1      49.388   8.237  11.576  0.00  0.00    +0.000 C 
ATOM     16  C   UNL     1      49.935   9.300  12.550  0.00  0.00    +0.000 C 
BRANCH  13  17
ATOM     17  O   UNL     1      51.499   7.652  13.641  0.00  0.00    +0.000 OA
ATOM     18  H   UNL     1      50.604   7.400  13.927  0.00  0.00    +0.000 HD
ENDBRANCH  13  17
ENDBRANCH   4  15
ENDBRANCH   1   7
BRANCH   1  19
ATOM     19  C   UNL     1      43.440   4.212  11.379  0.00  0.00    +0.000 C 
BRANCH  19  20
ATOM     20  N   UNL     1      43.720   4.724  10.024  0.00  0.00    +0.000 N 
ATOM     21  H   UNL     1      43.806   5.738   9.966  0.00  0.00    +0.000 HD
BRANCH  20  22
ATOM     22  C   UNL     1      44.588   4.016   9.187  0.00  0.00    +0.000 A 
ATOM     23  C   UNL     1      45.559   4.633   8.384  0.00  0.00    +0.000 A 
ATOM     24  C   UNL     1      46.471   3.885   7.631  0.00  0.00    +0.000 A 
ATOM     25  C   UNL     1      46.461   2.491   7.696  0.00  0.00    +0.000 A 
ATOM     26  C   UNL     1      45.512   1.854   8.502  0.00  0.00    +0.000 A 
ATOM     27  C   UNL     1      44.596   2.616   9.245  0.00  0.00    +0.000 A 
BRANCH  25  28
ATOM     28  C   UNL     1      47.469   1.743   6.895  0.00  0.00    +0.000 C 
ATOM     29  N   UNL     1      48.541   2.440   6.418  0.00  0.00    +0.000 N 
ATOM     30  O   UNL     1      47.329   0.555   6.640  0.00  0.00    +0.000 OA
ATOM     31  H   UNL     1      48.563   3.449   6.391  0.00  0.00    +0.000 HD
ATOM     32  H   UNL     1      49.148   1.938   5.781  0.00  0.00    +0.000 HD
ENDBRANCH  25  28
ENDBRANCH  20  22
ENDBRANCH  19  20
ENDBRANCH   1  19
TORSDOF 7
ENDMDL
MODEL 5
REMARK VINA RESULT:    -7.634      3.852      5.176
REMARK INTER + INTRA:         -10.754
REMARK INTER:                  -9.922
REMARK INTRA:                  -0.832
REMARK UNBOUND:                -0.219
REMARK  Name = 
REMARK  8 active torsions:
REMARK  status: ('A' for Active; 'I' for Inactive)
REMARK    1  A    between atoms: C_1  and  C_2
REMARK    2  A    between atoms: C_2  and  O_3
REMARK    3  A    between atoms: C_5  and  N_6
REMARK    4  A    between atoms: C_9  and  C_10
REMARK    5  A    between atoms: C_10  and  C_13
REMARK    6  A    between atoms: C_13  and  N_14
REMARK    7  A    between atoms: N_14  and  C_15
REMARK    8  A    between atoms: C_18  and  C_19
REMARK                            x       y       z     vdW  Elec       q    Type
REMARK                         _______ _______ _______ _____ _____    ______ ____
ROOT
ATOM      1  C   UNL     1      45.889   6.337  12.172  0.00  0.00    +0.000 C 
ATOM      2  F   UNL     1      46.388   5.063  12.132  0.00  0.00    +0.000 F 
ATOM      3  F   UNL     1      45.152   6.390  13.326  0.00  0.00    +0.000 F 
ENDROOT
BRANCH   1   7
ATOM      4  N   UNL     1      50.703   7.411  11.750  0.00  0.00    +0.000 N 
ATOM      5  C   UNL     1      49.380   7.859  11.953  0.00  0.00    +0.000 A 
ATOM      6  C   UNL     1      48.349   6.925  12.053  0.00  0.00    +0.000 A 
ATOM      7  C   UNL     1      47.019   7.360  12.194  0.00  0.00    +0.000 A 
ATOM      8  C   UNL     1      46.804   8.739  12.302  0.00  0.00    +0.000 A 
ATOM      9  C   UNL     1      47.887   9.594  12.224  0.00  0.00    +0.000 A 
ATOM     10  N   UNL     1      49.151   9.183  12.030  0.00  0.00    +0.000 NA
ATOM     11  H   UNL     1      51.024   6.986  12.622  0.00  0.00    +0.000 HD
BRANCH   4  15
ATOM     12  C   UNL     1      54.631   7.355   9.614  0.00  0.00    +0.000 C 
ATOM     13  C   UNL     1      53.319   7.130  10.352  0.00  0.00    +0.000 C 
ATOM     14  C   UNL     1      52.095   7.872   9.751  0.00  0.00    +0.000 C 
ATOM     15  C   UNL     1      51.697   8.292  11.182  0.00  0.00    +0.000 C 
ATOM     16  C   UNL     1      53.144   7.999  11.624  0.00  0.00    +0.000 C 
BRANCH  13  17
ATOM     17  O   UNL     1      53.120   5.712  10.566  0.00  0.00    +0.000 OA
ATOM     18  H   UNL     1      52.972   5.341   9.679  0.00  0.00    +0.000 HD
ENDBRANCH  13  17
ENDBRANCH   4  15
ENDBRANCH   1   7
BRANCH   1  19
ATOM     19  C   UNL     1      44.904   6.510  10.979  0.00  0.00    +0.000 C 
BRANCH  19  20
ATOM     20  N   UNL     1      44.160   5.300  10.581  0.00  0.00    +0.000 N 
ATOM     21  H   UNL     1      43.162   5.446  10.440  0.00  0.00    +0.000 HD
BRANCH  20  22
ATOM     22  C   UNL     1      44.749   4.393   9.694  0.00  0.00    +0.000 A 
ATOM     23  C   UNL     1      45.681   4.768   8.714  0.00  0.00    +0.000 A 
ATOM     24  C   UNL     1      46.317   3.818   7.906  0.00  0.00    +0.000 A 
ATOM     25  C   UNL     1      46.066   2.457   8.088  0.00  0.00    +0.000 A 
ATOM     26  C   UNL     1      45.153   2.060   9.070  0.00  0.00    +0.000 A 
ATOM     27  C   UNL     1      44.513   3.023   9.866  0.00  0.00    +0.000 A 
BRANCH  25  28
ATOM     28  C   UNL     1      46.789   1.488   7.220  0.00  0.00    +0.000 C 
ATOM     29  N   UNL     1      46.827   0.184   7.623  0.00  0.00    +0.000 N 
ATOM     30  O   UNL     1      47.361   1.846   6.200  0.00  0.00    +0.000 OA
ATOM     31  H   UNL     1      46.592  -0.099   8.563  0.00  0.00    +0.000 HD
ATOM     32  H   UNL     1      47.421  -0.431   7.080  0.00  0.00    +0.000 HD
ENDBRANCH  25  28
ENDBRANCH  20  22
ENDBRANCH  19  20
ENDBRANCH   1  19
TORSDOF 7
ENDMDL
MODEL 6
REMARK VINA RESULT:    -7.526      4.687      8.403
REMARK INTER + INTRA:         -10.604
REMARK INTER:                  -8.686
REMARK INTRA:                  -1.918
REMARK UNBOUND:                -0.219
REMARK  Name = 
REMARK  8 active torsions:
REMARK  status: ('A' for Active; 'I' for Inactive)
REMARK    1  A    between atoms: C_1  and  C_2
REMARK    2  A    between atoms: C_2  and  O_3
REMARK    3  A    between atoms: C_5  and  N_6
REMARK    4  A    between atoms: C_9  and  C_10
REMARK    5  A    between atoms: C_10  and  C_13
REMARK    6  A    between atoms: C_13  and  N_14
REMARK    7  A    between atoms: N_14  and  C_15
REMARK    8  A    between atoms: C_18  and  C_19
REMARK                            x       y       z     vdW  Elec       q    Type
REMARK                         _______ _______ _______ _____ _____    ______ ____
ROOT
ATOM      1  C   UNL     1      48.701   4.821  19.462  0.00  0.00    +0.000 C 
ATOM      2  F   UNL     1      47.734   5.757  19.708  0.00  0.00    +0.000 F 
ATOM      3  F   UNL     1      48.652   3.973  20.539  0.00  0.00    +0.000 F 
ENDROOT
BRANCH   1   7
ATOM      4  N   UNL     1      46.411   4.574  15.081  0.00  0.00    +0.000 N 
ATOM      5  C   UNL     1      47.302   3.997  16.009  0.00  0.00    +0.000 A 
ATOM      6  C   UNL     1      47.484   4.605  17.252  0.00  0.00    +0.000 A 
ATOM      7  C   UNL     1      48.415   4.075  18.163  0.00  0.00    +0.000 A 
ATOM      8  C   UNL     1      49.069   2.894  17.796  0.00  0.00    +0.000 A 
ATOM      9  C   UNL     1      48.806   2.339  16.557  0.00  0.00    +0.000 A 
ATOM     10  N   UNL     1      47.962   2.877  15.662  0.00  0.00    +0.000 NA
ATOM     11  H   UNL     1      45.460   4.416  15.421  0.00  0.00    +0.000 HD
BRANCH   4  15
ATOM     12  C   UNL     1      44.996   5.975  11.076  0.00  0.00    +0.000 C 
ATOM     13  C   UNL     1      45.329   5.671  12.530  0.00  0.00    +0.000 C 
ATOM     14  C   UNL     1      46.844   5.550  12.843  0.00  0.00    +0.000 C 
ATOM     15  C   UNL     1      46.533   4.285  13.670  0.00  0.00    +0.000 C 
ATOM     16  C   UNL     1      45.192   4.176  12.918  0.00  0.00    +0.000 C 
BRANCH  13  17
ATOM     17  O   UNL     1      44.605   6.580  13.393  0.00  0.00    +0.000 OA
ATOM     18  H   UNL     1      44.223   7.246  12.796  0.00  0.00    +0.000 HD
ENDBRANCH  13  17
ENDBRANCH   4  15
ENDBRANCH   1   7
BRANCH   1  19
ATOM     19  C   UNL     1      50.085   5.533  19.489  0.00  0.00    +0.000 C 
BRANCH  19  20
ATOM     20  N   UNL     1      50.061   6.989  19.251  0.00  0.00    +0.000 N 
ATOM     21  H   UNL     1      50.837   7.497  19.671  0.00  0.00    +0.000 HD
BRANCH  20  22
ATOM     22  C   UNL     1      49.650   7.474  18.006  0.00  0.00    +0.000 A 
ATOM     23  C   UNL     1      50.117   6.961  16.786  0.00  0.00    +0.000 A 
ATOM     24  C   UNL     1      49.613   7.412  15.560  0.00  0.00    +0.000 A 
ATOM     25  C   UNL     1      48.592   8.363  15.526  0.00  0.00    +0.000 A 
ATOM     26  C   UNL     1      48.099   8.876  16.730  0.00  0.00    +0.000 A 
ATOM     27  C   UNL     1      48.621   8.424  17.952  0.00  0.00    +0.000 A 
BRANCH  25  28
ATOM     28  C   UNL     1      48.073   8.788  14.197  0.00  0.00    +0.000 C 
ATOM     29  N   UNL     1      46.720   8.901  14.052  0.00  0.00    +0.000 N 
ATOM     30  O   UNL     1      48.824   8.994  13.254  0.00  0.00    +0.000 OA
ATOM     31  H   UNL     1      46.070   8.504  14.714  0.00  0.00    +0.000 HD
ATOM     32  H   UNL     1      46.388   9.076  13.111  0.00  0.00    +0.000 HD
ENDBRANCH  25  28
ENDBRANCH  20  22
ENDBRANCH  19  20
ENDBRANCH   1  19
TORSDOF 7
ENDMDL
MODEL 7
REMARK VINA RESULT:    -7.524      4.682      6.170
REMARK INTER + INTRA:         -10.602
REMARK INTER:                 -10.017
REMARK INTRA:                  -0.584
REMARK UNBOUND:                -0.219
REMARK  Name = 
REMARK  8 active torsions:
REMARK  status: ('A' for Active; 'I' for Inactive)
REMARK    1  A    between atoms: C_1  and  C_2
REMARK    2  A    between atoms: C_2  and  O_3
REMARK    3  A    between atoms: C_5  and  N_6
REMARK    4  A    between atoms: C_9  and  C_10
REMARK    5  A    between atoms: C_10  and  C_13
REMARK    6  A    between atoms: C_13  and  N_14
REMARK    7  A    between atoms: N_14  and  C_15
REMARK    8  A    between atoms: C_18  and  C_19
REMARK                            x       y       z     vdW  Elec       q    Type
REMARK                         _______ _______ _______ _____ _____    ______ ____
ROOT
ATOM      1  C   UNL     1      47.556   3.670  16.882  0.00  0.00    +0.000 C 
ATOM      2  F   UNL     1      47.019   2.527  17.408  0.00  0.00    +0.000 F 
ATOM      3  F   UNL     1      46.841   4.690  17.452  0.00  0.00    +0.000 F 
ENDROOT
BRANCH   1   7
ATOM      4  N   UNL     1      51.916   1.505  17.784  0.00  0.00    +0.000 N 
ATOM      5  C   UNL     1      51.167   2.690  17.635  0.00  0.00    +0.000 A 
ATOM      6  C   UNL     1      49.788   2.608  17.437  0.00  0.00    +0.000 A 
ATOM      7  C   UNL     1      49.038   3.779  17.226  0.00  0.00    +0.000 A 
ATOM      8  C   UNL     1      49.721   4.999  17.300  0.00  0.00    +0.000 A 
ATOM      9  C   UNL     1      51.084   4.991  17.531  0.00  0.00    +0.000 A 
ATOM     10  N   UNL     1      51.810   3.871  17.674  0.00  0.00    +0.000 NA
ATOM     11  H   UNL     1      51.697   1.111  18.701  0.00  0.00    +0.000 HD
BRANCH   4  15
ATOM     12  C   UNL     1      55.560  -1.043  18.263  0.00  0.00    +0.000 C 
ATOM     13  C   UNL     1      54.202  -0.355  18.221  0.00  0.00    +0.000 C 
ATOM     14  C   UNL     1      53.790   0.193  16.828  0.00  0.00    +0.000 C 
ATOM     15  C   UNL     1      53.336   1.496  17.519  0.00  0.00    +0.000 C 
ATOM     16  C   UNL     1      54.213   1.110  18.727  0.00  0.00    +0.000 C 
BRANCH  13  17
ATOM     17  O   UNL     1      53.211  -1.199  18.855  0.00  0.00    +0.000 OA
ATOM     18  H   UNL     1      53.655  -1.566  19.638  0.00  0.00    +0.000 HD
ENDBRANCH  13  17
ENDBRANCH   4  15
ENDBRANCH   1   7
BRANCH   1  19
ATOM     19  C   UNL     1      47.261   3.687  15.354  0.00  0.00    +0.000 C 
BRANCH  19  20
ATOM     20  N   UNL     1      46.351   4.752  14.889  0.00  0.00    +0.000 N 
ATOM     21  H   UNL     1      46.499   5.656  15.334  0.00  0.00    +0.000 HD
BRANCH  20  22
ATOM     22  C   UNL     1      46.004   4.816  13.536  0.00  0.00    +0.000 A 
ATOM     23  C   UNL     1      46.262   5.934  12.726  0.00  0.00    +0.000 A 
ATOM     24  C   UNL     1      45.983   5.925  11.355  0.00  0.00    +0.000 A 
ATOM     25  C   UNL     1      45.475   4.776  10.747  0.00  0.00    +0.000 A 
ATOM     26  C   UNL     1      45.225   3.645  11.531  0.00  0.00    +0.000 A 
ATOM     27  C   UNL     1      45.499   3.670  12.908  0.00  0.00    +0.000 A 
BRANCH  25  28
ATOM     28  C   UNL     1      45.221   4.811   9.281  0.00  0.00    +0.000 C 
ATOM     29  N   UNL     1      44.003   4.382   8.839  0.00  0.00    +0.000 N 
ATOM     30  O   UNL     1      46.082   5.175   8.492  0.00  0.00    +0.000 OA
ATOM     31  H   UNL     1      43.373   3.848   9.420  0.00  0.00    +0.000 HD
ATOM     32  H   UNL     1      43.898   4.306   7.834  0.00  0.00    +0.000 HD
ENDBRANCH  25  28
ENDBRANCH  20  22
ENDBRANCH  19  20
ENDBRANCH   1  19
TORSDOF 7
ENDMDL
MODEL 8
REMARK VINA RESULT:    -7.220      2.138      8.706
REMARK INTER + INTRA:         -10.183
REMARK INTER:                  -9.428
REMARK INTRA:                  -0.754
REMARK UNBOUND:                -0.219
REMARK  Name = 
REMARK  8 active torsions:
REMARK  status: ('A' for Active; 'I' for Inactive)
REMARK    1  A    between atoms: C_1  and  C_2
REMARK    2  A    between atoms: C_2  and  O_3
REMARK    3  A    between atoms: C_5  and  N_6
REMARK    4  A    between atoms: C_9  and  C_10
REMARK    5  A    between atoms: C_10  and  C_13
REMARK    6  A    between atoms: C_13  and  N_14
REMARK    7  A    between atoms: N_14  and  C_15
REMARK    8  A    between atoms: C_18  and  C_19
REMARK                            x       y       z     vdW  Elec       q    Type
REMARK                         _______ _______ _______ _____ _____    ______ ____
ROOT
ATOM      1  C   UNL     1      46.858   7.649  12.879  0.00  0.00    +0.000 C 
ATOM      2  F   UNL     1      47.163   8.419  11.790  0.00  0.00    +0.000 F 
ATOM      3  F   UNL     1      46.056   8.442  13.658  0.00  0.00    +0.000 F 
ENDROOT
BRANCH   1   7
ATOM      4  N   UNL     1      44.848   4.844   9.329  0.00  0.00    +0.000 N 
ATOM      5  C   UNL     1      45.177   5.014  10.690  0.00  0.00    +0.000 A 
ATOM      6  C   UNL     1      45.738   6.219  11.114  0.00  0.00    +0.000 A 
ATOM      7  C   UNL     1      46.128   6.379  12.456  0.00  0.00    +0.000 A 
ATOM      8  C   UNL     1      45.857   5.321  13.332  0.00  0.00    +0.000 A 
ATOM      9  C   UNL     1      45.269   4.173  12.834  0.00  0.00    +0.000 A 
ATOM     10  N   UNL     1      44.951   3.997  11.541  0.00  0.00    +0.000 NA
ATOM     11  H   UNL     1      44.029   5.422   9.133  0.00  0.00    +0.000 HD
BRANCH   4  15
ATOM     12  C   UNL     1      46.793   2.079   6.403  0.00  0.00    +0.000 C 
ATOM     13  C   UNL     1      46.300   3.183   7.327  0.00  0.00    +0.000 C 
ATOM     14  C   UNL     1      46.057   2.746   8.796  0.00  0.00    +0.000 C 
ATOM     15  C   UNL     1      44.722   3.521   8.764  0.00  0.00    +0.000 C 
ATOM     16  C   UNL     1      44.780   3.471   7.225  0.00  0.00    +0.000 C 
BRANCH  13  17
ATOM     17  O   UNL     1      47.141   4.352   7.176  0.00  0.00    +0.000 OA
ATOM     18  H   UNL     1      46.996   4.652   6.263  0.00  0.00    +0.000 HD
ENDBRANCH  13  17
ENDBRANCH   4  15
ENDBRANCH   1   7
BRANCH   1  19
ATOM     19  C   UNL     1      48.171   7.387  13.672  0.00  0.00    +0.000 C 
BRANCH  19  20
ATOM     20  N   UNL     1      48.217   7.944  15.038  0.00  0.00    +0.000 N 
ATOM     21  H   UNL     1      47.516   8.659  15.225  0.00  0.00    +0.000 HD
BRANCH  20  22
ATOM     22  C   UNL     1      48.489   7.097  16.117  0.00  0.00    +0.000 A 
ATOM     23  C   UNL     1      48.751   7.562  17.415  0.00  0.00    +0.000 A 
ATOM     24  C   UNL     1      48.928   6.680  18.487  0.00  0.00    +0.000 A 
ATOM     25  C   UNL     1      48.804   5.303  18.294  0.00  0.00    +0.000 A 
ATOM     26  C   UNL     1      48.527   4.818  17.012  0.00  0.00    +0.000 A 
ATOM     27  C   UNL     1      48.363   5.713  15.942  0.00  0.00    +0.000 A 
BRANCH  25  28
ATOM     28  C   UNL     1      48.975   4.411  19.473  0.00  0.00    +0.000 C 
ATOM     29  N   UNL     1      48.399   3.174  19.420  0.00  0.00    +0.000 N 
ATOM     30  O   UNL     1      49.577   4.779  20.472  0.00  0.00    +0.000 OA
ATOM     31  H   UNL     1      47.696   2.933  18.736  0.00  0.00    +0.000 HD
ATOM     32  H   UNL     1      48.429   2.634  20.276  0.00  0.00    +0.000 HD
ENDBRANCH  25  28
ENDBRANCH  20  22
ENDBRANCH  19  20
ENDBRANCH   1  19
TORSDOF 7
ENDMDL
MODEL 9
REMARK VINA RESULT:    -7.110      3.147      4.313
REMARK INTER + INTRA:         -10.030
REMARK INTER:                  -9.061
REMARK INTRA:                  -0.969
REMARK UNBOUND:                -0.219
REMARK  Name = 
REMARK  8 active torsions:
REMARK  status: ('A' for Active; 'I' for Inactive)
REMARK    1  A    between atoms: C_1  and  C_2
REMARK    2  A    between atoms: C_2  and  O_3
REMARK    3  A    between atoms: C_5  and  N_6
REMARK    4  A    between atoms: C_9  and  C_10
REMARK    5  A    between atoms: C_10  and  C_13
REMARK    6  A    between atoms: C_13  and  N_14
REMARK    7  A    between atoms: N_14  and  C_15
REMARK    8  A    between atoms: C_18  and  C_19
REMARK                            x       y       z     vdW  Elec       q    Type
REMARK                         _______ _______ _______ _____ _____    ______ ____
ROOT
ATOM      1  C   UNL     1      48.487   8.000  12.988  0.00  0.00    +0.000 C 
ATOM      2  F   UNL     1      49.382   8.950  12.576  0.00  0.00    +0.000 F 
ATOM      3  F   UNL     1      48.721   6.921  12.177  0.00  0.00    +0.000 F 
ENDROOT
BRANCH   1   7
ATOM      4  N   UNL     1      48.628   4.621  16.604  0.00  0.00    +0.000 N 
ATOM      5  C   UNL     1      48.803   5.961  16.198  0.00  0.00    +0.000 A 
ATOM      6  C   UNL     1      48.487   6.326  14.889  0.00  0.00    +0.000 A 
ATOM      7  C   UNL     1      48.714   7.644  14.454  0.00  0.00    +0.000 A 
ATOM      8  C   UNL     1      49.188   8.559  15.401  0.00  0.00    +0.000 A 
ATOM      9  C   UNL     1      49.446   8.120  16.687  0.00  0.00    +0.000 A 
ATOM     10  N   UNL     1      49.286   6.848  17.087  0.00  0.00    +0.000 NA
ATOM     11  H   UNL     1      47.625   4.448  16.681  0.00  0.00    +0.000 HD
BRANCH   4  15
ATOM     12  C   UNL     1      51.131   1.136  17.862  0.00  0.00    +0.000 C 
ATOM     13  C   UNL     1      50.253   2.201  17.221  0.00  0.00    +0.000 C 
ATOM     14  C   UNL     1      50.783   3.654  17.358  0.00  0.00    +0.000 C 
ATOM     15  C   UNL     1      49.355   4.097  17.737  0.00  0.00    +0.000 C 
ATOM     16  C   UNL     1      49.036   2.629  18.082  0.00  0.00    +0.000 C 
BRANCH  13  17
ATOM     17  O   UNL     1      49.919   1.805  15.870  0.00  0.00    +0.000 OA
ATOM     18  H   UNL     1      49.100   2.286  15.660  0.00  0.00    +0.000 HD
ENDBRANCH  13  17
ENDBRANCH   4  15
ENDBRANCH   1   7
BRANCH   1  19
ATOM     19  C   UNL     1      47.052   8.518  12.680  0.00  0.00    +0.000 C 
BRANCH  19  20
ATOM     20  N   UNL     1      45.950   7.761  13.305  0.00  0.00    +0.000 N 
ATOM     21  H   UNL     1      45.191   8.339  13.661  0.00  0.00    +0.000 HD
BRANCH  20  22
ATOM     22  C   UNL     1      45.545   6.547  12.742  0.00  0.00    +0.000 A 
ATOM     23  C   UNL     1      45.534   5.335  13.449  0.00  0.00    +0.000 A 
ATOM     24  C   UNL     1      45.034   4.158  12.879  0.00  0.00    +0.000 A 
ATOM     25  C   UNL     1      44.491   4.175  11.593  0.00  0.00    +0.000 A 
ATOM     26  C   UNL     1      44.477   5.375  10.876  0.00  0.00    +0.000 A 
ATOM     27  C   UNL     1      44.991   6.546  11.455  0.00  0.00    +0.000 A 
BRANCH  25  28
ATOM     28  C   UNL     1      43.948   2.902  11.044  0.00  0.00    +0.000 C 
ATOM     29  N   UNL     1      44.592   2.348   9.975  0.00  0.00    +0.000 N 
ATOM     30  O   UNL     1      42.941   2.384  11.507  0.00  0.00    +0.000 OA
ATOM     31  H   UNL     1      45.258   2.864   9.418  0.00  0.00    +0.000 HD
ATOM     32  H   UNL     1      44.137   1.550   9.549  0.00  0.00    +0.000 HD
ENDBRANCH  25  28
ENDBRANCH  20  22
ENDBRANCH  19  20
ENDBRANCH   1  19
TORSDOF 7
ENDMDL
