MODEL 1
REMARK VINA RESULT:    -7.867      0.000      0.000
REMARK INTER + INTRA:         -10.315
REMARK INTER:                  -9.706
REMARK INTRA:                  -0.608
REMARK UNBOUND:                -0.608
REMARK  Name = 
REMARK  5 active torsions:
REMARK  status: ('A' for Active; 'I' for Inactive)
REMARK    1  A    between atoms: C_1  and  C_2
REMARK    2  A    between atoms: C_2  and  O_3
REMARK    3  A    between atoms: C_2  and  C_13
REMARK    4  A    between atoms: O_3  and  C_4
REMARK    5  A    between atoms: C_7  and  C_8
REMARK                            x       y       z     vdW  Elec       q    Type
REMARK                         _______ _______ _______ _____ _____    ______ ____
ROOT
ATOM      1  C   UNL     1      44.630   3.830   9.221  0.00  0.00    +0.000 A 
ATOM      2  C   UNL     1      45.550   4.447   8.375  0.00  0.00    +0.000 A 
ATOM      3  C   UNL     1      46.448   3.668   7.651  0.00  0.00    +0.000 A 
ATOM      4  C   UNL     1      46.412   2.292   7.820  0.00  0.00    +0.000 A 
ATOM      5  N   UNL     1      45.565   1.658   8.680  0.00  0.00    +0.000 NA
ATOM      6  C   UNL     1      44.705   2.449   9.361  0.00  0.00    +0.000 A 
ENDROOT
BRANCH   4   7
ATOM      7  C   UNL     1      47.338   1.417   7.032  0.00  0.00    +0.000 C 
ATOM      8  N   UNL     1      48.441   2.038   6.516  0.00  0.00    +0.000 N 
ATOM      9  O   UNL     1      47.129   0.225   6.863  0.00  0.00    +0.000 OA
ATOM     10  H   UNL     1      48.580   3.032   6.673  0.00  0.00    +0.000 HD
ATOM     11  H   UNL     1      49.098   1.505   5.964  0.00  0.00    +0.000 HD
ENDBRANCH   4   7
BRANCH   1  12
ATOM     12  O   UNL     1      43.734   4.650   9.839  0.00  0.00    +0.000 OA
BRANCH  12  14
ATOM     13  C   UNL     1      42.401   5.351  11.778  0.00  0.00    +0.000 C 
ATOM     14  C   UNL     1      43.568   4.504  11.263  0.00  0.00    +0.000 C 
BRANCH  14  15
ATOM     15  C   UNL     1      44.867   4.948  11.909  0.00  0.00    +0.000 A 
ATOM     16  C   UNL     1      45.382   6.231  11.662  0.00  0.00    +0.000 A 
ATOM     17  C   UNL     1      46.535   6.668  12.315  0.00  0.00    +0.000 A 
ATOM     18  C   UNL     1      47.192   5.826  13.211  0.00  0.00    +0.000 A 
ATOM     19  C   UNL     1      46.717   4.536  13.430  0.00  0.00    +0.000 A 
ATOM     20  C   UNL     1      45.565   4.096  12.780  0.00  0.00    +0.000 A 
ENDBRANCH  14  15
ENDBRANCH  12  14
ENDBRANCH   1  12
TORSDOF 4
ENDMDL
MODEL 2
REMARK VINA RESULT:    -6.896      1.233      1.674
REMARK INTER + INTRA:          -9.117
REMARK INTER:                  -8.547
REMARK INTRA:                  -0.570
REMARK UNBOUND:                -0.608
REMARK  Name = 
REMARK  5 active torsions:
REMARK  status: ('A' for Active; 'I' for Inactive)
REMARK    1  A    between atoms: C_1  and  C_2
REMARK    2  A    between atoms: C_2  and  O_3
REMARK    3  A    between atoms: C_2  and  C_13
REMARK    4  A    between atoms: O_3  and  C_4
REMARK    5  A    between atoms: C_7  and  C_8
REMARK                            x       y       z     vdW  Elec       q    Type
REMARK                         _______ _______ _______ _____ _____    ______ ____
ROOT
ATOM      1  C   UNL     1      44.846   3.970   9.413  0.00  0.00    +0.000 A 
ATOM      2  C   UNL     1      45.648   4.424   8.367  0.00  0.00    +0.000 A 
ATOM      3  C   UNL     1      46.388   3.511   7.621  0.00  0.00    +0.000 A 
ATOM      4  C   UNL     1      46.320   2.170   7.968  0.00  0.00    +0.000 A 
ATOM      5  N   UNL     1      45.593   1.696   9.018  0.00  0.00    +0.000 NA
ATOM      6  C   UNL     1      44.885   2.613   9.714  0.00  0.00    +0.000 A 
ENDROOT
BRANCH   4   7
ATOM      7  C   UNL     1      47.074   1.153   7.167  0.00  0.00    +0.000 C 
ATOM      8  N   UNL     1      46.863  -0.151   7.520  0.00  0.00    +0.000 N 
ATOM      9  O   UNL     1      47.826   1.462   6.254  0.00  0.00    +0.000 OA
ATOM     10  H   UNL     1      46.235  -0.371   8.288  0.00  0.00    +0.000 HD
ATOM     11  H   UNL     1      47.353  -0.885   7.027  0.00  0.00    +0.000 HD
ENDBRANCH   4   7
BRANCH   1  12
ATOM     12  O   UNL     1      44.093   4.911  10.050  0.00  0.00    +0.000 OA
BRANCH  12  14
ATOM     13  C   UNL     1      42.804   4.882  12.139  0.00  0.00    +0.000 C 
ATOM     14  C   UNL     1      44.186   4.979  11.486  0.00  0.00    +0.000 C 
BRANCH  14  15
ATOM     15  C   UNL     1      44.836   6.308  11.825  0.00  0.00    +0.000 A 
ATOM     16  C   UNL     1      44.354   7.500  11.261  0.00  0.00    +0.000 A 
ATOM     17  C   UNL     1      44.900   8.729  11.631  0.00  0.00    +0.000 A 
ATOM     18  C   UNL     1      45.940   8.781  12.558  0.00  0.00    +0.000 A 
ATOM     19  C   UNL     1      46.456   7.603  13.091  0.00  0.00    +0.000 A 
ATOM     20  C   UNL     1      45.912   6.373  12.724  0.00  0.00    +0.000 A 
ENDBRANCH  14  15
ENDBRANCH  12  14
ENDBRANCH   1  12
TORSDOF 4
ENDMDL
MODEL 3
REMARK VINA RESULT:    -6.457      3.616      6.147
REMARK INTER + INTRA:          -8.576
REMARK INTER:                  -7.957
REMARK INTRA:                  -0.619
REMARK UNBOUND:                -0.608
REMARK  Name = 
REMARK  5 active torsions:
REMARK  status: ('A' for Active; 'I' for Inactive)
REMARK    1  A    between atoms: C_1  and  C_2
REMARK    2  A    between atoms: C_2  and  O_3
REMARK    3  A    between atoms: C_2  and  C_13
REMARK    4  A    between atoms: O_3  and  C_4
REMARK    5  A    between atoms: C_7  and  C_8
REMARK                            x       y       z     vdW  Elec       q    Type
REMARK                         _______ _______ _______ _____ _____    ______ ____
ROOT
ATOM      1  C   UNL     1      46.043   4.992  12.922  0.00  0.00    +0.000 A 
ATOM      2  C   UNL     1      46.360   6.271  12.468  0.00  0.00    +0.000 A 
ATOM      3  C   UNL     1      47.396   6.978  13.072  0.00  0.00    +0.000 A 
ATOM      4  C   UNL     1      48.065   6.387  14.134  0.00  0.00    +0.000 A 
ATOM      5  N   UNL     1      47.746   5.162  14.641  0.00  0.00    +0.000 NA
ATOM      6  C   UNL     1      46.738   4.507  14.024  0.00  0.00    +0.000 A 
ENDROOT
BRANCH   4   7
ATOM      7  C   UNL     1      49.208   7.101  14.787  0.00  0.00    +0.000 C 
ATOM      8  N   UNL     1      50.258   7.409  13.967  0.00  0.00    +0.000 N 
ATOM      9  O   UNL     1      49.206   7.395  15.973  0.00  0.00    +0.000 OA
ATOM     10  H   UNL     1      50.228   7.144  12.987  0.00  0.00    +0.000 HD
ATOM     11  H   UNL     1      51.066   7.880  14.351  0.00  0.00    +0.000 HD
ENDBRANCH   4   7
BRANCH   1  12
ATOM     12  O   UNL     1      45.069   4.331  12.234  0.00  0.00    +0.000 OA
BRANCH  12  14
ATOM     13  C   UNL     1      43.032   5.027  11.054  0.00  0.00    +0.000 C 
ATOM     14  C   UNL     1      44.561   4.950  11.037  0.00  0.00    +0.000 C 
BRANCH  14  15
ATOM     15  C   UNL     1      45.033   4.105   9.867  0.00  0.00    +0.000 A 
ATOM     16  C   UNL     1      45.676   4.702   8.772  0.00  0.00    +0.000 A 
ATOM     17  C   UNL     1      46.179   3.917   7.733  0.00  0.00    +0.000 A 
ATOM     18  C   UNL     1      46.034   2.531   7.772  0.00  0.00    +0.000 A 
ATOM     19  C   UNL     1      45.358   1.931   8.831  0.00  0.00    +0.000 A 
ATOM     20  C   UNL     1      44.856   2.712   9.870  0.00  0.00    +0.000 A 
ENDBRANCH  14  15
ENDBRANCH  12  14
ENDBRANCH   1  12
TORSDOF 4
ENDMDL
MODEL 4
REMARK VINA RESULT:    -6.380      3.009      5.829
REMARK INTER + INTRA:          -8.480
REMARK INTER:                  -9.516
REMARK INTRA:                   1.036
REMARK UNBOUND:                -0.608
REMARK  Name = 
REMARK  5 active torsions:
REMARK  status: ('A' for Active; 'I' for Inactive)
REMARK    1  A    between atoms: C_1  and  C_2
REMARK    2  A    between atoms: C_2  and  O_3
REMARK    3  A    between atoms: C_2  and  C_13
REMARK    4  A    between atoms: O_3  and  C_4
REMARK    5  A    between atoms: C_7  and  C_8
REMARK                            x       y       z     vdW  Elec       q    Type
REMARK                         _______ _______ _______ _____ _____    ______ ____
ROOT
ATOM      1  C   UNL     1      45.500   4.852  11.411  0.00  0.00    +0.000 A 
ATOM      2  C   UNL     1      46.026   5.983  12.034  0.00  0.00    +0.000 A 
ATOM      3  C   UNL     1      46.592   5.870  13.301  0.00  0.00    +0.000 A 
ATOM      4  C   UNL     1      46.587   4.627  13.915  0.00  0.00    +0.000 A 
ATOM      5  N   UNL     1      46.031   3.511  13.362  0.00  0.00    +0.000 NA
ATOM      6  C   UNL     1      45.497   3.662  12.130  0.00  0.00    +0.000 A 
ENDROOT
BRANCH   4   7
ATOM      7  C   UNL     1      47.218   4.457  15.263  0.00  0.00    +0.000 C 
ATOM      8  N   UNL     1      47.770   5.585  15.803  0.00  0.00    +0.000 N 
ATOM      9  O   UNL     1      47.236   3.385  15.849  0.00  0.00    +0.000 OA
ATOM     10  H   UNL     1      47.741   6.459  15.286  0.00  0.00    +0.000 HD
ATOM     11  H   UNL     1      48.223   5.534  16.705  0.00  0.00    +0.000 HD
ENDBRANCH   4   7
BRANCH   1  12
ATOM     12  O   UNL     1      45.031   5.023  10.143  0.00  0.00    +0.000 OA
BRANCH  12  14
ATOM     13  C   UNL     1      43.746   2.985  10.612  0.00  0.00    +0.000 C 
ATOM     14  C   UNL     1      44.306   3.931   9.546  0.00  0.00    +0.000 C 
BRANCH  14  15
ATOM     15  C   UNL     1      45.280   3.192   8.646  0.00  0.00    +0.000 A 
ATOM     16  C   UNL     1      46.044   3.892   7.699  0.00  0.00    +0.000 A 
ATOM     17  C   UNL     1      46.995   3.226   6.925  0.00  0.00    +0.000 A 
ATOM     18  C   UNL     1      47.184   1.854   7.080  0.00  0.00    +0.000 A 
ATOM     19  C   UNL     1      46.402   1.140   7.985  0.00  0.00    +0.000 A 
ATOM     20  C   UNL     1      45.452   1.803   8.760  0.00  0.00    +0.000 A 
ENDBRANCH  14  15
ENDBRANCH  12  14
ENDBRANCH   1  12
TORSDOF 4
ENDMDL
MODEL 5
REMARK VINA RESULT:    -6.260      3.579      6.003
REMARK INTER + INTRA:          -8.332
REMARK INTER:                  -7.727
REMARK INTRA:                  -0.604
REMARK UNBOUND:                -0.608
REMARK  Name = 
REMARK  5 active torsions:
REMARK  status: ('A' for Active; 'I' for Inactive)
REMARK    1  A    between atoms: C_1  and  C_2
REMARK    2  A    between atoms: C_2  and  O_3
REMARK    3  A    between atoms: C_2  and  C_13
REMARK    4  A    between atoms: O_3  and  C_4
REMARK    5  A    between atoms: C_7  and  C_8
REMARK                            x       y       z     vdW  Elec       q    Type
REMARK                         _______ _______ _______ _____ _____    ______ ____
ROOT
ATOM      1  C   UNL     1      46.242   5.612  12.665  0.00  0.00    +0.000 A 
ATOM      2  C   UNL     1      46.548   6.737  11.902  0.00  0.00    +0.000 A 
ATOM      3  C   UNL     1      47.738   7.422  12.132  0.00  0.00    +0.000 A 
ATOM      4  C   UNL     1      48.573   6.969  13.142  0.00  0.00    +0.000 A 
ATOM      5  N   UNL     1      48.281   5.907  13.946  0.00  0.00    +0.000 NA
ATOM      6  C   UNL     1      47.119   5.267  13.687  0.00  0.00    +0.000 A 
ENDROOT
BRANCH   4   7
ATOM      7  C   UNL     1      49.879   7.657  13.397  0.00  0.00    +0.000 C 
ATOM      8  N   UNL     1      50.749   7.682  12.343  0.00  0.00    +0.000 N 
ATOM      9  O   UNL     1      50.152   8.169  14.473  0.00  0.00    +0.000 OA
ATOM     10  H   UNL     1      50.491   7.242  11.465  0.00  0.00    +0.000 HD
ATOM     11  H   UNL     1      51.653   8.120  12.456  0.00  0.00    +0.000 HD
ENDBRANCH   4   7
BRANCH   1  12
ATOM     12  O   UNL     1      45.098   4.950  12.334  0.00  0.00    +0.000 OA
BRANCH  12  14
ATOM     13  C   UNL     1      42.917   5.299  11.262  0.00  0.00    +0.000 C 
ATOM     14  C   UNL     1      44.440   5.327  11.108  0.00  0.00    +0.000 C 
BRANCH  14  15
ATOM     15  C   UNL     1      44.881   4.335  10.046  0.00  0.00    +0.000 A 
ATOM     16  C   UNL     1      44.548   2.976  10.161  0.00  0.00    +0.000 A 
ATOM     17  C   UNL     1      44.885   2.078   9.147  0.00  0.00    +0.000 A 
ATOM     18  C   UNL     1      45.568   2.524   8.017  0.00  0.00    +0.000 A 
ATOM     19  C   UNL     1      45.943   3.861   7.913  0.00  0.00    +0.000 A 
ATOM     20  C   UNL     1      45.606   4.761   8.923  0.00  0.00    +0.000 A 
ENDBRANCH  14  15
ENDBRANCH  12  14
ENDBRANCH   1  12
TORSDOF 4
ENDMDL
MODEL 6
REMARK VINA RESULT:    -6.171      3.804      6.534
REMARK INTER + INTRA:          -8.222
REMARK INTER:                  -7.693
REMARK INTRA:                  -0.529
REMARK UNBOUND:                -0.608
REMARK  Name = 
REMARK  5 active torsions:
REMARK  status: ('A' for Active; 'I' for Inactive)
REMARK    1  A    between atoms: C_1  and  C_2
REMARK    2  A    between atoms: C_2  and  O_3
REMARK    3  A    between atoms: C_2  and  C_13
REMARK    4  A    between atoms: O_3  and  C_4
REMARK    5  A    between atoms: C_7  and  C_8
REMARK                            x       y       z     vdW  Elec       q    Type
REMARK                         _______ _______ _______ _____ _____    ______ ____
ROOT
ATOM      1  C   UNL     1      45.963   5.628  12.529  0.00  0.00    +0.000 A 
ATOM      2  C   UNL     1      47.131   5.441  13.267  0.00  0.00    +0.000 A 
ATOM      3  C   UNL     1      47.771   6.541  13.830  0.00  0.00    +0.000 A 
ATOM      4  C   UNL     1      47.231   7.800  13.612  0.00  0.00    +0.000 A 
ATOM      5  N   UNL     1      46.124   8.027  12.850  0.00  0.00    +0.000 NA
ATOM      6  C   UNL     1      45.529   6.932  12.325  0.00  0.00    +0.000 A 
ENDROOT
BRANCH   4   7
ATOM      7  C   UNL     1      47.871   9.005  14.231  0.00  0.00    +0.000 C 
ATOM      8  N   UNL     1      47.558   9.232  15.543  0.00  0.00    +0.000 N 
ATOM      9  O   UNL     1      48.627   9.738  13.611  0.00  0.00    +0.000 OA
ATOM     10  H   UNL     1      46.921   8.604  16.025  0.00  0.00    +0.000 HD
ATOM     11  H   UNL     1      47.947  10.036  16.014  0.00  0.00    +0.000 HD
ENDBRANCH   4   7
BRANCH   1  12
ATOM     12  O   UNL     1      45.351   4.499  12.071  0.00  0.00    +0.000 OA
BRANCH  12  14
ATOM     13  C   UNL     1      43.044   4.052  11.363  0.00  0.00    +0.000 C 
ATOM     14  C   UNL     1      44.407   4.642  10.993  0.00  0.00    +0.000 C 
BRANCH  14  15
ATOM     15  C   UNL     1      44.989   3.913   9.795  0.00  0.00    +0.000 A 
ATOM     16  C   UNL     1      45.618   4.629   8.764  0.00  0.00    +0.000 A 
ATOM     17  C   UNL     1      46.221   3.955   7.701  0.00  0.00    +0.000 A 
ATOM     18  C   UNL     1      46.191   2.562   7.651  0.00  0.00    +0.000 A 
ATOM     19  C   UNL     1      45.531   1.843   8.644  0.00  0.00    +0.000 A 
ATOM     20  C   UNL     1      44.929   2.513   9.707  0.00  0.00    +0.000 A 
ENDBRANCH  14  15
ENDBRANCH  12  14
ENDBRANCH   1  12
TORSDOF 4
ENDMDL
MODEL 7
REMARK VINA RESULT:    -5.960      3.036      6.159
REMARK INTER + INTRA:          -7.962
REMARK INTER:                  -7.350
REMARK INTRA:                  -0.612
REMARK UNBOUND:                -0.608
REMARK  Name = 
REMARK  5 active torsions:
REMARK  status: ('A' for Active; 'I' for Inactive)
REMARK    1  A    between atoms: C_1  and  C_2
REMARK    2  A    between atoms: C_2  and  O_3
REMARK    3  A    between atoms: C_2  and  C_13
REMARK    4  A    between atoms: O_3  and  C_4
REMARK    5  A    between atoms: C_7  and  C_8
REMARK                            x       y       z     vdW  Elec       q    Type
REMARK                         _______ _______ _______ _____ _____    ______ ____
ROOT
ATOM      1  C   UNL     1      44.951   4.631  10.680  0.00  0.00    +0.000 A 
ATOM      2  C   UNL     1      46.060   5.475  10.626  0.00  0.00    +0.000 A 
ATOM      3  C   UNL     1      45.922   6.813  10.982  0.00  0.00    +0.000 A 
ATOM      4  C   UNL     1      44.668   7.270  11.356  0.00  0.00    +0.000 A 
ATOM      5  N   UNL     1      43.550   6.489  11.366  0.00  0.00    +0.000 NA
ATOM      6  C   UNL     1      43.726   5.194  11.019  0.00  0.00    +0.000 A 
ENDROOT
BRANCH   4   7
ATOM      7  C   UNL     1      44.486   8.695  11.780  0.00  0.00    +0.000 C 
ATOM      8  N   UNL     1      45.126   9.054  12.934  0.00  0.00    +0.000 N 
ATOM      9  O   UNL     1      43.816   9.491  11.138  0.00  0.00    +0.000 OA
ATOM     10  H   UNL     1      45.670   8.365  13.445  0.00  0.00    +0.000 HD
ATOM     11  H   UNL     1      45.032   9.999  13.280  0.00  0.00    +0.000 HD
ENDBRANCH   4   7
BRANCH   1  12
ATOM     12  O   UNL     1      45.177   3.318  10.390  0.00  0.00    +0.000 OA
BRANCH  12  14
ATOM     13  C   UNL     1      43.880   1.436   9.496  0.00  0.00    +0.000 C 
ATOM     14  C   UNL     1      44.554   2.780   9.208  0.00  0.00    +0.000 C 
BRANCH  14  15
ATOM     15  C   UNL     1      45.648   2.608   8.170  0.00  0.00    +0.000 A 
ATOM     16  C   UNL     1      45.969   3.658   7.295  0.00  0.00    +0.000 A 
ATOM     17  C   UNL     1      47.026   3.528   6.393  0.00  0.00    +0.000 A 
ATOM     18  C   UNL     1      47.764   2.347   6.347  0.00  0.00    +0.000 A 
ATOM     19  C   UNL     1      47.427   1.283   7.179  0.00  0.00    +0.000 A 
ATOM     20  C   UNL     1      46.373   1.409   8.081  0.00  0.00    +0.000 A 
ENDBRANCH  14  15
ENDBRANCH  12  14
ENDBRANCH   1  12
TORSDOF 4
ENDMDL
MODEL 8
REMARK VINA RESULT:    -5.655      3.164      5.285
REMARK INTER + INTRA:          -7.585
REMARK INTER:                  -6.995
REMARK INTRA:                  -0.590
REMARK UNBOUND:                -0.608
REMARK  Name = 
REMARK  5 active torsions:
REMARK  status: ('A' for Active; 'I' for Inactive)
REMARK    1  A    between atoms: C_1  and  C_2
REMARK    2  A    between atoms: C_2  and  O_3
REMARK    3  A    between atoms: C_2  and  C_13
REMARK    4  A    between atoms: O_3  and  C_4
REMARK    5  A    between atoms: C_7  and  C_8
REMARK                            x       y       z     vdW  Elec       q    Type
REMARK                         _______ _______ _______ _____ _____    ______ ____
ROOT
ATOM      1  C   UNL     1      46.289   5.961  12.739  0.00  0.00    +0.000 A 
ATOM      2  C   UNL     1      45.962   6.043  11.386  0.00  0.00    +0.000 A 
ATOM      3  C   UNL     1      45.209   5.032  10.798  0.00  0.00    +0.000 A 
ATOM      4  C   UNL     1      44.829   3.953  11.582  0.00  0.00    +0.000 A 
ATOM      5  N   UNL     1      45.177   3.809  12.892  0.00  0.00    +0.000 NA
ATOM      6  C   UNL     1      45.905   4.816  13.427  0.00  0.00    +0.000 A 
ENDROOT
BRANCH   4   7
ATOM      7  C   UNL     1      43.988   2.861  10.994  0.00  0.00    +0.000 C 
ATOM      8  N   UNL     1      44.473   2.292   9.850  0.00  0.00    +0.000 N 
ATOM      9  O   UNL     1      42.938   2.496  11.503  0.00  0.00    +0.000 OA
ATOM     10  H   UNL     1      45.346   2.625   9.452  0.00  0.00    +0.000 HD
ATOM     11  H   UNL     1      43.945   1.559   9.397  0.00  0.00    +0.000 HD
ENDBRANCH   4   7
BRANCH   1  12
ATOM     12  O   UNL     1      46.963   7.023  13.263  0.00  0.00    +0.000 OA
BRANCH  12  14
ATOM     13  C   UNL     1      49.006   7.028  14.624  0.00  0.00    +0.000 C 
ATOM     14  C   UNL     1      48.403   6.987  13.218  0.00  0.00    +0.000 C 
BRANCH  14  15
ATOM     15  C   UNL     1      48.850   8.196  12.417  0.00  0.00    +0.000 A 
ATOM     16  C   UNL     1      47.954   9.243  12.149  0.00  0.00    +0.000 A 
ATOM     17  C   UNL     1      48.385  10.390  11.480  0.00  0.00    +0.000 A 
ATOM     18  C   UNL     1      49.710  10.497  11.062  0.00  0.00    +0.000 A 
ATOM     19  C   UNL     1      50.598   9.447  11.282  0.00  0.00    +0.000 A 
ATOM     20  C   UNL     1      50.170   8.301  11.950  0.00  0.00    +0.000 A 
ENDBRANCH  14  15
ENDBRANCH  12  14
ENDBRANCH   1  12
TORSDOF 4
ENDMDL
MODEL 9
REMARK VINA RESULT:    -5.643      4.359      6.398
REMARK INTER + INTRA:          -7.571
REMARK INTER:                  -7.129
REMARK INTRA:                  -0.442
REMARK UNBOUND:                -0.608
REMARK  Name = 
REMARK  5 active torsions:
REMARK  status: ('A' for Active; 'I' for Inactive)
REMARK    1  A    between atoms: C_1  and  C_2
REMARK    2  A    between atoms: C_2  and  O_3
REMARK    3  A    between atoms: C_2  and  C_13
REMARK    4  A    between atoms: O_3  and  C_4
REMARK    5  A    between atoms: C_7  and  C_8
REMARK                            x       y       z     vdW  Elec       q    Type
REMARK                         _______ _______ _______ _____ _____    ______ ____
ROOT
ATOM      1  C   UNL     1      46.898   5.578  13.469  0.00  0.00    +0.000 A 
ATOM      2  C   UNL     1      46.604   6.799  12.864  0.00  0.00    +0.000 A 
ATOM      3  C   UNL     1      45.366   6.983  12.255  0.00  0.00    +0.000 A 
ATOM      4  C   UNL     1      44.471   5.924  12.249  0.00  0.00    +0.000 A 
ATOM      5  N   UNL     1      44.745   4.699  12.780  0.00  0.00    +0.000 NA
ATOM      6  C   UNL     1      45.955   4.562  13.366  0.00  0.00    +0.000 A 
ENDROOT
BRANCH   4   7
ATOM      7  C   UNL     1      43.116   6.095  11.634  0.00  0.00    +0.000 C 
ATOM      8  N   UNL     1      42.882   7.307  11.046  0.00  0.00    +0.000 N 
ATOM      9  O   UNL     1      42.272   5.211  11.649  0.00  0.00    +0.000 OA
ATOM     10  H   UNL     1      43.604   8.021  11.057  0.00  0.00    +0.000 HD
ATOM     11  H   UNL     1      41.981   7.489  10.625  0.00  0.00    +0.000 HD
ENDBRANCH   4   7
BRANCH   1  12
ATOM     12  O   UNL     1      48.098   5.495  14.111  0.00  0.00    +0.000 OA
BRANCH  12  14
ATOM     13  C   UNL     1      49.481   7.059  15.402  0.00  0.00    +0.000 C 
ATOM     14  C   UNL     1      48.229   6.179  15.372  0.00  0.00    +0.000 C 
BRANCH  14  15
ATOM     15  C   UNL     1      48.309   5.112  16.448  0.00  0.00    +0.000 A 
ATOM     16  C   UNL     1      47.241   4.224  16.651  0.00  0.00    +0.000 A 
ATOM     17  C   UNL     1      47.345   3.194  17.586  0.00  0.00    +0.000 A 
ATOM     18  C   UNL     1      48.510   3.048  18.337  0.00  0.00    +0.000 A 
ATOM     19  C   UNL     1      49.560   3.949  18.177  0.00  0.00    +0.000 A 
ATOM     20  C   UNL     1      49.459   4.978  17.243  0.00  0.00    +0.000 A 
ENDBRANCH  14  15
ENDBRANCH  12  14
ENDBRANCH   1  12
TORSDOF 4
ENDMDL
