MODEL 1
REMARK VINA RESULT:    -8.256      0.000      0.000
REMARK INTER + INTRA:         -11.835
REMARK INTER:                 -10.910
REMARK INTRA:                  -0.925
REMARK UNBOUND:                -0.925
REMARK  Name = 
REMARK  6 active torsions:
REMARK  status: ('A' for Active; 'I' for Inactive)
REMARK    1  A    between atoms: N_1  and  C_2
REMARK    2  A    between atoms: C_2  and  C_3
REMARK    3  A    between atoms: C_3  and  C_4
REMARK    4  A    between atoms: C_8  and  C_9
REMARK    5  A    between atoms: C_9  and  N_10
REMARK    6  A    between atoms: C_15  and  C_16
REMARK                            x       y       z     vdW  Elec       q    Type
REMARK                         _______ _______ _______ _____ _____    ______ ____
ROOT
ATOM      1  N   UNL     1      43.671   4.366  10.437  0.00  0.00    +0.000 N 
ATOM      2  N   UNL     1      43.042   3.333  11.052  0.00  0.00    +0.000 NA
ATOM      3  N   UNL     1      43.657   2.216  10.688  0.00  0.00    +0.000 NA
ATOM      4  C   UNL     1      44.541   2.528   9.694  0.00  0.00    +0.000 A 
ATOM      5  C   UNL     1      45.464   1.722   9.014  0.00  0.00    +0.000 A 
ATOM      6  C   UNL     1      46.218   2.282   7.965  0.00  0.00    +0.000 A 
ATOM      7  C   UNL     1      46.014   3.625   7.605  0.00  0.00    +0.000 A 
ATOM      8  C   UNL     1      45.145   4.465   8.329  0.00  0.00    +0.000 A 
ATOM      9  C   UNL     1      44.452   3.882   9.396  0.00  0.00    +0.000 A 
ENDROOT
BRANCH   6  10
ATOM     10  C   UNL     1      47.217   1.383   7.316  0.00  0.00    +0.000 C 
ATOM     11  N   UNL     1      48.283   1.935   6.655  0.00  0.00    +0.000 N 
ATOM     12  O   UNL     1      47.115   0.165   7.379  0.00  0.00    +0.000 OA
ATOM     13  H   UNL     1      48.437   2.925   6.516  0.00  0.00    +0.000 HD
ATOM     14  H   UNL     1      48.932   1.287   6.234  0.00  0.00    +0.000 HD
ENDBRANCH   6  10
BRANCH   1  15
ATOM     15  C   UNL     1      44.036   5.492  11.296  0.00  0.00    +0.000 C 
BRANCH  15  20
ATOM     16  C   UNL     1      47.580   6.671  12.067  0.00  0.00    +0.000 A 
ATOM     17  C   UNL     1      47.899   5.851  13.158  0.00  0.00    +0.000 A 
ATOM     18  C   UNL     1      47.004   4.875  13.588  0.00  0.00    +0.000 A 
ATOM     19  C   UNL     1      45.779   4.713  12.939  0.00  0.00    +0.000 A 
ATOM     20  C   UNL     1      45.441   5.514  11.836  0.00  0.00    +0.000 A 
ATOM     21  C   UNL     1      46.361   6.478  11.397  0.00  0.00    +0.000 A 
BRANCH  16  22
ATOM     22  C   UNL     1      48.509   7.784  11.643  0.00  0.00    +0.000 C 
BRANCH  22  23
ATOM     23  C   UNL     1      49.867   7.701  12.344  0.00  0.00    +0.000 C 
BRANCH  23  24
ATOM     24  N   UNL     1      50.917   7.295  11.409  0.00  0.00    +0.000 NA
ATOM     25  H   UNL     1      51.398   8.125  11.064  0.00  0.00    +0.000 HD
ATOM     26  H   UNL     1      50.502   6.844  10.594  0.00  0.00    +0.000 HD
ENDBRANCH  23  24
ENDBRANCH  22  23
ENDBRANCH  16  22
ENDBRANCH  15  20
ENDBRANCH   1  15
TORSDOF 6
ENDMDL
MODEL 2
REMARK VINA RESULT:    -8.083      1.810      2.613
REMARK INTER + INTRA:         -11.606
REMARK INTER:                 -10.875
REMARK INTRA:                  -0.732
REMARK UNBOUND:                -0.925
REMARK  Name = 
REMARK  6 active torsions:
REMARK  status: ('A' for Active; 'I' for Inactive)
REMARK    1  A    between atoms: N_1  and  C_2
REMARK    2  A    between atoms: C_2  and  C_3
REMARK    3  A    between atoms: C_3  and  C_4
REMARK    4  A    between atoms: C_8  and  C_9
REMARK    5  A    between atoms: C_9  and  N_10
REMARK    6  A    between atoms: C_15  and  C_16
REMARK                            x       y       z     vdW  Elec       q    Type
REMARK                         _______ _______ _______ _____ _____    ______ ____
ROOT
ATOM      1  N   UNL     1      43.420   4.635  10.580  0.00  0.00    +0.000 N 
ATOM      2  N   UNL     1      42.854   3.690  11.372  0.00  0.00    +0.000 NA
ATOM      3  N   UNL     1      43.483   2.546  11.141  0.00  0.00    +0.000 NA
ATOM      4  C   UNL     1      44.306   2.728  10.067  0.00  0.00    +0.000 A 
ATOM      5  C   UNL     1      45.218   1.853   9.463  0.00  0.00    +0.000 A 
ATOM      6  C   UNL     1      45.902   2.269   8.305  0.00  0.00    +0.000 A 
ATOM      7  C   UNL     1      45.641   3.540   7.765  0.00  0.00    +0.000 A 
ATOM      8  C   UNL     1      44.784   4.458   8.405  0.00  0.00    +0.000 A 
ATOM      9  C   UNL     1      44.162   4.022   9.581  0.00  0.00    +0.000 A 
ENDROOT
BRANCH   6  10
ATOM     10  C   UNL     1      46.894   1.307   7.741  0.00  0.00    +0.000 C 
ATOM     11  N   UNL     1      47.969   1.789   7.041  0.00  0.00    +0.000 N 
ATOM     12  O   UNL     1      46.778   0.100   7.908  0.00  0.00    +0.000 OA
ATOM     13  H   UNL     1      48.135   2.761   6.819  0.00  0.00    +0.000 HD
ATOM     14  H   UNL     1      48.613   1.100   6.681  0.00  0.00    +0.000 HD
ENDBRANCH   6  10
BRANCH   1  15
ATOM     15  C   UNL     1      43.793   5.884  11.245  0.00  0.00    +0.000 C 
BRANCH  15  20
ATOM     16  C   UNL     1      46.667   4.807  13.509  0.00  0.00    +0.000 A 
ATOM     17  C   UNL     1      47.698   5.629  13.037  0.00  0.00    +0.000 A 
ATOM     18  C   UNL     1      47.443   6.575  12.047  0.00  0.00    +0.000 A 
ATOM     19  C   UNL     1      46.159   6.705  11.515  0.00  0.00    +0.000 A 
ATOM     20  C   UNL     1      45.106   5.901  11.981  0.00  0.00    +0.000 A 
ATOM     21  C   UNL     1      45.370   4.968  12.994  0.00  0.00    +0.000 A 
BRANCH  16  22
ATOM     22  C   UNL     1      46.950   3.725  14.525  0.00  0.00    +0.000 C 
BRANCH  22  23
ATOM     23  C   UNL     1      47.146   4.291  15.933  0.00  0.00    +0.000 C 
BRANCH  23  24
ATOM     24  N   UNL     1      46.771   3.310  16.951  0.00  0.00    +0.000 NA
ATOM     25  H   UNL     1      46.244   3.776  17.688  0.00  0.00    +0.000 HD
ATOM     26  H   UNL     1      47.607   2.929  17.393  0.00  0.00    +0.000 HD
ENDBRANCH  23  24
ENDBRANCH  22  23
ENDBRANCH  16  22
ENDBRANCH  15  20
ENDBRANCH   1  15
TORSDOF 6
ENDMDL
MODEL 3
REMARK VINA RESULT:    -7.496      2.144      3.303
REMARK INTER + INTRA:         -10.831
REMARK INTER:                 -10.219
REMARK INTRA:                  -0.613
REMARK UNBOUND:                -0.925
REMARK  Name = 
REMARK  6 active torsions:
REMARK  status: ('A' for Active; 'I' for Inactive)
REMARK    1  A    between atoms: N_1  and  C_2
REMARK    2  A    between atoms: C_2  and  C_3
REMARK    3  A    between atoms: C_3  and  C_4
REMARK    4  A    between atoms: C_8  and  C_9
REMARK    5  A    between atoms: C_9  and  N_10
REMARK    6  A    between atoms: C_15  and  C_16
REMARK                            x       y       z     vdW  Elec       q    Type
REMARK                         _______ _______ _______ _____ _____    ______ ____
ROOT
ATOM      1  N   UNL     1      44.186   4.293  10.753  0.00  0.00    +0.000 N 
ATOM      2  N   UNL     1      43.344   3.255  10.984  0.00  0.00    +0.000 NA
ATOM      3  N   UNL     1      43.773   2.224  10.269  0.00  0.00    +0.000 NA
ATOM      4  C   UNL     1      44.762   2.670   9.440  0.00  0.00    +0.000 A 
ATOM      5  C   UNL     1      45.570   1.973   8.532  0.00  0.00    +0.000 A 
ATOM      6  C   UNL     1      46.481   2.691   7.735  0.00  0.00    +0.000 A 
ATOM      7  C   UNL     1      46.544   4.091   7.845  0.00  0.00    +0.000 A 
ATOM      8  C   UNL     1      45.792   4.796   8.806  0.00  0.00    +0.000 A 
ATOM      9  C   UNL     1      44.936   4.038   9.613  0.00  0.00    +0.000 A 
ENDROOT
BRANCH   6  10
ATOM     10  C   UNL     1      47.345   1.882   6.825  0.00  0.00    +0.000 C 
ATOM     11  N   UNL     1      48.399   2.488   6.192  0.00  0.00    +0.000 N 
ATOM     12  O   UNL     1      47.143   0.689   6.650  0.00  0.00    +0.000 OA
ATOM     13  H   UNL     1      48.626   3.472   6.243  0.00  0.00    +0.000 HD
ATOM     14  H   UNL     1      48.955   1.900   5.589  0.00  0.00    +0.000 HD
ENDBRANCH   6  10
BRANCH   1  15
ATOM     15  C   UNL     1      44.688   4.984  11.941  0.00  0.00    +0.000 C 
BRANCH  15  20
ATOM     16  C   UNL     1      44.817   8.761  11.435  0.00  0.00    +0.000 A 
ATOM     17  C   UNL     1      46.134   9.035  11.825  0.00  0.00    +0.000 A 
ATOM     18  C   UNL     1      46.993   7.996  12.174  0.00  0.00    +0.000 A 
ATOM     19  C   UNL     1      46.543   6.675  12.145  0.00  0.00    +0.000 A 
ATOM     20  C   UNL     1      45.231   6.374  11.746  0.00  0.00    +0.000 A 
ATOM     21  C   UNL     1      44.383   7.427  11.373  0.00  0.00    +0.000 A 
BRANCH  16  22
ATOM     22  C   UNL     1      43.855   9.886  11.130  0.00  0.00    +0.000 C 
BRANCH  22  23
ATOM     23  C   UNL     1      42.497   9.371  10.650  0.00  0.00    +0.000 C 
BRANCH  23  24
ATOM     24  N   UNL     1      41.404  10.007  11.386  0.00  0.00    +0.000 NA
ATOM     25  H   UNL     1      41.621   9.999  12.382  0.00  0.00    +0.000 HD
ATOM     26  H   UNL     1      40.547   9.464  11.275  0.00  0.00    +0.000 HD
ENDBRANCH  23  24
ENDBRANCH  22  23
ENDBRANCH  16  22
ENDBRANCH  15  20
ENDBRANCH   1  15
TORSDOF 6
ENDMDL
MODEL 4
REMARK VINA RESULT:    -7.414      2.602      6.201
REMARK INTER + INTRA:         -10.723
REMARK INTER:                 -10.225
REMARK INTRA:                  -0.498
REMARK UNBOUND:                -0.925
REMARK  Name = 
REMARK  6 active torsions:
REMARK  status: ('A' for Active; 'I' for Inactive)
REMARK    1  A    between atoms: N_1  and  C_2
REMARK    2  A    between atoms: C_2  and  C_3
REMARK    3  A    between atoms: C_3  and  C_4
REMARK    4  A    between atoms: C_8  and  C_9
REMARK    5  A    between atoms: C_9  and  N_10
REMARK    6  A    between atoms: C_15  and  C_16
REMARK                            x       y       z     vdW  Elec       q    Type
REMARK                         _______ _______ _______ _____ _____    ______ ____
ROOT
ATOM      1  N   UNL     1      43.670   3.785  12.059  0.00  0.00    +0.000 N 
ATOM      2  N   UNL     1      42.590   4.605  12.042  0.00  0.00    +0.000 NA
ATOM      3  N   UNL     1      43.022   5.841  12.254  0.00  0.00    +0.000 NA
ATOM      4  C   UNL     1      44.342   5.771  12.599  0.00  0.00    +0.000 A 
ATOM      5  C   UNL     1      45.266   6.790  12.868  0.00  0.00    +0.000 A 
ATOM      6  C   UNL     1      46.567   6.443  13.278  0.00  0.00    +0.000 A 
ATOM      7  C   UNL     1      46.906   5.088  13.435  0.00  0.00    +0.000 A 
ATOM      8  C   UNL     1      46.011   4.053  13.095  0.00  0.00    +0.000 A 
ATOM      9  C   UNL     1      44.744   4.442  12.644  0.00  0.00    +0.000 A 
ENDROOT
BRANCH   6  10
ATOM     10  C   UNL     1      47.514   7.575  13.501  0.00  0.00    +0.000 C 
ATOM     11  N   UNL     1      47.107   8.649  14.247  0.00  0.00    +0.000 N 
ATOM     12  O   UNL     1      48.651   7.553  13.048  0.00  0.00    +0.000 OA
ATOM     13  H   UNL     1      46.181   8.778  14.632  0.00  0.00    +0.000 HD
ATOM     14  H   UNL     1      47.782   9.389  14.371  0.00  0.00    +0.000 HD
ENDBRANCH   6  10
BRANCH   1  15
ATOM     15  C   UNL     1      43.778   2.849  10.939  0.00  0.00    +0.000 C 
BRANCH  15  20
ATOM     16  C   UNL     1      46.228   2.390   8.053  0.00  0.00    +0.000 A 
ATOM     17  C   UNL     1      46.374   3.713   7.617  0.00  0.00    +0.000 A 
ATOM     18  C   UNL     1      45.745   4.751   8.301  0.00  0.00    +0.000 A 
ATOM     19  C   UNL     1      44.958   4.476   9.421  0.00  0.00    +0.000 A 
ATOM     20  C   UNL     1      44.806   3.160   9.885  0.00  0.00    +0.000 A 
ATOM     21  C   UNL     1      45.464   2.126   9.202  0.00  0.00    +0.000 A 
BRANCH  16  22
ATOM     22  C   UNL     1      46.841   1.251   7.273  0.00  0.00    +0.000 C 
BRANCH  22  23
ATOM     23  C   UNL     1      47.165   1.647   5.831  0.00  0.00    +0.000 C 
BRANCH  23  24
ATOM     24  N   UNL     1      48.606   1.815   5.643  0.00  0.00    +0.000 NA
ATOM     25  H   UNL     1      48.918   1.214   4.881  0.00  0.00    +0.000 HD
ATOM     26  H   UNL     1      49.105   1.503   6.476  0.00  0.00    +0.000 HD
ENDBRANCH  23  24
ENDBRANCH  22  23
ENDBRANCH  16  22
ENDBRANCH  15  20
ENDBRANCH   1  15
TORSDOF 6
ENDMDL
MODEL 5
REMARK VINA RESULT:    -6.686      1.859      2.090
REMARK INTER + INTRA:          -9.760
REMARK INTER:                  -9.376
REMARK INTRA:                  -0.384
REMARK UNBOUND:                -0.925
REMARK  Name = 
REMARK  6 active torsions:
REMARK  status: ('A' for Active; 'I' for Inactive)
REMARK    1  A    between atoms: N_1  and  C_2
REMARK    2  A    between atoms: C_2  and  C_3
REMARK    3  A    between atoms: C_3  and  C_4
REMARK    4  A    between atoms: C_8  and  C_9
REMARK    5  A    between atoms: C_9  and  N_10
REMARK    6  A    between atoms: C_15  and  C_16
REMARK                            x       y       z     vdW  Elec       q    Type
REMARK                         _______ _______ _______ _____ _____    ______ ____
ROOT
ATOM      1  N   UNL     1      43.829   3.990  11.726  0.00  0.00    +0.000 N 
ATOM      2  N   UNL     1      43.054   2.880  11.809  0.00  0.00    +0.000 NA
ATOM      3  N   UNL     1      43.430   2.056  10.841  0.00  0.00    +0.000 NA
ATOM      4  C   UNL     1      44.302   2.727  10.033  0.00  0.00    +0.000 A 
ATOM      5  C   UNL     1      45.022   2.291   8.912  0.00  0.00    +0.000 A 
ATOM      6  C   UNL     1      45.810   3.217   8.202  0.00  0.00    +0.000 A 
ATOM      7  C   UNL     1      45.840   4.560   8.613  0.00  0.00    +0.000 A 
ATOM      8  C   UNL     1      45.182   4.996   9.781  0.00  0.00    +0.000 A 
ATOM      9  C   UNL     1      44.450   4.033  10.486  0.00  0.00    +0.000 A 
ENDROOT
BRANCH   6  10
ATOM     10  C   UNL     1      46.588   2.676   7.049  0.00  0.00    +0.000 C 
ATOM     11  N   UNL     1      47.039   3.538   6.085  0.00  0.00    +0.000 N 
ATOM     12  O   UNL     1      46.848   1.484   6.959  0.00  0.00    +0.000 OA
ATOM     13  H   UNL     1      46.847   4.530   6.050  0.00  0.00    +0.000 HD
ATOM     14  H   UNL     1      47.562   3.126   5.326  0.00  0.00    +0.000 HD
ENDBRANCH   6  10
BRANCH   1  15
ATOM     15  C   UNL     1      44.443   4.434  12.978  0.00  0.00    +0.000 C 
BRANCH  15  20
ATOM     16  C   UNL     1      46.100   7.865  12.845  0.00  0.00    +0.000 A 
ATOM     17  C   UNL     1      47.425   7.532  13.155  0.00  0.00    +0.000 A 
ATOM     18  C   UNL     1      47.790   6.199  13.330  0.00  0.00    +0.000 A 
ATOM     19  C   UNL     1      46.835   5.188  13.204  0.00  0.00    +0.000 A 
ATOM     20  C   UNL     1      45.504   5.497  12.881  0.00  0.00    +0.000 A 
ATOM     21  C   UNL     1      45.153   6.840  12.685  0.00  0.00    +0.000 A 
BRANCH  16  22
ATOM     22  C   UNL     1      45.678   9.312  12.731  0.00  0.00    +0.000 C 
BRANCH  22  23
ATOM     23  C   UNL     1      46.714  10.160  11.990  0.00  0.00    +0.000 C 
BRANCH  23  24
ATOM     24  N   UNL     1      47.298  11.167  12.876  0.00  0.00    +0.000 NA
ATOM     25  H   UNL     1      47.527  11.999  12.333  0.00  0.00    +0.000 HD
ATOM     26  H   UNL     1      48.179  10.824  13.260  0.00  0.00    +0.000 HD
ENDBRANCH  23  24
ENDBRANCH  22  23
ENDBRANCH  16  22
ENDBRANCH  15  20
ENDBRANCH   1  15
TORSDOF 6
ENDMDL
MODEL 6
REMARK VINA RESULT:    -6.445      3.524      7.131
REMARK INTER + INTRA:          -9.442
REMARK INTER:                  -9.069
REMARK INTRA:                  -0.373
REMARK UNBOUND:                -0.925
REMARK  Name = 
REMARK  6 active torsions:
REMARK  status: ('A' for Active; 'I' for Inactive)
REMARK    1  A    between atoms: N_1  and  C_2
REMARK    2  A    between atoms: C_2  and  C_3
REMARK    3  A    between atoms: C_3  and  C_4
REMARK    4  A    between atoms: C_8  and  C_9
REMARK    5  A    between atoms: C_9  and  N_10
REMARK    6  A    between atoms: C_15  and  C_16
REMARK                            x       y       z     vdW  Elec       q    Type
REMARK                         _______ _______ _______ _____ _____    ______ ____
ROOT
ATOM      1  N   UNL     1      46.643   5.855  11.787  0.00  0.00    +0.000 N 
ATOM      2  N   UNL     1      46.350   5.120  12.889  0.00  0.00    +0.000 NA
ATOM      3  N   UNL     1      46.760   5.805  13.948  0.00  0.00    +0.000 NA
ATOM      4  C   UNL     1      47.485   6.873  13.502  0.00  0.00    +0.000 A 
ATOM      5  C   UNL     1      48.085   7.923  14.211  0.00  0.00    +0.000 A 
ATOM      6  C   UNL     1      48.848   8.875  13.508  0.00  0.00    +0.000 A 
ATOM      7  C   UNL     1      49.015   8.740  12.119  0.00  0.00    +0.000 A 
ATOM      8  C   UNL     1      48.355   7.734  11.385  0.00  0.00    +0.000 A 
ATOM      9  C   UNL     1      47.566   6.838  12.115  0.00  0.00    +0.000 A 
ENDROOT
BRANCH   6  10
ATOM     10  C   UNL     1      49.417   9.993  14.316  0.00  0.00    +0.000 C 
ATOM     11  N   UNL     1      48.578  10.962  14.800  0.00  0.00    +0.000 N 
ATOM     12  O   UNL     1      50.613  10.050  14.572  0.00  0.00    +0.000 OA
ATOM     13  H   UNL     1      47.586  11.024  14.615  0.00  0.00    +0.000 HD
ATOM     14  H   UNL     1      49.009  11.696  15.342  0.00  0.00    +0.000 HD
ENDBRANCH   6  10
BRANCH   1  15
ATOM     15  C   UNL     1      45.553   6.026  10.827  0.00  0.00    +0.000 C 
BRANCH  15  20
ATOM     16  C   UNL     1      45.857   3.496   7.991  0.00  0.00    +0.000 A 
ATOM     17  C   UNL     1      45.021   2.474   8.458  0.00  0.00    +0.000 A 
ATOM     18  C   UNL     1      44.307   2.637   9.642  0.00  0.00    +0.000 A 
ATOM     19  C   UNL     1      44.426   3.819  10.375  0.00  0.00    +0.000 A 
ATOM     20  C   UNL     1      45.249   4.863   9.921  0.00  0.00    +0.000 A 
ATOM     21  C   UNL     1      45.945   4.696   8.715  0.00  0.00    +0.000 A 
BRANCH  16  22
ATOM     22  C   UNL     1      46.696   3.297   6.750  0.00  0.00    +0.000 C 
BRANCH  22  23
ATOM     23  C   UNL     1      47.487   1.988   6.791  0.00  0.00    +0.000 C 
BRANCH  23  24
ATOM     24  N   UNL     1      48.444   1.918   5.686  0.00  0.00    +0.000 NA
ATOM     25  H   UNL     1      48.240   2.661   5.018  0.00  0.00    +0.000 HD
ATOM     26  H   UNL     1      48.330   1.039   5.181  0.00  0.00    +0.000 HD
ENDBRANCH  23  24
ENDBRANCH  22  23
ENDBRANCH  16  22
ENDBRANCH  15  20
ENDBRANCH   1  15
TORSDOF 6
ENDMDL
MODEL 7
REMARK VINA RESULT:    -6.348      3.130      5.085
REMARK INTER + INTRA:          -9.314
REMARK INTER:                  -8.897
REMARK INTRA:                  -0.417
REMARK UNBOUND:                -0.925
REMARK  Name = 
REMARK  6 active torsions:
REMARK  status: ('A' for Active; 'I' for Inactive)
REMARK    1  A    between atoms: N_1  and  C_2
REMARK    2  A    between atoms: C_2  and  C_3
REMARK    3  A    between atoms: C_3  and  C_4
REMARK    4  A    between atoms: C_8  and  C_9
REMARK    5  A    between atoms: C_9  and  N_10
REMARK    6  A    between atoms: C_15  and  C_16
REMARK                            x       y       z     vdW  Elec       q    Type
REMARK                         _______ _______ _______ _____ _____    ______ ____
ROOT
ATOM      1  N   UNL     1      47.735   6.355  13.196  0.00  0.00    +0.000 N 
ATOM      2  N   UNL     1      47.919   5.724  14.383  0.00  0.00    +0.000 NA
ATOM      3  N   UNL     1      47.240   4.586  14.341  0.00  0.00    +0.000 NA
ATOM      4  C   UNL     1      46.473   4.595  13.211  0.00  0.00    +0.000 A 
ATOM      5  C   UNL     1      45.624   3.615  12.681  0.00  0.00    +0.000 A 
ATOM      6  C   UNL     1      44.881   3.907  11.522  0.00  0.00    +0.000 A 
ATOM      7  C   UNL     1      44.985   5.179  10.935  0.00  0.00    +0.000 A 
ATOM      8  C   UNL     1      45.891   6.147  11.413  0.00  0.00    +0.000 A 
ATOM      9  C   UNL     1      46.647   5.798  12.538  0.00  0.00    +0.000 A 
ENDROOT
BRANCH   6  10
ATOM     10  C   UNL     1      44.034   2.802  10.983  0.00  0.00    +0.000 C 
ATOM     11  N   UNL     1      44.438   2.141   9.853  0.00  0.00    +0.000 N 
ATOM     12  O   UNL     1      43.000   2.462  11.541  0.00  0.00    +0.000 OA
ATOM     13  H   UNL     1      45.254   2.369   9.301  0.00  0.00    +0.000 HD
ATOM     14  H   UNL     1      43.834   1.401   9.528  0.00  0.00    +0.000 HD
ENDBRANCH   6  10
BRANCH   1  15
ATOM     15  C   UNL     1      48.947   6.838  12.536  0.00  0.00    +0.000 C 
BRANCH  15  20
ATOM     16  C   UNL     1      47.760  10.375  11.746  0.00  0.00    +0.000 A 
ATOM     17  C   UNL     1      48.951  10.959  11.294  0.00  0.00    +0.000 A 
ATOM     18  C   UNL     1      50.107  10.192  11.175  0.00  0.00    +0.000 A 
ATOM     19  C   UNL     1      50.088   8.837  11.512  0.00  0.00    +0.000 A 
ATOM     20  C   UNL     1      48.904   8.226  11.956  0.00  0.00    +0.000 A 
ATOM     21  C   UNL     1      47.740   9.004  12.050  0.00  0.00    +0.000 A 
BRANCH  16  22
ATOM     22  C   UNL     1      46.522  11.215  11.954  0.00  0.00    +0.000 C 
BRANCH  22  23
ATOM     23  C   UNL     1      45.259  10.522  11.439  0.00  0.00    +0.000 C 
BRANCH  23  24
ATOM     24  N   UNL     1      44.447  10.020  12.548  0.00  0.00    +0.000 NA
ATOM     25  H   UNL     1      45.027   9.946  13.382  0.00  0.00    +0.000 HD
ATOM     26  H   UNL     1      44.120   9.077  12.341  0.00  0.00    +0.000 HD
ENDBRANCH  23  24
ENDBRANCH  22  23
ENDBRANCH  16  22
ENDBRANCH  15  20
ENDBRANCH   1  15
TORSDOF 6
ENDMDL
MODEL 8
REMARK VINA RESULT:    -6.293      3.718      6.363
REMARK INTER + INTRA:          -9.241
REMARK INTER:                  -8.577
REMARK INTRA:                  -0.664
REMARK UNBOUND:                -0.925
REMARK  Name = 
REMARK  6 active torsions:
REMARK  status: ('A' for Active; 'I' for Inactive)
REMARK    1  A    between atoms: N_1  and  C_2
REMARK    2  A    between atoms: C_2  and  C_3
REMARK    3  A    between atoms: C_3  and  C_4
REMARK    4  A    between atoms: C_8  and  C_9
REMARK    5  A    between atoms: C_9  and  N_10
REMARK    6  A    between atoms: C_15  and  C_16
REMARK                            x       y       z     vdW  Elec       q    Type
REMARK                         _______ _______ _______ _____ _____    ______ ____
ROOT
ATOM      1  N   UNL     1      48.218   6.697  13.520  0.00  0.00    +0.000 N 
ATOM      2  N   UNL     1      48.666   7.325  12.405  0.00  0.00    +0.000 NA
ATOM      3  N   UNL     1      47.680   7.320  11.519  0.00  0.00    +0.000 NA
ATOM      4  C   UNL     1      46.685   6.520  12.002  0.00  0.00    +0.000 A 
ATOM      5  C   UNL     1      45.418   6.229  11.478  0.00  0.00    +0.000 A 
ATOM      6  C   UNL     1      44.597   5.302  12.147  0.00  0.00    +0.000 A 
ATOM      7  C   UNL     1      45.071   4.668  13.309  0.00  0.00    +0.000 A 
ATOM      8  C   UNL     1      46.311   5.007  13.887  0.00  0.00    +0.000 A 
ATOM      9  C   UNL     1      47.074   5.971  13.217  0.00  0.00    +0.000 A 
ENDROOT
BRANCH   6  10
ATOM     10  C   UNL     1      43.242   5.076  11.563  0.00  0.00    +0.000 C 
ATOM     11  N   UNL     1      42.293   6.057  11.679  0.00  0.00    +0.000 N 
ATOM     12  O   UNL     1      42.970   4.043  10.967  0.00  0.00    +0.000 OA
ATOM     13  H   UNL     1      42.407   6.927  12.181  0.00  0.00    +0.000 HD
ATOM     14  H   UNL     1      41.393   5.858  11.267  0.00  0.00    +0.000 HD
ENDBRANCH   6  10
BRANCH   1  15
ATOM     15  C   UNL     1      48.446   7.399  14.783  0.00  0.00    +0.000 C 
BRANCH  15  20
ATOM     16  C   UNL     1      49.519   4.779  17.337  0.00  0.00    +0.000 A 
ATOM     17  C   UNL     1      50.888   5.055  17.439  0.00  0.00    +0.000 A 
ATOM     18  C   UNL     1      51.441   6.129  16.746  0.00  0.00    +0.000 A 
ATOM     19  C   UNL     1      50.635   6.932  15.938  0.00  0.00    +0.000 A 
ATOM     20  C   UNL     1      49.257   6.683  15.828  0.00  0.00    +0.000 A 
ATOM     21  C   UNL     1      48.707   5.613  16.550  0.00  0.00    +0.000 A 
BRANCH  16  22
ATOM     22  C   UNL     1      48.924   3.571  18.022  0.00  0.00    +0.000 C 
BRANCH  22  23
ATOM     23  C   UNL     1      47.921   2.836  17.130  0.00  0.00    +0.000 C 
BRANCH  23  24
ATOM     24  N   UNL     1      46.566   2.933  17.673  0.00  0.00    +0.000 NA
ATOM     25  H   UNL     1      46.616   3.000  18.689  0.00  0.00    +0.000 HD
ATOM     26  H   UNL     1      46.046   2.080  17.468  0.00  0.00    +0.000 HD
ENDBRANCH  23  24
ENDBRANCH  22  23
ENDBRANCH  16  22
ENDBRANCH  15  20
ENDBRANCH   1  15
TORSDOF 6
ENDMDL
MODEL 9
REMARK VINA RESULT:    -6.131      4.665      7.673
REMARK INTER + INTRA:          -9.028
REMARK INTER:                  -8.828
REMARK INTRA:                  -0.200
REMARK UNBOUND:                -0.925
REMARK  Name = 
REMARK  6 active torsions:
REMARK  status: ('A' for Active; 'I' for Inactive)
REMARK    1  A    between atoms: N_1  and  C_2
REMARK    2  A    between atoms: C_2  and  C_3
REMARK    3  A    between atoms: C_3  and  C_4
REMARK    4  A    between atoms: C_8  and  C_9
REMARK    5  A    between atoms: C_9  and  N_10
REMARK    6  A    between atoms: C_15  and  C_16
REMARK                            x       y       z     vdW  Elec       q    Type
REMARK                         _______ _______ _______ _____ _____    ______ ____
ROOT
ATOM      1  N   UNL     1      47.390   5.258  13.840  0.00  0.00    +0.000 N 
ATOM      2  N   UNL     1      47.168   3.961  13.510  0.00  0.00    +0.000 NA
ATOM      3  N   UNL     1      47.230   3.247  14.625  0.00  0.00    +0.000 NA
ATOM      4  C   UNL     1      47.685   4.063  15.621  0.00  0.00    +0.000 A 
ATOM      5  C   UNL     1      47.874   3.811  16.987  0.00  0.00    +0.000 A 
ATOM      6  C   UNL     1      48.432   4.818  17.798  0.00  0.00    +0.000 A 
ATOM      7  C   UNL     1      48.811   6.041  17.220  0.00  0.00    +0.000 A 
ATOM      8  C   UNL     1      48.557   6.335  15.866  0.00  0.00    +0.000 A 
ATOM      9  C   UNL     1      47.955   5.325  15.106  0.00  0.00    +0.000 A 
ENDROOT
BRANCH   6  10
ATOM     10  C   UNL     1      48.560   4.501  19.251  0.00  0.00    +0.000 C 
ATOM     11  N   UNL     1      48.375   3.210  19.671  0.00  0.00    +0.000 N 
ATOM     12  O   UNL     1      48.846   5.365  20.069  0.00  0.00    +0.000 OA
ATOM     13  H   UNL     1      48.102   2.435  19.082  0.00  0.00    +0.000 HD
ATOM     14  H   UNL     1      48.474   3.044  20.662  0.00  0.00    +0.000 HD
ENDBRANCH   6  10
BRANCH   1  15
ATOM     15  C   UNL     1      46.432   6.225  13.306  0.00  0.00    +0.000 C 
BRANCH  15  20
ATOM     16  C   UNL     1      44.606   4.491  10.442  0.00  0.00    +0.000 A 
ATOM     17  C   UNL     1      43.354   4.261  11.028  0.00  0.00    +0.000 A 
ATOM     18  C   UNL     1      43.082   4.732  12.310  0.00  0.00    +0.000 A 
ATOM     19  C   UNL     1      44.059   5.430  13.022  0.00  0.00    +0.000 A 
ATOM     20  C   UNL     1      45.317   5.684  12.452  0.00  0.00    +0.000 A 
ATOM     21  C   UNL     1      45.571   5.225  11.151  0.00  0.00    +0.000 A 
BRANCH  16  22
ATOM     22  C   UNL     1      44.937   3.917   9.085  0.00  0.00    +0.000 C 
BRANCH  22  23
ATOM     23  C   UNL     1      44.508   2.453   8.956  0.00  0.00    +0.000 C 
BRANCH  23  24
ATOM     24  N   UNL     1      45.672   1.569   8.894  0.00  0.00    +0.000 NA
ATOM     25  H   UNL     1      46.437   1.984   9.424  0.00  0.00    +0.000 HD
ATOM     26  H   UNL     1      45.999   1.491   7.931  0.00  0.00    +0.000 HD
ENDBRANCH  23  24
ENDBRANCH  22  23
ENDBRANCH  16  22
ENDBRANCH  15  20
ENDBRANCH   1  15
TORSDOF 6
ENDMDL
