MODEL 1
REMARK VINA RESULT:    -8.335      0.000      0.000
REMARK INTER + INTRA:         -11.601
REMARK INTER:                 -10.772
REMARK INTRA:                  -0.829
REMARK UNBOUND:                -0.829
REMARK  Name = 
REMARK  5 active torsions:
REMARK  status: ('A' for Active; 'I' for Inactive)
REMARK    1  A    between atoms: C_2  and  C_3
REMARK    2  A    between atoms: C_6  and  N_7
REMARK    3  A    between atoms: N_7  and  C_8
REMARK    4  A    between atoms: C_8  and  C_9
REMARK    5  A    between atoms: C_13  and  C_14
REMARK                            x       y       z     vdW  Elec       q    Type
REMARK                         _______ _______ _______ _____ _____    ______ ____
ROOT
ATOM      1  C   UNL     1      43.898   5.019  11.131  0.00  0.00    +0.000 C 
ATOM      2  C   UNL     1      42.613   5.133  11.941  0.00  0.00    +0.000 C 
ATOM      3  C   UNL     1      43.017   6.240  11.025  0.00  0.00    +0.000 C 
ENDROOT
BRANCH   1   4
ATOM      4  C   UNL     1      45.239   5.126  11.837  0.00  0.00    +0.000 A 
ATOM      5  C   UNL     1      45.590   4.296  12.911  0.00  0.00    +0.000 A 
ATOM      6  C   UNL     1      46.721   4.560  13.681  0.00  0.00    +0.000 A 
ATOM      7  C   UNL     1      47.515   5.672  13.398  0.00  0.00    +0.000 A 
ATOM      8  C   UNL     1      47.214   6.528  12.326  0.00  0.00    +0.000 A 
ATOM      9  C   UNL     1      46.098   6.201  11.538  0.00  0.00    +0.000 A 
BRANCH   8  10
ATOM     10  C   UNL     1      47.960   7.784  12.091  0.00  0.00    +0.000 A 
ATOM     11  C   UNL     1      49.327   7.786  11.757  0.00  0.00    +0.000 A 
ATOM     12  C   UNL     1      50.006   8.975  11.471  0.00  0.00    +0.000 A 
ATOM     13  C   UNL     1      49.332  10.191  11.526  0.00  0.00    +0.000 A 
ATOM     14  C   UNL     1      47.982  10.220  11.855  0.00  0.00    +0.000 A 
ATOM     15  C   UNL     1      47.304   9.029  12.127  0.00  0.00    +0.000 A 
ENDBRANCH   8  10
ENDBRANCH   1   4
BRANCH   1  16
ATOM     16  N   UNL     1      43.862   3.884  10.189  0.00  0.00    +0.000 N 
ATOM     17  H   UNL     1      43.420   3.055  10.588  0.00  0.00    +0.000 HD
BRANCH  16  21
ATOM     18  C   UNL     1      46.684   2.609   7.480  0.00  0.00    +0.000 A 
ATOM     19  N   UNL     1      46.449   3.936   7.505  0.00  0.00    +0.000 NA
ATOM     20  C   UNL     1      45.548   4.354   8.425  0.00  0.00    +0.000 A 
ATOM     21  C   UNL     1      44.896   3.524   9.317  0.00  0.00    +0.000 A 
ATOM     22  C   UNL     1      45.237   2.184   9.178  0.00  0.00    +0.000 A 
ATOM     23  N   UNL     1      46.123   1.695   8.293  0.00  0.00    +0.000 NA
BRANCH  18  25
ATOM     24  N   UNL     1      48.320   1.706   5.676  0.00  0.00    +0.000 NA
ATOM     25  C   UNL     1      47.579   2.115   6.475  0.00  0.00    +0.000 C 
ENDBRANCH  18  25
ENDBRANCH  16  21
ENDBRANCH   1  16
TORSDOF 5
ENDMDL
MODEL 2
REMARK VINA RESULT:    -8.165      3.112      6.875
REMARK INTER + INTRA:         -11.381
REMARK INTER:                 -10.409
REMARK INTRA:                  -0.972
REMARK UNBOUND:                -0.829
REMARK  Name = 
REMARK  5 active torsions:
REMARK  status: ('A' for Active; 'I' for Inactive)
REMARK    1  A    between atoms: C_2  and  C_3
REMARK    2  A    between atoms: C_6  and  N_7
REMARK    3  A    between atoms: N_7  and  C_8
REMARK    4  A    between atoms: C_8  and  C_9
REMARK    5  A    between atoms: C_13  and  C_14
REMARK                            x       y       z     vdW  Elec       q    Type
REMARK                         _______ _______ _______ _____ _____    ______ ____
ROOT
ATOM      1  C   UNL     1      46.045   7.200  12.110  0.00  0.00    +0.000 C 
ATOM      2  C   UNL     1      46.266   8.634  11.645  0.00  0.00    +0.000 C 
ATOM      3  C   UNL     1      45.466   8.364  12.876  0.00  0.00    +0.000 C 
ENDROOT
BRANCH   1   4
ATOM      4  C   UNL     1      45.118   6.291  11.321  0.00  0.00    +0.000 A 
ATOM      5  C   UNL     1      43.790   6.057  11.706  0.00  0.00    +0.000 A 
ATOM      6  C   UNL     1      43.034   5.054  11.103  0.00  0.00    +0.000 A 
ATOM      7  C   UNL     1      43.602   4.254  10.110  0.00  0.00    +0.000 A 
ATOM      8  C   UNL     1      44.923   4.454   9.680  0.00  0.00    +0.000 A 
ATOM      9  C   UNL     1      45.638   5.509  10.271  0.00  0.00    +0.000 A 
BRANCH   8  10
ATOM     10  C   UNL     1      45.587   3.536   8.729  0.00  0.00    +0.000 A 
ATOM     11  C   UNL     1      46.351   4.009   7.647  0.00  0.00    +0.000 A 
ATOM     12  C   UNL     1      47.030   3.133   6.794  0.00  0.00    +0.000 A 
ATOM     13  C   UNL     1      46.947   1.759   6.998  0.00  0.00    +0.000 A 
ATOM     14  C   UNL     1      46.197   1.262   8.058  0.00  0.00    +0.000 A 
ATOM     15  C   UNL     1      45.532   2.142   8.916  0.00  0.00    +0.000 A 
ENDBRANCH   8  10
ENDBRANCH   1   4
BRANCH   1  16
ATOM     16  N   UNL     1      47.312   6.527  12.454  0.00  0.00    +0.000 N 
ATOM     17  H   UNL     1      47.811   6.183  11.633  0.00  0.00    +0.000 HD
BRANCH  16  21
ATOM     18  C   UNL     1      47.719   4.242  15.852  0.00  0.00    +0.000 A 
ATOM     19  N   UNL     1      47.068   3.659  14.824  0.00  0.00    +0.000 NA
ATOM     20  C   UNL     1      46.972   4.402  13.696  0.00  0.00    +0.000 A 
ATOM     21  C   UNL     1      47.502   5.669  13.544  0.00  0.00    +0.000 A 
ATOM     22  C   UNL     1      48.145   6.141  14.681  0.00  0.00    +0.000 A 
ATOM     23  N   UNL     1      48.284   5.463  15.834  0.00  0.00    +0.000 NA
BRANCH  18  25
ATOM     24  N   UNL     1      47.860   2.930  18.089  0.00  0.00    +0.000 NA
ATOM     25  C   UNL     1      47.784   3.519  17.088  0.00  0.00    +0.000 C 
ENDBRANCH  18  25
ENDBRANCH  16  21
ENDBRANCH   1  16
TORSDOF 5
ENDMDL
MODEL 3
REMARK VINA RESULT:    -7.265      1.839      3.840
REMARK INTER + INTRA:         -10.217
REMARK INTER:                 -10.570
REMARK INTRA:                   0.353
REMARK UNBOUND:                -0.829
REMARK  Name = 
REMARK  5 active torsions:
REMARK  status: ('A' for Active; 'I' for Inactive)
REMARK    1  A    between atoms: C_2  and  C_3
REMARK    2  A    between atoms: C_6  and  N_7
REMARK    3  A    between atoms: N_7  and  C_8
REMARK    4  A    between atoms: C_8  and  C_9
REMARK    5  A    between atoms: C_13  and  C_14
REMARK                            x       y       z     vdW  Elec       q    Type
REMARK                         _______ _______ _______ _____ _____    ______ ____
ROOT
ATOM      1  C   UNL     1      44.079   4.787  11.781  0.00  0.00    +0.000 C 
ATOM      2  C   UNL     1      43.660   3.427  12.325  0.00  0.00    +0.000 C 
ATOM      3  C   UNL     1      42.890   4.650  12.701  0.00  0.00    +0.000 C 
ENDROOT
BRANCH   1   4
ATOM      4  C   UNL     1      45.350   5.441  12.298  0.00  0.00    +0.000 A 
ATOM      5  C   UNL     1      46.163   6.244  11.486  0.00  0.00    +0.000 A 
ATOM      6  C   UNL     1      47.429   6.644  11.911  0.00  0.00    +0.000 A 
ATOM      7  C   UNL     1      47.910   6.232  13.155  0.00  0.00    +0.000 A 
ATOM      8  C   UNL     1      47.131   5.437  14.010  0.00  0.00    +0.000 A 
ATOM      9  C   UNL     1      45.839   5.098  13.573  0.00  0.00    +0.000 A 
BRANCH   8  10
ATOM     10  C   UNL     1      47.669   4.877  15.269  0.00  0.00    +0.000 A 
ATOM     11  C   UNL     1      48.352   5.674  16.206  0.00  0.00    +0.000 A 
ATOM     12  C   UNL     1      48.798   5.149  17.423  0.00  0.00    +0.000 A 
ATOM     13  C   UNL     1      48.581   3.808  17.724  0.00  0.00    +0.000 A 
ATOM     14  C   UNL     1      47.912   2.996  16.817  0.00  0.00    +0.000 A 
ATOM     15  C   UNL     1      47.455   3.527  15.608  0.00  0.00    +0.000 A 
ENDBRANCH   8  10
ENDBRANCH   1   4
BRANCH   1  16
ATOM     16  N   UNL     1      43.988   4.848  10.309  0.00  0.00    +0.000 N 
ATOM     17  H   UNL     1      43.032   4.978   9.980  0.00  0.00    +0.000 HD
BRANCH  16  21
ATOM     18  C   UNL     1      46.401   2.661   7.795  0.00  0.00    +0.000 A 
ATOM     19  N   UNL     1      45.666   1.949   8.674  0.00  0.00    +0.000 NA
ATOM     20  C   UNL     1      44.845   2.672   9.472  0.00  0.00    +0.000 A 
ATOM     21  C   UNL     1      44.714   4.046   9.421  0.00  0.00    +0.000 A 
ATOM     22  C   UNL     1      45.529   4.647   8.469  0.00  0.00    +0.000 A 
ATOM     23  N   UNL     1      46.365   3.996   7.640  0.00  0.00    +0.000 NA
BRANCH  18  25
ATOM     24  N   UNL     1      48.075   1.342   6.310  0.00  0.00    +0.000 NA
ATOM     25  C   UNL     1      47.334   1.941   6.979  0.00  0.00    +0.000 C 
ENDBRANCH  18  25
ENDBRANCH  16  21
ENDBRANCH   1  16
TORSDOF 5
ENDMDL
MODEL 4
REMARK VINA RESULT:    -7.070      3.639      7.060
REMARK INTER + INTRA:          -9.966
REMARK INTER:                  -9.199
REMARK INTRA:                  -0.767
REMARK UNBOUND:                -0.829
REMARK  Name = 
REMARK  5 active torsions:
REMARK  status: ('A' for Active; 'I' for Inactive)
REMARK    1  A    between atoms: C_2  and  C_3
REMARK    2  A    between atoms: C_6  and  N_7
REMARK    3  A    between atoms: N_7  and  C_8
REMARK    4  A    between atoms: C_8  and  C_9
REMARK    5  A    between atoms: C_13  and  C_14
REMARK                            x       y       z     vdW  Elec       q    Type
REMARK                         _______ _______ _______ _____ _____    ______ ____
ROOT
ATOM      1  C   UNL     1      45.824   7.358  11.869  0.00  0.00    +0.000 C 
ATOM      2  C   UNL     1      45.598   8.799  11.430  0.00  0.00    +0.000 C 
ATOM      3  C   UNL     1      45.191   8.364  12.799  0.00  0.00    +0.000 C 
ENDROOT
BRANCH   1   4
ATOM      4  C   UNL     1      44.970   6.251  11.275  0.00  0.00    +0.000 A 
ATOM      5  C   UNL     1      43.772   5.827  11.869  0.00  0.00    +0.000 A 
ATOM      6  C   UNL     1      43.128   4.669  11.436  0.00  0.00    +0.000 A 
ATOM      7  C   UNL     1      43.682   3.905  10.408  0.00  0.00    +0.000 A 
ATOM      8  C   UNL     1      44.872   4.292   9.773  0.00  0.00    +0.000 A 
ATOM      9  C   UNL     1      45.466   5.492  10.197  0.00  0.00    +0.000 A 
BRANCH   8  10
ATOM     10  C   UNL     1      45.547   3.430   8.777  0.00  0.00    +0.000 A 
ATOM     11  C   UNL     1      46.259   3.967   7.689  0.00  0.00    +0.000 A 
ATOM     12  C   UNL     1      46.949   3.145   6.792  0.00  0.00    +0.000 A 
ATOM     13  C   UNL     1      46.930   1.764   6.957  0.00  0.00    +0.000 A 
ATOM     14  C   UNL     1      46.233   1.205   8.022  0.00  0.00    +0.000 A 
ATOM     15  C   UNL     1      45.556   2.030   8.924  0.00  0.00    +0.000 A 
ENDBRANCH   8  10
ENDBRANCH   1   4
BRANCH   1  16
ATOM     16  N   UNL     1      47.256   7.000  11.883  0.00  0.00    +0.000 N 
ATOM     17  H   UNL     1      47.457   6.163  11.335  0.00  0.00    +0.000 HD
BRANCH  16  21
ATOM     18  C   UNL     1      49.783   6.892  15.128  0.00  0.00    +0.000 A 
ATOM     19  N   UNL     1      50.116   7.760  14.150  0.00  0.00    +0.000 NA
ATOM     20  C   UNL     1      49.259   7.819  13.103  0.00  0.00    +0.000 A 
ATOM     21  C   UNL     1      48.098   7.077  12.999  0.00  0.00    +0.000 A 
ATOM     22  C   UNL     1      47.881   6.229  14.077  0.00  0.00    +0.000 A 
ATOM     23  N   UNL     1      48.683   6.119  15.152  0.00  0.00    +0.000 NA
BRANCH  18  25
ATOM     24  N   UNL     1      51.457   6.632  17.097  0.00  0.00    +0.000 NA
ATOM     25  C   UNL     1      50.697   6.748  16.223  0.00  0.00    +0.000 C 
ENDBRANCH  18  25
ENDBRANCH  16  21
ENDBRANCH   1  16
TORSDOF 5
ENDMDL
MODEL 5
REMARK VINA RESULT:    -6.874      1.193      2.087
REMARK INTER + INTRA:          -9.713
REMARK INTER:                  -9.641
REMARK INTRA:                  -0.072
REMARK UNBOUND:                -0.829
REMARK  Name = 
REMARK  5 active torsions:
REMARK  status: ('A' for Active; 'I' for Inactive)
REMARK    1  A    between atoms: C_2  and  C_3
REMARK    2  A    between atoms: C_6  and  N_7
REMARK    3  A    between atoms: N_7  and  C_8
REMARK    4  A    between atoms: C_8  and  C_9
REMARK    5  A    between atoms: C_13  and  C_14
REMARK                            x       y       z     vdW  Elec       q    Type
REMARK                         _______ _______ _______ _____ _____    ______ ____
ROOT
ATOM      1  C   UNL     1      44.120   4.246  11.626  0.00  0.00    +0.000 C 
ATOM      2  C   UNL     1      44.838   3.143  12.393  0.00  0.00    +0.000 C 
ATOM      3  C   UNL     1      43.446   3.529  12.771  0.00  0.00    +0.000 C 
ENDROOT
BRANCH   1   4
ATOM      4  C   UNL     1      44.559   5.690  11.806  0.00  0.00    +0.000 A 
ATOM      5  C   UNL     1      43.778   6.771  11.371  0.00  0.00    +0.000 A 
ATOM      6  C   UNL     1      44.297   8.064  11.342  0.00  0.00    +0.000 A 
ATOM      7  C   UNL     1      45.616   8.296  11.734  0.00  0.00    +0.000 A 
ATOM      8  C   UNL     1      46.435   7.251  12.188  0.00  0.00    +0.000 A 
ATOM      9  C   UNL     1      45.864   5.970  12.257  0.00  0.00    +0.000 A 
BRANCH   8  10
ATOM     10  C   UNL     1      47.873   7.449  12.479  0.00  0.00    +0.000 A 
ATOM     11  C   UNL     1      48.785   7.846  11.484  0.00  0.00    +0.000 A 
ATOM     12  C   UNL     1      50.128   8.095  11.784  0.00  0.00    +0.000 A 
ATOM     13  C   UNL     1      50.591   7.939  13.087  0.00  0.00    +0.000 A 
ATOM     14  C   UNL     1      49.713   7.546  14.090  0.00  0.00    +0.000 A 
ATOM     15  C   UNL     1      48.369   7.311  13.789  0.00  0.00    +0.000 A 
ENDBRANCH   8  10
ENDBRANCH   1   4
BRANCH   1  16
ATOM     16  N   UNL     1      43.932   3.902  10.204  0.00  0.00    +0.000 N 
ATOM     17  H   UNL     1      43.103   3.329  10.045  0.00  0.00    +0.000 HD
BRANCH  16  21
ATOM     18  C   UNL     1      46.714   2.668   7.436  0.00  0.00    +0.000 A 
ATOM     19  N   UNL     1      46.509   3.998   7.512  0.00  0.00    +0.000 NA
ATOM     20  C   UNL     1      45.621   4.401   8.452  0.00  0.00    +0.000 A 
ATOM     21  C   UNL     1      44.955   3.552   9.314  0.00  0.00    +0.000 A 
ATOM     22  C   UNL     1      45.265   2.211   9.124  0.00  0.00    +0.000 A 
ATOM     23  N   UNL     1      46.137   1.737   8.217  0.00  0.00    +0.000 NA
BRANCH  18  25
ATOM     24  N   UNL     1      48.321   1.827   5.577  0.00  0.00    +0.000 NA
ATOM     25  C   UNL     1      47.595   2.193   6.409  0.00  0.00    +0.000 C 
ENDBRANCH  18  25
ENDBRANCH  16  21
ENDBRANCH   1  16
TORSDOF 5
ENDMDL
MODEL 6
REMARK VINA RESULT:    -6.839      2.560      3.792
REMARK INTER + INTRA:          -9.667
REMARK INTER:                  -9.593
REMARK INTRA:                  -0.074
REMARK UNBOUND:                -0.829
REMARK  Name = 
REMARK  5 active torsions:
REMARK  status: ('A' for Active; 'I' for Inactive)
REMARK    1  A    between atoms: C_2  and  C_3
REMARK    2  A    between atoms: C_6  and  N_7
REMARK    3  A    between atoms: N_7  and  C_8
REMARK    4  A    between atoms: C_8  and  C_9
REMARK    5  A    between atoms: C_13  and  C_14
REMARK                            x       y       z     vdW  Elec       q    Type
REMARK                         _______ _______ _______ _____ _____    ______ ____
ROOT
ATOM      1  C   UNL     1      44.092   4.796  11.690  0.00  0.00    +0.000 C 
ATOM      2  C   UNL     1      44.731   3.712  12.549  0.00  0.00    +0.000 C 
ATOM      3  C   UNL     1      43.367   4.220  12.882  0.00  0.00    +0.000 C 
ENDROOT
BRANCH   1   4
ATOM      4  C   UNL     1      44.627   6.217  11.757  0.00  0.00    +0.000 A 
ATOM      5  C   UNL     1      45.635   6.597  12.654  0.00  0.00    +0.000 A 
ATOM      6  C   UNL     1      45.947   7.941  12.854  0.00  0.00    +0.000 A 
ATOM      7  C   UNL     1      45.243   8.931  12.168  0.00  0.00    +0.000 A 
ATOM      8  C   UNL     1      44.233   8.602  11.250  0.00  0.00    +0.000 A 
ATOM      9  C   UNL     1      43.981   7.237  11.032  0.00  0.00    +0.000 A 
BRANCH   8  10
ATOM     10  C   UNL     1      43.383   9.634  10.614  0.00  0.00    +0.000 A 
ATOM     11  C   UNL     1      43.873  10.482   9.604  0.00  0.00    +0.000 A 
ATOM     12  C   UNL     1      43.043  11.408   8.963  0.00  0.00    +0.000 A 
ATOM     13  C   UNL     1      41.706  11.514   9.331  0.00  0.00    +0.000 A 
ATOM     14  C   UNL     1      41.195  10.691  10.327  0.00  0.00    +0.000 A 
ATOM     15  C   UNL     1      42.023   9.758  10.955  0.00  0.00    +0.000 A 
ENDBRANCH   8  10
ENDBRANCH   1   4
BRANCH   1  16
ATOM     16  N   UNL     1      43.886   4.351  10.298  0.00  0.00    +0.000 N 
ATOM     17  H   UNL     1      43.031   3.808  10.181  0.00  0.00    +0.000 HD
BRANCH  16  21
ATOM     18  C   UNL     1      46.600   2.788   7.629  0.00  0.00    +0.000 A 
ATOM     19  N   UNL     1      46.514   4.134   7.662  0.00  0.00    +0.000 NA
ATOM     20  C   UNL     1      45.648   4.643   8.570  0.00  0.00    +0.000 A 
ATOM     21  C   UNL     1      44.891   3.884   9.442  0.00  0.00    +0.000 A 
ATOM     22  C   UNL     1      45.082   2.516   9.297  0.00  0.00    +0.000 A 
ATOM     23  N   UNL     1      45.925   1.937   8.422  0.00  0.00    +0.000 NA
BRANCH  18  25
ATOM     24  N   UNL     1      48.164   1.742   5.839  0.00  0.00    +0.000 NA
ATOM     25  C   UNL     1      47.453   2.205   6.636  0.00  0.00    +0.000 C 
ENDBRANCH  18  25
ENDBRANCH  16  21
ENDBRANCH   1  16
TORSDOF 5
ENDMDL
MODEL 7
REMARK VINA RESULT:    -6.468      3.106      6.773
REMARK INTER + INTRA:          -9.187
REMARK INTER:                  -8.978
REMARK INTRA:                  -0.209
REMARK UNBOUND:                -0.829
REMARK  Name = 
REMARK  5 active torsions:
REMARK  status: ('A' for Active; 'I' for Inactive)
REMARK    1  A    between atoms: C_2  and  C_3
REMARK    2  A    between atoms: C_6  and  N_7
REMARK    3  A    between atoms: N_7  and  C_8
REMARK    4  A    between atoms: C_8  and  C_9
REMARK    5  A    between atoms: C_13  and  C_14
REMARK                            x       y       z     vdW  Elec       q    Type
REMARK                         _______ _______ _______ _____ _____    ______ ____
ROOT
ATOM      1  C   UNL     1      46.002   5.108  13.155  0.00  0.00    +0.000 C 
ATOM      2  C   UNL     1      46.331   4.482  14.504  0.00  0.00    +0.000 C 
ATOM      3  C   UNL     1      47.394   4.612  13.464  0.00  0.00    +0.000 C 
ENDROOT
BRANCH   1   4
ATOM      4  C   UNL     1      45.141   4.343  12.164  0.00  0.00    +0.000 A 
ATOM      5  C   UNL     1      43.965   3.681  12.547  0.00  0.00    +0.000 A 
ATOM      6  C   UNL     1      43.320   2.805  11.676  0.00  0.00    +0.000 A 
ATOM      7  C   UNL     1      43.850   2.564  10.408  0.00  0.00    +0.000 A 
ATOM      8  C   UNL     1      45.017   3.210   9.972  0.00  0.00    +0.000 A 
ATOM      9  C   UNL     1      45.612   4.127  10.854  0.00  0.00    +0.000 A 
BRANCH   8  10
ATOM     10  C   UNL     1      45.671   2.870   8.688  0.00  0.00    +0.000 A 
ATOM     11  C   UNL     1      45.972   3.850   7.724  0.00  0.00    +0.000 A 
ATOM     12  C   UNL     1      46.650   3.527   6.544  0.00  0.00    +0.000 A 
ATOM     13  C   UNL     1      47.029   2.212   6.297  0.00  0.00    +0.000 A 
ATOM     14  C   UNL     1      46.743   1.223   7.230  0.00  0.00    +0.000 A 
ATOM     15  C   UNL     1      46.078   1.551   8.414  0.00  0.00    +0.000 A 
ENDBRANCH   8  10
ENDBRANCH   1   4
BRANCH   1  16
ATOM     16  N   UNL     1      45.573   6.514  13.285  0.00  0.00    +0.000 N 
ATOM     17  H   UNL     1      44.583   6.644  13.075  0.00  0.00    +0.000 HD
BRANCH  16  21
ATOM     18  C   UNL     1      47.802   9.629  11.783  0.00  0.00    +0.000 A 
ATOM     19  N   UNL     1      46.577   9.950  12.244  0.00  0.00    +0.000 NA
ATOM     20  C   UNL     1      45.863   8.928  12.773  0.00  0.00    +0.000 A 
ATOM     21  C   UNL     1      46.318   7.627  12.876  0.00  0.00    +0.000 A 
ATOM     22  C   UNL     1      47.595   7.443  12.363  0.00  0.00    +0.000 A 
ATOM     23  N   UNL     1      48.364   8.407  11.827  0.00  0.00    +0.000 NA
BRANCH  18  25
ATOM     24  N   UNL     1      49.191  11.516  10.661  0.00  0.00    +0.000 NA
ATOM     25  C   UNL     1      48.564  10.667  11.152  0.00  0.00    +0.000 C 
ENDBRANCH  18  25
ENDBRANCH  16  21
ENDBRANCH   1  16
TORSDOF 5
ENDMDL
MODEL 8
REMARK VINA RESULT:    -6.312      5.764      8.399
REMARK INTER + INTRA:          -8.986
REMARK INTER:                  -8.409
REMARK INTRA:                  -0.577
REMARK UNBOUND:                -0.829
REMARK  Name = 
REMARK  5 active torsions:
REMARK  status: ('A' for Active; 'I' for Inactive)
REMARK    1  A    between atoms: C_2  and  C_3
REMARK    2  A    between atoms: C_6  and  N_7
REMARK    3  A    between atoms: N_7  and  C_8
REMARK    4  A    between atoms: C_8  and  C_9
REMARK    5  A    between atoms: C_13  and  C_14
REMARK                            x       y       z     vdW  Elec       q    Type
REMARK                         _______ _______ _______ _____ _____    ______ ____
ROOT
ATOM      1  C   UNL     1      48.144   4.466  17.018  0.00  0.00    +0.000 C 
ATOM      2  C   UNL     1      47.190   4.811  18.154  0.00  0.00    +0.000 C 
ATOM      3  C   UNL     1      47.156   3.451  17.539  0.00  0.00    +0.000 C 
ENDROOT
BRANCH   1   4
ATOM      4  C   UNL     1      47.928   5.081  15.645  0.00  0.00    +0.000 A 
ATOM      5  C   UNL     1      48.582   6.251  15.236  0.00  0.00    +0.000 A 
ATOM      6  C   UNL     1      48.201   6.916  14.072  0.00  0.00    +0.000 A 
ATOM      7  C   UNL     1      47.144   6.427  13.303  0.00  0.00    +0.000 A 
ATOM      8  C   UNL     1      46.464   5.253  13.663  0.00  0.00    +0.000 A 
ATOM      9  C   UNL     1      46.909   4.579  14.812  0.00  0.00    +0.000 A 
BRANCH   8  10
ATOM     10  C   UNL     1      45.257   4.792  12.941  0.00  0.00    +0.000 A 
ATOM     11  C   UNL     1      44.063   5.537  12.936  0.00  0.00    +0.000 A 
ATOM     12  C   UNL     1      42.950   5.125  12.196  0.00  0.00    +0.000 A 
ATOM     13  C   UNL     1      43.004   3.950  11.454  0.00  0.00    +0.000 A 
ATOM     14  C   UNL     1      44.169   3.193  11.442  0.00  0.00    +0.000 A 
ATOM     15  C   UNL     1      45.284   3.614  12.171  0.00  0.00    +0.000 A 
ENDBRANCH   8  10
ENDBRANCH   1   4
BRANCH   1  16
ATOM     16  N   UNL     1      49.557   4.541  17.437  0.00  0.00    +0.000 N 
ATOM     17  H   UNL     1      50.005   5.413  17.156  0.00  0.00    +0.000 HD
BRANCH  16  21
ATOM     18  C   UNL     1      52.279   1.464  17.658  0.00  0.00    +0.000 A 
ATOM     19  N   UNL     1      51.078   1.151  17.131  0.00  0.00    +0.000 NA
ATOM     20  C   UNL     1      50.200   2.177  17.025  0.00  0.00    +0.000 A 
ATOM     21  C   UNL     1      50.469   3.479  17.398  0.00  0.00    +0.000 A 
ATOM     22  C   UNL     1      51.744   3.655  17.922  0.00  0.00    +0.000 A 
ATOM     23  N   UNL     1      52.669   2.688  18.056  0.00  0.00    +0.000 NA
BRANCH  18  25
ATOM     24  N   UNL     1      53.972  -0.470  18.033  0.00  0.00    +0.000 NA
ATOM     25  C   UNL     1      53.214   0.394  17.853  0.00  0.00    +0.000 C 
ENDBRANCH  18  25
ENDBRANCH  16  21
ENDBRANCH   1  16
TORSDOF 5
ENDMDL
MODEL 9
REMARK VINA RESULT:    -6.259      3.734      7.339
REMARK INTER + INTRA:          -8.918
REMARK INTER:                  -8.071
REMARK INTRA:                  -0.847
REMARK UNBOUND:                -0.829
REMARK  Name = 
REMARK  5 active torsions:
REMARK  status: ('A' for Active; 'I' for Inactive)
REMARK    1  A    between atoms: C_2  and  C_3
REMARK    2  A    between atoms: C_6  and  N_7
REMARK    3  A    between atoms: N_7  and  C_8
REMARK    4  A    between atoms: C_8  and  C_9
REMARK    5  A    between atoms: C_13  and  C_14
REMARK                            x       y       z     vdW  Elec       q    Type
REMARK                         _______ _______ _______ _____ _____    ______ ____
ROOT
ATOM      1  C   UNL     1      47.625   7.811  12.498  0.00  0.00    +0.000 C 
ATOM      2  C   UNL     1      48.360   8.776  11.577  0.00  0.00    +0.000 C 
ATOM      3  C   UNL     1      47.644   9.294  12.780  0.00  0.00    +0.000 C 
ENDROOT
BRANCH   1   4
ATOM      4  C   UNL     1      46.337   7.158  12.025  0.00  0.00    +0.000 A 
ATOM      5  C   UNL     1      45.138   7.255  12.745  0.00  0.00    +0.000 A 
ATOM      6  C   UNL     1      44.037   6.468  12.413  0.00  0.00    +0.000 A 
ATOM      7  C   UNL     1      44.122   5.556  11.361  0.00  0.00    +0.000 A 
ATOM      8  C   UNL     1      45.295   5.429  10.601  0.00  0.00    +0.000 A 
ATOM      9  C   UNL     1      46.367   6.276  10.927  0.00  0.00    +0.000 A 
BRANCH   8  10
ATOM     10  C   UNL     1      45.455   4.378   9.571  0.00  0.00    +0.000 A 
ATOM     11  C   UNL     1      46.013   4.651   8.309  0.00  0.00    +0.000 A 
ATOM     12  C   UNL     1      46.221   3.637   7.369  0.00  0.00    +0.000 A 
ATOM     13  C   UNL     1      45.859   2.327   7.666  0.00  0.00    +0.000 A 
ATOM     14  C   UNL     1      45.303   2.028   8.904  0.00  0.00    +0.000 A 
ATOM     15  C   UNL     1      45.110   3.041   9.847  0.00  0.00    +0.000 A 
ENDBRANCH   8  10
ENDBRANCH   1   4
BRANCH   1  16
ATOM     16  N   UNL     1      48.538   6.835  13.124  0.00  0.00    +0.000 N 
ATOM     17  H   UNL     1      48.779   6.066  12.499  0.00  0.00    +0.000 HD
BRANCH  16  21
ATOM     18  C   UNL     1      48.430   5.232  16.911  0.00  0.00    +0.000 A 
ATOM     19  N   UNL     1      49.163   6.354  16.767  0.00  0.00    +0.000 NA
ATOM     20  C   UNL     1      49.163   6.899  15.528  0.00  0.00    +0.000 A 
ATOM     21  C   UNL     1      48.463   6.392  14.450  0.00  0.00    +0.000 A 
ATOM     22  C   UNL     1      47.751   5.236  14.744  0.00  0.00    +0.000 A 
ATOM     23  N   UNL     1      47.700   4.640  15.949  0.00  0.00    +0.000 NA
BRANCH  18  25
ATOM     24  N   UNL     1      48.460   4.047  19.223  0.00  0.00    +0.000 NA
ATOM     25  C   UNL     1      48.458   4.584  18.190  0.00  0.00    +0.000 C 
ENDBRANCH  18  25
ENDBRANCH  16  21
ENDBRANCH   1  16
TORSDOF 5
ENDMDL
