MODEL 1
REMARK VINA RESULT:    -8.241      0.000      0.000
REMARK INTER + INTRA:         -12.269
REMARK INTER:                 -11.131
REMARK INTRA:                  -1.138
REMARK UNBOUND:                -1.138
REMARK  Name = 
REMARK  8 active torsions:
REMARK  status: ('A' for Active; 'I' for Inactive)
REMARK    1  A    between atoms: C_1  and  C_2
REMARK    2  A    between atoms: C_2  and  N_3
REMARK    3  A    between atoms: C_2  and  C_17
REMARK    4  A    between atoms: C_4  and  C_6
REMARK    5  A    between atoms: N_12  and  C_13
REMARK    6  A    between atoms: C_20  and  C_21
REMARK    7  A    between atoms: C_21  and  C_22
REMARK    8  A    between atoms: C_22  and  C_23
REMARK                            x       y       z     vdW  Elec       q    Type
REMARK                         _______ _______ _______ _____ _____    ______ ____
ROOT
ATOM      1  C   UNL     1      48.574   7.796  12.634  0.00  0.00    +0.000 C 
ATOM      2  C   UNL     1      47.461   7.054  13.375  0.00  0.00    +0.000 C 
ENDROOT
BRANCH   2   3
ATOM      3  C   UNL     1      46.586   6.187  12.480  0.00  0.00    +0.000 A 
ATOM      4  C   UNL     1      46.123   4.965  12.986  0.00  0.00    +0.000 A 
ATOM      5  C   UNL     1      45.388   4.084  12.187  0.00  0.00    +0.000 A 
ATOM      6  C   UNL     1      45.075   4.400  10.859  0.00  0.00    +0.000 A 
ATOM      7  C   UNL     1      45.545   5.618  10.348  0.00  0.00    +0.000 A 
ATOM      8  C   UNL     1      46.294   6.495  11.145  0.00  0.00    +0.000 A 
BRANCH   6   9
ATOM      9  C   UNL     1      44.333   3.438   9.951  0.00  0.00    +0.000 C 
BRANCH   9  10
ATOM     10  C   UNL     1      44.605   3.637   8.453  0.00  0.00    +0.000 C 
BRANCH  10  11
ATOM     11  C   UNL     1      45.786   2.851   7.943  0.00  0.00    +0.000 A 
ATOM     12  C   UNL     1      45.896   1.485   8.221  0.00  0.00    +0.000 A 
ATOM     13  C   UNL     1      46.972   0.785   7.700  0.00  0.00    +0.000 A 
ATOM     14  N   UNL     1      47.937   1.347   6.942  0.00  0.00    +0.000 NA
ATOM     15  C   UNL     1      47.815   2.669   6.692  0.00  0.00    +0.000 A 
ATOM     16  C   UNL     1      46.774   3.454   7.165  0.00  0.00    +0.000 A 
ENDBRANCH  10  11
ENDBRANCH   9  10
ENDBRANCH   6   9
ENDBRANCH   2   3
BRANCH   2  17
ATOM     17  N   UNL     1      48.015   6.234  14.435  0.00  0.00    +0.000 N 
ATOM     18  C   UNL     1      48.482   6.742  15.619  0.00  0.00    +0.000 C 
ATOM     19  O   UNL     1      48.496   7.946  15.858  0.00  0.00    +0.000 OA
ATOM     20  H   UNL     1      47.877   5.232  14.346  0.00  0.00    +0.000 HD
BRANCH  18  21
ATOM     21  C   UNL     1      49.024   5.763  16.576  0.00  0.00    +0.000 A 
ATOM     22  C   UNL     1      48.166   4.901  17.242  0.00  0.00    +0.000 A 
ATOM     23  S   UNL     1      48.964   3.842  18.317  0.00  0.00    +0.000 S 
ATOM     24  C   UNL     1      50.483   4.483  17.905  0.00  0.00    +0.000 A 
ATOM     25  N   UNL     1      51.621   3.992  18.459  0.00  0.00    +0.000 NA
ATOM     26  C   UNL     1      52.710   4.558  18.048  0.00  0.00    +0.000 A 
ATOM     27  N   UNL     1      52.777   5.582  17.126  0.00  0.00    +0.000 N 
ATOM     28  C   UNL     1      54.049   6.166  16.751  0.00  0.00    +0.000 C 
ATOM     29  C   UNL     1      51.632   6.121  16.556  0.00  0.00    +0.000 A 
ATOM     30  O   UNL     1      51.665   7.069  15.778  0.00  0.00    +0.000 OA
ATOM     31  C   UNL     1      50.387   5.504  16.979  0.00  0.00    +0.000 A 
ENDBRANCH  18  21
ENDBRANCH   2  17
TORSDOF 6
ENDMDL
MODEL 2
REMARK VINA RESULT:    -8.208      1.601      2.506
REMARK INTER + INTRA:         -12.225
REMARK INTER:                 -11.009
REMARK INTRA:                  -1.216
REMARK UNBOUND:                -1.138
REMARK  Name = 
REMARK  8 active torsions:
REMARK  status: ('A' for Active; 'I' for Inactive)
REMARK    1  A    between atoms: C_1  and  C_2
REMARK    2  A    between atoms: C_2  and  N_3
REMARK    3  A    between atoms: C_2  and  C_17
REMARK    4  A    between atoms: C_4  and  C_6
REMARK    5  A    between atoms: N_12  and  C_13
REMARK    6  A    between atoms: C_20  and  C_21
REMARK    7  A    between atoms: C_21  and  C_22
REMARK    8  A    between atoms: C_22  and  C_23
REMARK                            x       y       z     vdW  Elec       q    Type
REMARK                         _______ _______ _______ _____ _____    ______ ____
ROOT
ATOM      1  C   UNL     1      46.987   9.029  12.456  0.00  0.00    +0.000 C 
ATOM      2  C   UNL     1      46.593   7.790  13.260  0.00  0.00    +0.000 C 
ENDROOT
BRANCH   2   3
ATOM      3  C   UNL     1      46.010   6.661  12.420  0.00  0.00    +0.000 A 
ATOM      4  C   UNL     1      45.476   5.548  13.081  0.00  0.00    +0.000 A 
ATOM      5  C   UNL     1      45.004   4.442  12.369  0.00  0.00    +0.000 A 
ATOM      6  C   UNL     1      45.034   4.415  10.968  0.00  0.00    +0.000 A 
ATOM      7  C   UNL     1      45.577   5.524  10.304  0.00  0.00    +0.000 A 
ATOM      8  C   UNL     1      46.062   6.628  11.020  0.00  0.00    +0.000 A 
BRANCH   6   9
ATOM      9  C   UNL     1      44.587   3.204  10.172  0.00  0.00    +0.000 C 
BRANCH   9  10
ATOM     10  C   UNL     1      44.600   3.403   8.649  0.00  0.00    +0.000 C 
BRANCH  10  11
ATOM     11  C   UNL     1      45.732   2.688   7.956  0.00  0.00    +0.000 A 
ATOM     12  C   UNL     1      46.537   3.367   7.038  0.00  0.00    +0.000 A 
ATOM     13  C   UNL     1      47.595   2.690   6.452  0.00  0.00    +0.000 A 
ATOM     14  N   UNL     1      47.893   1.399   6.708  0.00  0.00    +0.000 NA
ATOM     15  C   UNL     1      47.099   0.760   7.593  0.00  0.00    +0.000 A 
ATOM     16  C   UNL     1      46.019   1.351   8.233  0.00  0.00    +0.000 A 
ENDBRANCH  10  11
ENDBRANCH   9  10
ENDBRANCH   6   9
ENDBRANCH   2   3
BRANCH   2  17
ATOM     17  N   UNL     1      47.729   7.286  14.007  0.00  0.00    +0.000 N 
ATOM     18  C   UNL     1      48.293   7.951  15.064  0.00  0.00    +0.000 C 
ATOM     19  O   UNL     1      47.894   9.050  15.439  0.00  0.00    +0.000 OA
ATOM     20  H   UNL     1      47.986   6.319  13.836  0.00  0.00    +0.000 HD
BRANCH  18  21
ATOM     21  C   UNL     1      49.451   7.298  15.698  0.00  0.00    +0.000 A 
ATOM     22  C   UNL     1      50.690   7.919  15.678  0.00  0.00    +0.000 A 
ATOM     23  S   UNL     1      51.916   7.018  16.451  0.00  0.00    +0.000 S 
ATOM     24  C   UNL     1      50.823   5.783  16.862  0.00  0.00    +0.000 A 
ATOM     25  N   UNL     1      51.228   4.700  17.573  0.00  0.00    +0.000 NA
ATOM     26  C   UNL     1      50.294   3.843  17.832  0.00  0.00    +0.000 A 
ATOM     27  N   UNL     1      48.975   3.960  17.445  0.00  0.00    +0.000 N 
ATOM     28  C   UNL     1      48.009   2.929  17.765  0.00  0.00    +0.000 C 
ATOM     29  C   UNL     1      48.531   5.044  16.700  0.00  0.00    +0.000 A 
ATOM     30  O   UNL     1      47.377   5.140  16.298  0.00  0.00    +0.000 OA
ATOM     31  C   UNL     1      49.546   6.040  16.400  0.00  0.00    +0.000 A 
ENDBRANCH  18  21
ENDBRANCH   2  17
TORSDOF 6
ENDMDL
MODEL 3
REMARK VINA RESULT:    -7.939      2.944      4.168
REMARK INTER + INTRA:         -11.862
REMARK INTER:                 -10.641
REMARK INTRA:                  -1.221
REMARK UNBOUND:                -1.138
REMARK  Name = 
REMARK  8 active torsions:
REMARK  status: ('A' for Active; 'I' for Inactive)
REMARK    1  A    between atoms: C_1  and  C_2
REMARK    2  A    between atoms: C_2  and  N_3
REMARK    3  A    between atoms: C_2  and  C_17
REMARK    4  A    between atoms: C_4  and  C_6
REMARK    5  A    between atoms: N_12  and  C_13
REMARK    6  A    between atoms: C_20  and  C_21
REMARK    7  A    between atoms: C_21  and  C_22
REMARK    8  A    between atoms: C_22  and  C_23
REMARK                            x       y       z     vdW  Elec       q    Type
REMARK                         _______ _______ _______ _____ _____    ______ ____
ROOT
ATOM      1  C   UNL     1      47.082   4.265  15.894  0.00  0.00    +0.000 C 
ATOM      2  C   UNL     1      47.556   4.997  14.638  0.00  0.00    +0.000 C 
ENDROOT
BRANCH   2   3
ATOM      3  C   UNL     1      46.641   4.827  13.433  0.00  0.00    +0.000 A 
ATOM      4  C   UNL     1      46.009   3.590  13.248  0.00  0.00    +0.000 A 
ATOM      5  C   UNL     1      45.226   3.341  12.118  0.00  0.00    +0.000 A 
ATOM      6  C   UNL     1      45.032   4.325  11.139  0.00  0.00    +0.000 A 
ATOM      7  C   UNL     1      45.670   5.560  11.318  0.00  0.00    +0.000 A 
ATOM      8  C   UNL     1      46.467   5.805  12.445  0.00  0.00    +0.000 A 
BRANCH   6   9
ATOM      9  C   UNL     1      44.238   4.063   9.874  0.00  0.00    +0.000 C 
BRANCH   9  10
ATOM     10  C   UNL     1      44.988   4.384   8.573  0.00  0.00    +0.000 C 
BRANCH  10  11
ATOM     11  C   UNL     1      45.808   3.234   8.048  0.00  0.00    +0.000 A 
ATOM     12  C   UNL     1      46.814   3.458   7.104  0.00  0.00    +0.000 A 
ATOM     13  C   UNL     1      47.576   2.383   6.675  0.00  0.00    +0.000 A 
ATOM     14  N   UNL     1      47.399   1.118   7.109  0.00  0.00    +0.000 NA
ATOM     15  C   UNL     1      46.418   0.922   8.015  0.00  0.00    +0.000 A 
ATOM     16  C   UNL     1      45.604   1.932   8.507  0.00  0.00    +0.000 A 
ENDBRANCH  10  11
ENDBRANCH   9  10
ENDBRANCH   6   9
ENDBRANCH   2   3
BRANCH   2  17
ATOM     17  N   UNL     1      47.724   6.412  14.909  0.00  0.00    +0.000 N 
ATOM     18  C   UNL     1      48.866   6.949  15.442  0.00  0.00    +0.000 C 
ATOM     19  O   UNL     1      49.830   6.260  15.764  0.00  0.00    +0.000 OA
ATOM     20  H   UNL     1      47.023   7.031  14.514  0.00  0.00    +0.000 HD
BRANCH  18  21
ATOM     21  C   UNL     1      48.857   8.405  15.663  0.00  0.00    +0.000 A 
ATOM     22  C   UNL     1      49.260   9.260  14.650  0.00  0.00    +0.000 A 
ATOM     23  S   UNL     1      49.193  10.910  15.082  0.00  0.00    +0.000 S 
ATOM     24  C   UNL     1      48.595  10.535  16.628  0.00  0.00    +0.000 A 
ATOM     25  N   UNL     1      48.291  11.516  17.516  0.00  0.00    +0.000 NA
ATOM     26  C   UNL     1      47.831  11.095  18.650  0.00  0.00    +0.000 A 
ATOM     27  N   UNL     1      47.641   9.772  18.992  0.00  0.00    +0.000 N 
ATOM     28  C   UNL     1      47.143   9.404  20.301  0.00  0.00    +0.000 C 
ATOM     29  C   UNL     1      47.961   8.744  18.116  0.00  0.00    +0.000 A 
ATOM     30  O   UNL     1      47.855   7.560  18.420  0.00  0.00    +0.000 OA
ATOM     31  C   UNL     1      48.468   9.173  16.823  0.00  0.00    +0.000 A 
ENDBRANCH  18  21
ENDBRANCH   2  17
TORSDOF 6
ENDMDL
MODEL 4
REMARK VINA RESULT:    -7.906      2.104      2.471
REMARK INTER + INTRA:         -11.817
REMARK INTER:                 -10.625
REMARK INTRA:                  -1.192
REMARK UNBOUND:                -1.138
REMARK  Name = 
REMARK  8 active torsions:
REMARK  status: ('A' for Active; 'I' for Inactive)
REMARK    1  A    between atoms: C_1  and  C_2
REMARK    2  A    between atoms: C_2  and  N_3
REMARK    3  A    between atoms: C_2  and  C_17
REMARK    4  A    between atoms: C_4  and  C_6
REMARK    5  A    between atoms: N_12  and  C_13
REMARK    6  A    between atoms: C_20  and  C_21
REMARK    7  A    between atoms: C_21  and  C_22
REMARK    8  A    between atoms: C_22  and  C_23
REMARK                            x       y       z     vdW  Elec       q    Type
REMARK                         _______ _______ _______ _____ _____    ______ ____
ROOT
ATOM      1  C   UNL     1      49.432   7.392  12.849  0.00  0.00    +0.000 C 
ATOM      2  C   UNL     1      48.003   7.562  13.365  0.00  0.00    +0.000 C 
ENDROOT
BRANCH   2   3
ATOM      3  C   UNL     1      46.988   6.636  12.709  0.00  0.00    +0.000 A 
ATOM      4  C   UNL     1      46.537   5.524  13.432  0.00  0.00    +0.000 A 
ATOM      5  C   UNL     1      45.672   4.590  12.857  0.00  0.00    +0.000 A 
ATOM      6  C   UNL     1      45.212   4.742  11.542  0.00  0.00    +0.000 A 
ATOM      7  C   UNL     1      45.669   5.849  10.813  0.00  0.00    +0.000 A 
ATOM      8  C   UNL     1      46.547   6.779  11.387  0.00  0.00    +0.000 A 
BRANCH   6   9
ATOM      9  C   UNL     1      44.323   3.712  10.872  0.00  0.00    +0.000 C 
BRANCH   9  10
ATOM     10  C   UNL     1      44.212   3.862   9.347  0.00  0.00    +0.000 C 
BRANCH  10  11
ATOM     11  C   UNL     1      45.279   3.114   8.588  0.00  0.00    +0.000 A 
ATOM     12  C   UNL     1      45.448   1.740   8.779  0.00  0.00    +0.000 A 
ATOM     13  C   UNL     1      46.409   1.078   8.033  0.00  0.00    +0.000 A 
ATOM     14  N   UNL     1      47.208   1.685   7.130  0.00  0.00    +0.000 NA
ATOM     15  C   UNL     1      47.033   3.013   6.966  0.00  0.00    +0.000 A 
ATOM     16  C   UNL     1      46.097   3.764   7.663  0.00  0.00    +0.000 A 
ENDBRANCH  10  11
ENDBRANCH   9  10
ENDBRANCH   6   9
ENDBRANCH   2   3
BRANCH   2  17
ATOM     17  N   UNL     1      47.957   7.373  14.803  0.00  0.00    +0.000 N 
ATOM     18  C   UNL     1      48.554   8.223  15.696  0.00  0.00    +0.000 C 
ATOM     19  O   UNL     1      49.207   9.200  15.341  0.00  0.00    +0.000 OA
ATOM     20  H   UNL     1      47.301   6.677  15.143  0.00  0.00    +0.000 HD
BRANCH  18  21
ATOM     21  C   UNL     1      48.417   7.869  17.119  0.00  0.00    +0.000 A 
ATOM     22  C   UNL     1      48.094   8.847  18.046  0.00  0.00    +0.000 A 
ATOM     23  S   UNL     1      47.984   8.261  19.646  0.00  0.00    +0.000 S 
ATOM     24  C   UNL     1      48.338   6.676  19.146  0.00  0.00    +0.000 A 
ATOM     25  N   UNL     1      48.375   5.654  20.038  0.00  0.00    +0.000 NA
ATOM     26  C   UNL     1      48.640   4.496  19.524  0.00  0.00    +0.000 A 
ATOM     27  N   UNL     1      48.876   4.253  18.187  0.00  0.00    +0.000 N 
ATOM     28  C   UNL     1      49.190   2.920  17.715  0.00  0.00    +0.000 C 
ATOM     29  C   UNL     1      48.867   5.278  17.251  0.00  0.00    +0.000 A 
ATOM     30  O   UNL     1      49.130   5.093  16.067  0.00  0.00    +0.000 OA
ATOM     31  C   UNL     1      48.558   6.594  17.784  0.00  0.00    +0.000 A 
ENDBRANCH  18  21
ENDBRANCH   2  17
TORSDOF 6
ENDMDL
MODEL 5
REMARK VINA RESULT:    -7.790      2.082      2.825
REMARK INTER + INTRA:         -11.660
REMARK INTER:                 -10.962
REMARK INTRA:                  -0.698
REMARK UNBOUND:                -1.138
REMARK  Name = 
REMARK  8 active torsions:
REMARK  status: ('A' for Active; 'I' for Inactive)
REMARK    1  A    between atoms: C_1  and  C_2
REMARK    2  A    between atoms: C_2  and  N_3
REMARK    3  A    between atoms: C_2  and  C_17
REMARK    4  A    between atoms: C_4  and  C_6
REMARK    5  A    between atoms: N_12  and  C_13
REMARK    6  A    between atoms: C_20  and  C_21
REMARK    7  A    between atoms: C_21  and  C_22
REMARK    8  A    between atoms: C_22  and  C_23
REMARK                            x       y       z     vdW  Elec       q    Type
REMARK                         _______ _______ _______ _____ _____    ______ ____
ROOT
ATOM      1  C   UNL     1      49.212   6.991  12.920  0.00  0.00    +0.000 C 
ATOM      2  C   UNL     1      47.809   6.871  13.515  0.00  0.00    +0.000 C 
ENDROOT
BRANCH   2   3
ATOM      3  C   UNL     1      46.808   6.161  12.614  0.00  0.00    +0.000 A 
ATOM      4  C   UNL     1      46.210   4.984  13.083  0.00  0.00    +0.000 A 
ATOM      5  C   UNL     1      45.348   4.239  12.273  0.00  0.00    +0.000 A 
ATOM      6  C   UNL     1      45.040   4.652  10.970  0.00  0.00    +0.000 A 
ATOM      7  C   UNL     1      45.645   5.824  10.495  0.00  0.00    +0.000 A 
ATOM      8  C   UNL     1      46.519   6.564  11.303  0.00  0.00    +0.000 A 
BRANCH   6   9
ATOM      9  C   UNL     1      44.159   3.832  10.048  0.00  0.00    +0.000 C 
BRANCH   9  10
ATOM     10  C   UNL     1      44.712   2.440   9.709  0.00  0.00    +0.000 C 
BRANCH  10  11
ATOM     11  C   UNL     1      45.607   2.425   8.496  0.00  0.00    +0.000 A 
ATOM     12  C   UNL     1      46.354   1.284   8.186  0.00  0.00    +0.000 A 
ATOM     13  C   UNL     1      47.134   1.291   7.041  0.00  0.00    +0.000 A 
ATOM     14  N   UNL     1      47.226   2.345   6.202  0.00  0.00    +0.000 NA
ATOM     15  C   UNL     1      46.502   3.437   6.524  0.00  0.00    +0.000 A 
ATOM     16  C   UNL     1      45.691   3.527   7.646  0.00  0.00    +0.000 A 
ENDBRANCH  10  11
ENDBRANCH   9  10
ENDBRANCH   6   9
ENDBRANCH   2   3
BRANCH   2  17
ATOM     17  N   UNL     1      47.857   6.194  14.797  0.00  0.00    +0.000 N 
ATOM     18  C   UNL     1      48.636   6.611  15.844  0.00  0.00    +0.000 C 
ATOM     19  O   UNL     1      49.384   7.581  15.761  0.00  0.00    +0.000 OA
ATOM     20  H   UNL     1      47.142   5.491  14.960  0.00  0.00    +0.000 HD
BRANCH  18  21
ATOM     21  C   UNL     1      48.570   5.794  17.067  0.00  0.00    +0.000 A 
ATOM     22  C   UNL     1      48.862   4.441  17.010  0.00  0.00    +0.000 A 
ATOM     23  S   UNL     1      48.728   3.650  18.517  0.00  0.00    +0.000 S 
ATOM     24  C   UNL     1      48.303   5.099  19.299  0.00  0.00    +0.000 A 
ATOM     25  N   UNL     1      48.073   5.129  20.636  0.00  0.00    +0.000 NA
ATOM     26  C   UNL     1      47.773   6.296  21.107  0.00  0.00    +0.000 A 
ATOM     27  N   UNL     1      47.679   7.455  20.364  0.00  0.00    +0.000 N 
ATOM     28  C   UNL     1      47.312   8.711  20.986  0.00  0.00    +0.000 C 
ATOM     29  C   UNL     1      47.889   7.456  18.992  0.00  0.00    +0.000 A 
ATOM     30  O   UNL     1      47.754   8.463  18.305  0.00  0.00    +0.000 OA
ATOM     31  C   UNL     1      48.243   6.167  18.424  0.00  0.00    +0.000 A 
ENDBRANCH  18  21
ENDBRANCH   2  17
TORSDOF 6
ENDMDL
MODEL 6
REMARK VINA RESULT:    -7.458      1.706      2.700
REMARK INTER + INTRA:         -11.213
REMARK INTER:                  -9.579
REMARK INTRA:                  -1.634
REMARK UNBOUND:                -1.138
REMARK  Name = 
REMARK  8 active torsions:
REMARK  status: ('A' for Active; 'I' for Inactive)
REMARK    1  A    between atoms: C_1  and  C_2
REMARK    2  A    between atoms: C_2  and  N_3
REMARK    3  A    between atoms: C_2  and  C_17
REMARK    4  A    between atoms: C_4  and  C_6
REMARK    5  A    between atoms: N_12  and  C_13
REMARK    6  A    between atoms: C_20  and  C_21
REMARK    7  A    between atoms: C_21  and  C_22
REMARK    8  A    between atoms: C_22  and  C_23
REMARK                            x       y       z     vdW  Elec       q    Type
REMARK                         _______ _______ _______ _____ _____    ______ ____
ROOT
ATOM      1  C   UNL     1      49.944   7.770  11.406  0.00  0.00    +0.000 C 
ATOM      2  C   UNL     1      49.069   7.751  12.660  0.00  0.00    +0.000 C 
ENDROOT
BRANCH   2   3
ATOM      3  C   UNL     1      47.726   7.059  12.473  0.00  0.00    +0.000 A 
ATOM      4  C   UNL     1      47.579   5.751  12.954  0.00  0.00    +0.000 A 
ATOM      5  C   UNL     1      46.401   5.030  12.739  0.00  0.00    +0.000 A 
ATOM      6  C   UNL     1      45.321   5.595  12.050  0.00  0.00    +0.000 A 
ATOM      7  C   UNL     1      45.468   6.901  11.560  0.00  0.00    +0.000 A 
ATOM      8  C   UNL     1      46.655   7.619  11.764  0.00  0.00    +0.000 A 
BRANCH   6   9
ATOM      9  C   UNL     1      44.055   4.816  11.749  0.00  0.00    +0.000 C 
BRANCH   9  10
ATOM     10  C   UNL     1      43.680   4.759  10.261  0.00  0.00    +0.000 C 
BRANCH  10  11
ATOM     11  C   UNL     1      44.598   3.890   9.439  0.00  0.00    +0.000 A 
ATOM     12  C   UNL     1      44.573   2.501   9.588  0.00  0.00    +0.000 A 
ATOM     13  C   UNL     1      45.400   1.731   8.785  0.00  0.00    +0.000 A 
ATOM     14  N   UNL     1      46.244   2.245   7.866  0.00  0.00    +0.000 NA
ATOM     15  C   UNL     1      46.256   3.589   7.743  0.00  0.00    +0.000 A 
ATOM     16  C   UNL     1      45.466   4.444   8.498  0.00  0.00    +0.000 A 
ENDBRANCH  10  11
ENDBRANCH   9  10
ENDBRANCH   6   9
ENDBRANCH   2   3
BRANCH   2  17
ATOM     17  N   UNL     1      49.775   7.126  13.762  0.00  0.00    +0.000 N 
ATOM     18  C   UNL     1      50.240   7.817  14.850  0.00  0.00    +0.000 C 
ATOM     19  O   UNL     1      50.120   9.034  14.958  0.00  0.00    +0.000 OA
ATOM     20  H   UNL     1      49.754   6.112  13.790  0.00  0.00    +0.000 HD
BRANCH  18  21
ATOM     21  C   UNL     1      50.947   7.022  15.869  0.00  0.00    +0.000 A 
ATOM     22  C   UNL     1      52.276   7.291  16.154  0.00  0.00    +0.000 A 
ATOM     23  S   UNL     1      52.936   6.271  17.352  0.00  0.00    +0.000 S 
ATOM     24  C   UNL     1      51.458   5.455  17.548  0.00  0.00    +0.000 A 
ATOM     25  N   UNL     1      51.325   4.460  18.461  0.00  0.00    +0.000 NA
ATOM     26  C   UNL     1      50.144   3.934  18.519  0.00  0.00    +0.000 A 
ATOM     27  N   UNL     1      49.066   4.308  17.745  0.00  0.00    +0.000 N 
ATOM     28  C   UNL     1      47.788   3.636  17.870  0.00  0.00    +0.000 C 
ATOM     29  C   UNL     1      49.172   5.308  16.788  0.00  0.00    +0.000 A 
ATOM     30  O   UNL     1      48.243   5.618  16.050  0.00  0.00    +0.000 OA
ATOM     31  C   UNL     1      50.479   5.937  16.699  0.00  0.00    +0.000 A 
ENDBRANCH  18  21
ENDBRANCH   2  17
TORSDOF 6
ENDMDL
MODEL 7
REMARK VINA RESULT:    -7.393      2.636      4.335
REMARK INTER + INTRA:         -11.125
REMARK INTER:                  -9.589
REMARK INTRA:                  -1.536
REMARK UNBOUND:                -1.138
REMARK  Name = 
REMARK  8 active torsions:
REMARK  status: ('A' for Active; 'I' for Inactive)
REMARK    1  A    between atoms: C_1  and  C_2
REMARK    2  A    between atoms: C_2  and  N_3
REMARK    3  A    between atoms: C_2  and  C_17
REMARK    4  A    between atoms: C_4  and  C_6
REMARK    5  A    between atoms: N_12  and  C_13
REMARK    6  A    between atoms: C_20  and  C_21
REMARK    7  A    between atoms: C_21  and  C_22
REMARK    8  A    between atoms: C_22  and  C_23
REMARK                            x       y       z     vdW  Elec       q    Type
REMARK                         _______ _______ _______ _____ _____    ______ ____
ROOT
ATOM      1  C   UNL     1      46.980   4.175  16.555  0.00  0.00    +0.000 C 
ATOM      2  C   UNL     1      47.596   4.724  15.268  0.00  0.00    +0.000 C 
ENDROOT
BRANCH   2   3
ATOM      3  C   UNL     1      46.736   4.520  14.028  0.00  0.00    +0.000 A 
ATOM      4  C   UNL     1      46.055   5.625  13.502  0.00  0.00    +0.000 A 
ATOM      5  C   UNL     1      45.184   5.488  12.418  0.00  0.00    +0.000 A 
ATOM      6  C   UNL     1      44.973   4.244  11.810  0.00  0.00    +0.000 A 
ATOM      7  C   UNL     1      45.647   3.134  12.340  0.00  0.00    +0.000 A 
ATOM      8  C   UNL     1      46.511   3.270  13.436  0.00  0.00    +0.000 A 
BRANCH   6   9
ATOM      9  C   UNL     1      43.987   4.054  10.673  0.00  0.00    +0.000 C 
BRANCH   9  10
ATOM     10  C   UNL     1      44.494   4.528   9.304  0.00  0.00    +0.000 C 
BRANCH  10  11
ATOM     11  C   UNL     1      45.328   3.502   8.580  0.00  0.00    +0.000 A 
ATOM     12  C   UNL     1      46.269   3.903   7.627  0.00  0.00    +0.000 A 
ATOM     13  C   UNL     1      47.047   2.935   7.012  0.00  0.00    +0.000 A 
ATOM     14  N   UNL     1      46.945   1.614   7.271  0.00  0.00    +0.000 NA
ATOM     15  C   UNL     1      46.025   1.249   8.189  0.00  0.00    +0.000 A 
ATOM     16  C   UNL     1      45.202   2.141   8.860  0.00  0.00    +0.000 A 
ENDBRANCH  10  11
ENDBRANCH   9  10
ENDBRANCH   6   9
ENDBRANCH   2   3
BRANCH   2  17
ATOM     17  N   UNL     1      47.896   6.136  15.409  0.00  0.00    +0.000 N 
ATOM     18  C   UNL     1      49.086   6.611  15.895  0.00  0.00    +0.000 C 
ATOM     19  O   UNL     1      49.983   5.868  16.281  0.00  0.00    +0.000 OA
ATOM     20  H   UNL     1      47.252   6.778  14.958  0.00  0.00    +0.000 HD
BRANCH  18  21
ATOM     21  C   UNL     1      49.211   8.076  15.983  0.00  0.00    +0.000 A 
ATOM     22  C   UNL     1      49.442   8.676  17.211  0.00  0.00    +0.000 A 
ATOM     23  S   UNL     1      49.552  10.377  17.128  0.00  0.00    +0.000 S 
ATOM     24  C   UNL     1      49.324  10.363  15.443  0.00  0.00    +0.000 A 
ATOM     25  N   UNL     1      49.337  11.516  14.727  0.00  0.00    +0.000 NA
ATOM     26  C   UNL     1      49.166  11.362  13.453  0.00  0.00    +0.000 A 
ATOM     27  N   UNL     1      48.981  10.155  12.813  0.00  0.00    +0.000 N 
ATOM     28  C   UNL     1      48.773  10.094  11.381  0.00  0.00    +0.000 C 
ATOM     29  C   UNL     1      48.942   8.960  13.518  0.00  0.00    +0.000 A 
ATOM     30  O   UNL     1      48.721   7.881  12.977  0.00  0.00    +0.000 OA
ATOM     31  C   UNL     1      49.144   9.084  14.951  0.00  0.00    +0.000 A 
ENDBRANCH  18  21
ENDBRANCH   2  17
TORSDOF 6
ENDMDL
MODEL 8
REMARK VINA RESULT:    -7.368      4.890      8.028
REMARK INTER + INTRA:         -11.091
REMARK INTER:                  -9.733
REMARK INTRA:                  -1.358
REMARK UNBOUND:                -1.138
REMARK  Name = 
REMARK  8 active torsions:
REMARK  status: ('A' for Active; 'I' for Inactive)
REMARK    1  A    between atoms: C_1  and  C_2
REMARK    2  A    between atoms: C_2  and  N_3
REMARK    3  A    between atoms: C_2  and  C_17
REMARK    4  A    between atoms: C_4  and  C_6
REMARK    5  A    between atoms: N_12  and  C_13
REMARK    6  A    between atoms: C_20  and  C_21
REMARK    7  A    between atoms: C_21  and  C_22
REMARK    8  A    between atoms: C_22  and  C_23
REMARK                            x       y       z     vdW  Elec       q    Type
REMARK                         _______ _______ _______ _____ _____    ______ ____
ROOT
ATOM      1  C   UNL     1      46.043   8.879  13.340  0.00  0.00    +0.000 C 
ATOM      2  C   UNL     1      46.502   8.378  11.970  0.00  0.00    +0.000 C 
ENDROOT
BRANCH   2   3
ATOM      3  C   UNL     1      48.009   8.431  11.759  0.00  0.00    +0.000 A 
ATOM      4  C   UNL     1      48.626   9.687  11.685  0.00  0.00    +0.000 A 
ATOM      5  C   UNL     1      49.990   9.806  11.408  0.00  0.00    +0.000 A 
ATOM      6  C   UNL     1      50.792   8.674  11.211  0.00  0.00    +0.000 A 
ATOM      7  C   UNL     1      50.175   7.417  11.276  0.00  0.00    +0.000 A 
ATOM      8  C   UNL     1      48.804   7.298  11.541  0.00  0.00    +0.000 A 
BRANCH   6   9
ATOM      9  C   UNL     1      52.261   8.775  10.848  0.00  0.00    +0.000 C 
BRANCH   9  10
ATOM     10  C   UNL     1      52.965   7.424  10.657  0.00  0.00    +0.000 C 
BRANCH  10  11
ATOM     11  C   UNL     1      53.037   6.977   9.219  0.00  0.00    +0.000 A 
ATOM     12  C   UNL     1      52.757   7.878   8.187  0.00  0.00    +0.000 A 
ATOM     13  C   UNL     1      52.874   7.444   6.876  0.00  0.00    +0.000 A 
ATOM     14  N   UNL     1      53.237   6.191   6.530  0.00  0.00    +0.000 NA
ATOM     15  C   UNL     1      53.497   5.337   7.542  0.00  0.00    +0.000 A 
ATOM     16  C   UNL     1      53.410   5.675   8.885  0.00  0.00    +0.000 A 
ENDBRANCH  10  11
ENDBRANCH   9  10
ENDBRANCH   6   9
ENDBRANCH   2   3
BRANCH   2  17
ATOM     17  N   UNL     1      46.040   7.022  11.744  0.00  0.00    +0.000 N 
ATOM     18  C   UNL     1      44.752   6.711  11.392  0.00  0.00    +0.000 C 
ATOM     19  O   UNL     1      43.878   7.565  11.273  0.00  0.00    +0.000 OA
ATOM     20  H   UNL     1      46.758   6.309  11.676  0.00  0.00    +0.000 HD
BRANCH  18  21
ATOM     21  C   UNL     1      44.456   5.279  11.217  0.00  0.00    +0.000 A 
ATOM     22  C   UNL     1      43.656   4.622  12.138  0.00  0.00    +0.000 A 
ATOM     23  S   UNL     1      43.424   2.969  11.783  0.00  0.00    +0.000 S 
ATOM     24  C   UNL     1      44.362   3.086  10.371  0.00  0.00    +0.000 A 
ATOM     25  N   UNL     1      44.548   2.010   9.564  0.00  0.00    +0.000 NA
ATOM     26  C   UNL     1      45.269   2.239   8.515  0.00  0.00    +0.000 A 
ATOM     27  N   UNL     1      45.834   3.454   8.185  0.00  0.00    +0.000 N 
ATOM     28  C   UNL     1      46.648   3.599   6.996  0.00  0.00    +0.000 C 
ATOM     29  C   UNL     1      45.681   4.569   8.998  0.00  0.00    +0.000 A 
ATOM     30  O   UNL     1      46.221   5.643   8.753  0.00  0.00    +0.000 OA
ATOM     31  C   UNL     1      44.864   4.359  10.181  0.00  0.00    +0.000 A 
ENDBRANCH  18  21
ENDBRANCH   2  17
TORSDOF 6
ENDMDL
MODEL 9
REMARK VINA RESULT:    -6.564      3.824      8.167
REMARK INTER + INTRA:         -10.004
REMARK INTER:                  -8.135
REMARK INTRA:                  -1.870
REMARK UNBOUND:                -1.138
REMARK  Name = 
REMARK  8 active torsions:
REMARK  status: ('A' for Active; 'I' for Inactive)
REMARK    1  A    between atoms: C_1  and  C_2
REMARK    2  A    between atoms: C_2  and  N_3
REMARK    3  A    between atoms: C_2  and  C_17
REMARK    4  A    between atoms: C_4  and  C_6
REMARK    5  A    between atoms: N_12  and  C_13
REMARK    6  A    between atoms: C_20  and  C_21
REMARK    7  A    between atoms: C_21  and  C_22
REMARK    8  A    between atoms: C_22  and  C_23
REMARK                            x       y       z     vdW  Elec       q    Type
REMARK                         _______ _______ _______ _____ _____    ______ ____
ROOT
ATOM      1  C   UNL     1      48.917  11.110  15.771  0.00  0.00    +0.000 C 
ATOM      2  C   UNL     1      49.050   9.644  15.358  0.00  0.00    +0.000 C 
ENDROOT
BRANCH   2   3
ATOM      3  C   UNL     1      49.220   8.680  16.524  0.00  0.00    +0.000 A 
ATOM      4  C   UNL     1      50.246   7.729  16.456  0.00  0.00    +0.000 A 
ATOM      5  C   UNL     1      50.402   6.761  17.452  0.00  0.00    +0.000 A 
ATOM      6  C   UNL     1      49.547   6.719  18.561  0.00  0.00    +0.000 A 
ATOM      7  C   UNL     1      48.513   7.664  18.627  0.00  0.00    +0.000 A 
ATOM      8  C   UNL     1      48.349   8.625  17.621  0.00  0.00    +0.000 A 
BRANCH   6   9
ATOM      9  C   UNL     1      49.653   5.643  19.625  0.00  0.00    +0.000 C 
BRANCH   9  10
ATOM     10  C   UNL     1      48.624   4.512  19.493  0.00  0.00    +0.000 C 
BRANCH  10  11
ATOM     11  C   UNL     1      48.788   3.688  18.242  0.00  0.00    +0.000 A 
ATOM     12  C   UNL     1      49.943   2.924  18.048  0.00  0.00    +0.000 A 
ATOM     13  C   UNL     1      50.041   2.145  16.906  0.00  0.00    +0.000 A 
ATOM     14  N   UNL     1      49.086   2.085  15.954  0.00  0.00    +0.000 NA
ATOM     15  C   UNL     1      47.983   2.836  16.159  0.00  0.00    +0.000 A 
ATOM     16  C   UNL     1      47.790   3.644  17.269  0.00  0.00    +0.000 A 
ENDBRANCH  10  11
ENDBRANCH   9  10
ENDBRANCH   6   9
ENDBRANCH   2   3
BRANCH   2  17
ATOM     17  N   UNL     1      47.905   9.234  14.567  0.00  0.00    +0.000 N 
ATOM     18  C   UNL     1      48.010   8.556  13.381  0.00  0.00    +0.000 C 
ATOM     19  O   UNL     1      49.093   8.270  12.879  0.00  0.00    +0.000 OA
ATOM     20  H   UNL     1      46.999   9.307  15.018  0.00  0.00    +0.000 HD
BRANCH  18  21
ATOM     21  C   UNL     1      46.743   8.232  12.705  0.00  0.00    +0.000 A 
ATOM     22  C   UNL     1      45.987   9.243  12.133  0.00  0.00    +0.000 A 
ATOM     23  S   UNL     1      44.549   8.689  11.400  0.00  0.00    +0.000 S 
ATOM     24  C   UNL     1      44.904   7.075  11.800  0.00  0.00    +0.000 A 
ATOM     25  N   UNL     1      44.074   6.066  11.432  0.00  0.00    +0.000 NA
ATOM     26  C   UNL     1      44.470   4.885  11.786  0.00  0.00    +0.000 A 
ATOM     27  N   UNL     1      45.629   4.608  12.480  0.00  0.00    +0.000 N 
ATOM     28  C   UNL     1      45.970   3.249  12.851  0.00  0.00    +0.000 C 
ATOM     29  C   UNL     1      46.489   5.618  12.889  0.00  0.00    +0.000 A 
ATOM     30  O   UNL     1      47.495   5.398  13.557  0.00  0.00    +0.000 OA
ATOM     31  C   UNL     1      46.090   6.959  12.500  0.00  0.00    +0.000 A 
ENDBRANCH  18  21
ENDBRANCH   2  17
TORSDOF 6
ENDMDL
