MODEL 1
REMARK VINA RESULT:    -7.135      0.000      0.000
REMARK INTER + INTRA:         -11.307
REMARK INTER:                 -10.054
REMARK INTRA:                  -1.253
REMARK UNBOUND:                -1.253
REMARK  Name = 
REMARK  8 active torsions:
REMARK  status: ('A' for Active; 'I' for Inactive)
REMARK    1  A    between atoms: C_1  and  O_2
REMARK    2  A    between atoms: O_2  and  C_3
REMARK    3  A    between atoms: C_5  and  C_6
REMARK    4  A    between atoms: C_6  and  N_7
REMARK    5  A    between atoms: C_8  and  C_10
REMARK    6  A    between atoms: C_22  and  C_23
REMARK    7  A    between atoms: C_23  and  N_24
REMARK    8  A    between atoms: C_29  and  C_30
REMARK                            x       y       z     vdW  Elec       q    Type
REMARK                         _______ _______ _______ _____ _____    ______ ____
ROOT
ATOM      1  C   UNL     1      49.455   4.358  17.408  0.00  0.00    +0.000 A 
ATOM      2  C   UNL     1      48.931   5.486  16.747  0.00  0.00    +0.000 A 
ATOM      3  C   UNL     1      49.750   6.516  16.256  0.00  0.00    +0.000 A 
ATOM      4  C   UNL     1      51.121   6.448  16.492  0.00  0.00    +0.000 A 
ATOM      5  C   UNL     1      51.653   5.318  17.110  0.00  0.00    +0.000 A 
ATOM      6  C   UNL     1      50.843   4.237  17.543  0.00  0.00    +0.000 A 
ENDROOT
BRANCH   1   8
ATOM      7  C   UNL     1      47.150   3.683  17.310  0.00  0.00    +0.000 C 
ATOM      8  O   UNL     1      48.492   3.431  17.705  0.00  0.00    +0.000 OA
ENDBRANCH   1   8
BRANCH   3   9
ATOM      9  C   UNL     1      49.165   7.626  15.421  0.00  0.00    +0.000 C 
BRANCH   9  10
ATOM     10  N   UNL     1      47.947   7.257  14.753  0.00  0.00    +0.000 N 
ATOM     11  C   UNL     1      47.995   6.665  13.511  0.00  0.00    +0.000 C 
ATOM     12  O   UNL     1      49.073   6.400  12.978  0.00  0.00    +0.000 OA
ATOM     13  H   UNL     1      47.065   7.540  15.164  0.00  0.00    +0.000 HD
BRANCH  11  14
ATOM     14  C   UNL     1      46.725   6.350  12.838  0.00  0.00    +0.000 A 
ATOM     15  C   UNL     1      46.013   7.381  12.234  0.00  0.00    +0.000 A 
ATOM     16  S   UNL     1      44.565   6.883  11.492  0.00  0.00    +0.000 S 
ATOM     17  C   UNL     1      44.821   5.271  11.963  0.00  0.00    +0.000 A 
ATOM     18  N   UNL     1      43.908   4.309  11.648  0.00  0.00    +0.000 NA
ATOM     19  C   UNL     1      44.215   3.127  12.067  0.00  0.00    +0.000 A 
ATOM     20  N   UNL     1      45.350   2.822  12.765  0.00  0.00    +0.000 N 
ATOM     21  C   UNL     1      46.304   3.759  13.106  0.00  0.00    +0.000 A 
ATOM     22  O   UNL     1      47.303   3.442  13.727  0.00  0.00    +0.000 OA
ATOM     23  C   UNL     1      46.001   5.105  12.664  0.00  0.00    +0.000 A 
ATOM     24  H   UNL     1      45.535   1.875  13.067  0.00  0.00    +0.000 HD
ENDBRANCH  11  14
ENDBRANCH   9  10
ENDBRANCH   3   9
BRANCH   6  25
ATOM     25  C   UNL     1      51.588   2.979  17.958  0.00  0.00    +0.000 C 
BRANCH  25  26
ATOM     26  N   UNL     1      53.001   3.264  18.258  0.00  0.00    +0.000 NA
ATOM     27  C   UNL     1      53.207   3.599  19.661  0.00  0.00    +0.000 C 
ATOM     28  C   UNL     1      54.620   4.082  19.958  0.00  0.00    +0.000 C 
ATOM     29  C   UNL     1      55.692   3.183  19.366  0.00  0.00    +0.000 C 
ATOM     30  C   UNL     1      55.411   2.825  17.911  0.00  0.00    +0.000 C 
ATOM     31  C   UNL     1      53.977   2.349  17.628  0.00  0.00    +0.000 C 
BRANCH  31  32
ATOM     32  C   UNL     1      53.708   0.828  17.822  0.00  0.00    +0.000 C 
ATOM     33  N   UNL     1      53.409   0.106  16.695  0.00  0.00    +0.000 N 
ATOM     34  O   UNL     1      53.584   0.265  18.908  0.00  0.00    +0.000 OA
ATOM     35  H   UNL     1      53.700   0.369  15.765  0.00  0.00    +0.000 HD
ATOM     36  H   UNL     1      53.152  -0.865  16.836  0.00  0.00    +0.000 HD
ENDBRANCH  31  32
ENDBRANCH  25  26
ENDBRANCH   6  25
TORSDOF 7
ENDMDL
MODEL 2
REMARK VINA RESULT:    -7.038      6.313      9.736
REMARK INTER + INTRA:         -11.170
REMARK INTER:                  -9.721
REMARK INTRA:                  -1.449
REMARK UNBOUND:                -1.253
REMARK  Name = 
REMARK  8 active torsions:
REMARK  status: ('A' for Active; 'I' for Inactive)
REMARK    1  A    between atoms: C_1  and  O_2
REMARK    2  A    between atoms: O_2  and  C_3
REMARK    3  A    between atoms: C_5  and  C_6
REMARK    4  A    between atoms: C_6  and  N_7
REMARK    5  A    between atoms: C_8  and  C_10
REMARK    6  A    between atoms: C_22  and  C_23
REMARK    7  A    between atoms: C_23  and  N_24
REMARK    8  A    between atoms: C_29  and  C_30
REMARK                            x       y       z     vdW  Elec       q    Type
REMARK                         _______ _______ _______ _____ _____    ______ ____
ROOT
ATOM      1  C   UNL     1      46.678   8.124  12.295  0.00  0.00    +0.000 A 
ATOM      2  C   UNL     1      47.896   8.689  11.869  0.00  0.00    +0.000 A 
ATOM      3  C   UNL     1      49.122   8.013  11.990  0.00  0.00    +0.000 A 
ATOM      4  C   UNL     1      49.137   6.769  12.616  0.00  0.00    +0.000 A 
ATOM      5  C   UNL     1      47.933   6.185  13.005  0.00  0.00    +0.000 A 
ATOM      6  C   UNL     1      46.682   6.827  12.819  0.00  0.00    +0.000 A 
ENDROOT
BRANCH   1   8
ATOM      7  C   UNL     1      45.787  10.310  11.841  0.00  0.00    +0.000 C 
ATOM      8  O   UNL     1      45.601   8.908  11.983  0.00  0.00    +0.000 OA
ENDBRANCH   1   8
BRANCH   3   9
ATOM      9  C   UNL     1      50.376   8.587  11.382  0.00  0.00    +0.000 C 
BRANCH   9  10
ATOM     10  N   UNL     1      51.395   7.603  11.141  0.00  0.00    +0.000 N 
ATOM     11  C   UNL     1      52.367   7.837  10.194  0.00  0.00    +0.000 C 
ATOM     12  O   UNL     1      52.407   8.903   9.578  0.00  0.00    +0.000 OA
ATOM     13  H   UNL     1      51.316   6.702  11.598  0.00  0.00    +0.000 HD
BRANCH  11  14
ATOM     14  C   UNL     1      53.360   6.783   9.939  0.00  0.00    +0.000 A 
ATOM     15  C   UNL     1      54.267   6.458  10.943  0.00  0.00    +0.000 A 
ATOM     16  S   UNL     1      55.360   5.225  10.519  0.00  0.00    +0.000 S 
ATOM     17  C   UNL     1      54.678   5.085   8.970  0.00  0.00    +0.000 A 
ATOM     18  N   UNL     1      55.184   4.191   8.074  0.00  0.00    +0.000 NA
ATOM     19  C   UNL     1      54.582   4.185   6.931  0.00  0.00    +0.000 A 
ATOM     20  N   UNL     1      53.522   4.985   6.609  0.00  0.00    +0.000 N 
ATOM     21  C   UNL     1      52.973   5.903   7.481  0.00  0.00    +0.000 A 
ATOM     22  O   UNL     1      52.026   6.596   7.152  0.00  0.00    +0.000 OA
ATOM     23  C   UNL     1      53.619   5.954   8.776  0.00  0.00    +0.000 A 
ATOM     24  H   UNL     1      53.092   4.935   5.695  0.00  0.00    +0.000 HD
ENDBRANCH  11  14
ENDBRANCH   9  10
ENDBRANCH   3   9
BRANCH   6  25
ATOM     25  C   UNL     1      45.455   5.962  13.055  0.00  0.00    +0.000 C 
BRANCH  25  26
ATOM     26  N   UNL     1      45.237   5.021  11.943  0.00  0.00    +0.000 NA
ATOM     27  C   UNL     1      44.978   3.666  12.414  0.00  0.00    +0.000 C 
ATOM     28  C   UNL     1      44.938   2.641  11.289  0.00  0.00    +0.000 C 
ATOM     29  C   UNL     1      44.069   3.073  10.121  0.00  0.00    +0.000 C 
ATOM     30  C   UNL     1      44.346   4.510   9.692  0.00  0.00    +0.000 C 
ATOM     31  C   UNL     1      44.393   5.530  10.842  0.00  0.00    +0.000 C 
BRANCH  31  32
ATOM     32  C   UNL     1      43.028   6.153  11.261  0.00  0.00    +0.000 C 
ATOM     33  N   UNL     1      42.892   7.508  11.094  0.00  0.00    +0.000 N 
ATOM     34  O   UNL     1      42.139   5.562  11.871  0.00  0.00    +0.000 OA
ATOM     35  H   UNL     1      43.414   8.046  10.420  0.00  0.00    +0.000 HD
ATOM     36  H   UNL     1      42.036   7.921  11.447  0.00  0.00    +0.000 HD
ENDBRANCH  31  32
ENDBRANCH  25  26
ENDBRANCH   6  25
TORSDOF 7
ENDMDL
MODEL 3
REMARK VINA RESULT:    -6.994      3.262      4.893
REMARK INTER + INTRA:         -11.109
REMARK INTER:                  -9.327
REMARK INTRA:                  -1.782
REMARK UNBOUND:                -1.253
REMARK  Name = 
REMARK  8 active torsions:
REMARK  status: ('A' for Active; 'I' for Inactive)
REMARK    1  A    between atoms: C_1  and  O_2
REMARK    2  A    between atoms: O_2  and  C_3
REMARK    3  A    between atoms: C_5  and  C_6
REMARK    4  A    between atoms: C_6  and  N_7
REMARK    5  A    between atoms: C_8  and  C_10
REMARK    6  A    between atoms: C_22  and  C_23
REMARK    7  A    between atoms: C_23  and  N_24
REMARK    8  A    between atoms: C_29  and  C_30
REMARK                            x       y       z     vdW  Elec       q    Type
REMARK                         _______ _______ _______ _____ _____    ______ ____
ROOT
ATOM      1  C   UNL     1      48.579   8.677  15.424  0.00  0.00    +0.000 A 
ATOM      2  C   UNL     1      47.789   8.780  14.263  0.00  0.00    +0.000 A 
ATOM      3  C   UNL     1      48.155   8.175  13.049  0.00  0.00    +0.000 A 
ATOM      4  C   UNL     1      49.377   7.510  12.978  0.00  0.00    +0.000 A 
ATOM      5  C   UNL     1      50.147   7.370  14.132  0.00  0.00    +0.000 A 
ATOM      6  C   UNL     1      49.749   7.912  15.381  0.00  0.00    +0.000 A 
ENDROOT
BRANCH   1   8
ATOM      7  C   UNL     1      48.487  10.481  17.012  0.00  0.00    +0.000 C 
ATOM      8  O   UNL     1      47.981   9.249  16.515  0.00  0.00    +0.000 OA
ENDBRANCH   1   8
BRANCH   3   9
ATOM      9  C   UNL     1      47.209   8.178  11.876  0.00  0.00    +0.000 C 
BRANCH   9  10
ATOM     10  N   UNL     1      46.638   6.888  11.600  0.00  0.00    +0.000 N 
ATOM     11  C   UNL     1      45.271   6.725  11.607  0.00  0.00    +0.000 C 
ATOM     12  O   UNL     1      44.520   7.682  11.800  0.00  0.00    +0.000 OA
ATOM     13  H   UNL     1      47.260   6.093  11.512  0.00  0.00    +0.000 HD
BRANCH  11  14
ATOM     14  C   UNL     1      44.728   5.378  11.372  0.00  0.00    +0.000 A 
ATOM     15  C   UNL     1      43.935   4.795  12.355  0.00  0.00    +0.000 A 
ATOM     16  S   UNL     1      43.371   3.239  11.959  0.00  0.00    +0.000 S 
ATOM     17  C   UNL     1      44.179   3.274  10.464  0.00  0.00    +0.000 A 
ATOM     18  N   UNL     1      44.115   2.203   9.623  0.00  0.00    +0.000 NA
ATOM     19  C   UNL     1      44.775   2.350   8.523  0.00  0.00    +0.000 A 
ATOM     20  N   UNL     1      45.484   3.471   8.189  0.00  0.00    +0.000 N 
ATOM     21  C   UNL     1      45.576   4.580   9.004  0.00  0.00    +0.000 A 
ATOM     22  O   UNL     1      46.219   5.559   8.665  0.00  0.00    +0.000 OA
ATOM     23  C   UNL     1      44.858   4.460  10.257  0.00  0.00    +0.000 A 
ATOM     24  H   UNL     1      45.982   3.527   7.311  0.00  0.00    +0.000 HD
ENDBRANCH  11  14
ENDBRANCH   9  10
ENDBRANCH   3   9
BRANCH   6  25
ATOM     25  C   UNL     1      50.558   7.458  16.584  0.00  0.00    +0.000 C 
BRANCH  25  26
ATOM     26  N   UNL     1      50.447   6.004  16.790  0.00  0.00    +0.000 NA
ATOM     27  C   UNL     1      51.644   5.445  17.406  0.00  0.00    +0.000 C 
ATOM     28  C   UNL     1      51.634   3.923  17.457  0.00  0.00    +0.000 C 
ATOM     29  C   UNL     1      50.331   3.354  17.992  0.00  0.00    +0.000 C 
ATOM     30  C   UNL     1      49.109   4.000  17.349  0.00  0.00    +0.000 C 
ATOM     31  C   UNL     1      49.140   5.536  17.298  0.00  0.00    +0.000 C 
BRANCH  31  32
ATOM     32  C   UNL     1      48.593   6.275  18.555  0.00  0.00    +0.000 C 
ATOM     33  N   UNL     1      47.436   6.993  18.393  0.00  0.00    +0.000 N 
ATOM     34  O   UNL     1      49.194   6.396  19.621  0.00  0.00    +0.000 OA
ATOM     35  H   UNL     1      46.746   6.794  17.685  0.00  0.00    +0.000 HD
ATOM     36  H   UNL     1      47.130   7.541  19.189  0.00  0.00    +0.000 HD
ENDBRANCH  31  32
ENDBRANCH  25  26
ENDBRANCH   6  25
TORSDOF 7
ENDMDL
MODEL 4
REMARK VINA RESULT:    -6.850      2.598      3.777
REMARK INTER + INTRA:         -10.906
REMARK INTER:                  -9.464
REMARK INTRA:                  -1.442
REMARK UNBOUND:                -1.253
REMARK  Name = 
REMARK  8 active torsions:
REMARK  status: ('A' for Active; 'I' for Inactive)
REMARK    1  A    between atoms: C_1  and  O_2
REMARK    2  A    between atoms: O_2  and  C_3
REMARK    3  A    between atoms: C_5  and  C_6
REMARK    4  A    between atoms: C_6  and  N_7
REMARK    5  A    between atoms: C_8  and  C_10
REMARK    6  A    between atoms: C_22  and  C_23
REMARK    7  A    between atoms: C_23  and  N_24
REMARK    8  A    between atoms: C_29  and  C_30
REMARK                            x       y       z     vdW  Elec       q    Type
REMARK                         _______ _______ _______ _____ _____    ______ ____
ROOT
ATOM      1  C   UNL     1      48.869   7.931  17.201  0.00  0.00    +0.000 A 
ATOM      2  C   UNL     1      48.205   8.586  16.145  0.00  0.00    +0.000 A 
ATOM      3  C   UNL     1      48.610   8.453  14.806  0.00  0.00    +0.000 A 
ATOM      4  C   UNL     1      49.749   7.701  14.526  0.00  0.00    +0.000 A 
ATOM      5  C   UNL     1      50.388   7.018  15.559  0.00  0.00    +0.000 A 
ATOM      6  C   UNL     1      49.943   7.085  16.904  0.00  0.00    +0.000 A 
ENDROOT
BRANCH   1   8
ATOM      7  C   UNL     1      47.976   9.438  18.848  0.00  0.00    +0.000 C 
ATOM      8  O   UNL     1      48.243   8.114  18.405  0.00  0.00    +0.000 OA
ENDBRANCH   1   8
BRANCH   3   9
ATOM      9  C   UNL     1      47.781   9.043  13.694  0.00  0.00    +0.000 C 
BRANCH   9  10
ATOM     10  N   UNL     1      46.608   8.273  13.386  0.00  0.00    +0.000 N 
ATOM     11  C   UNL     1      46.663   7.291  12.422  0.00  0.00    +0.000 C 
ATOM     12  O   UNL     1      47.720   7.027  11.848  0.00  0.00    +0.000 OA
ATOM     13  H   UNL     1      45.727   8.541  13.810  0.00  0.00    +0.000 HD
BRANCH  11  14
ATOM     14  C   UNL     1      45.427   6.561  12.098  0.00  0.00    +0.000 A 
ATOM     15  C   UNL     1      44.365   7.258  11.532  0.00  0.00    +0.000 A 
ATOM     16  S   UNL     1      42.999   6.298  11.207  0.00  0.00    +0.000 S 
ATOM     17  C   UNL     1      43.765   4.913  11.826  0.00  0.00    +0.000 A 
ATOM     18  N   UNL     1      43.107   3.719  11.857  0.00  0.00    +0.000 NA
ATOM     19  C   UNL     1      43.794   2.746  12.355  0.00  0.00    +0.000 A 
ATOM     20  N   UNL     1      45.075   2.859  12.817  0.00  0.00    +0.000 N 
ATOM     21  C   UNL     1      45.783   4.044  12.805  0.00  0.00    +0.000 A 
ATOM     22  O   UNL     1      46.926   4.098  13.227  0.00  0.00    +0.000 OA
ATOM     23  C   UNL     1      45.051   5.169  12.262  0.00  0.00    +0.000 A 
ATOM     24  H   UNL     1      45.562   2.059  13.198  0.00  0.00    +0.000 HD
ENDBRANCH  11  14
ENDBRANCH   9  10
ENDBRANCH   3   9
BRANCH   6  25
ATOM     25  C   UNL     1      50.580   6.091  17.860  0.00  0.00    +0.000 C 
BRANCH  25  26
ATOM     26  N   UNL     1      50.424   4.707  17.382  0.00  0.00    +0.000 NA
ATOM     27  C   UNL     1      51.406   3.808  17.975  0.00  0.00    +0.000 C 
ATOM     28  C   UNL     1      51.389   2.416  17.358  0.00  0.00    +0.000 C 
ATOM     29  C   UNL     1      49.992   1.831  17.248  0.00  0.00    +0.000 C 
ATOM     30  C   UNL     1      48.992   2.822  16.663  0.00  0.00    +0.000 C 
ATOM     31  C   UNL     1      49.029   4.225  17.291  0.00  0.00    +0.000 C 
BRANCH  31  32
ATOM     32  C   UNL     1      48.152   4.431  18.561  0.00  0.00    +0.000 C 
ATOM     33  N   UNL     1      48.488   3.694  19.668  0.00  0.00    +0.000 N 
ATOM     34  O   UNL     1      47.102   5.070  18.599  0.00  0.00    +0.000 OA
ATOM     35  H   UNL     1      49.415   3.338  19.846  0.00  0.00    +0.000 HD
ATOM     36  H   UNL     1      47.865   3.767  20.464  0.00  0.00    +0.000 HD
ENDBRANCH  31  32
ENDBRANCH  25  26
ENDBRANCH   6  25
TORSDOF 7
ENDMDL
MODEL 5
REMARK VINA RESULT:    -6.743      1.465      2.228
REMARK INTER + INTRA:         -10.756
REMARK INTER:                  -9.628
REMARK INTRA:                  -1.128
REMARK UNBOUND:                -1.253
REMARK  Name = 
REMARK  8 active torsions:
REMARK  status: ('A' for Active; 'I' for Inactive)
REMARK    1  A    between atoms: C_1  and  O_2
REMARK    2  A    between atoms: O_2  and  C_3
REMARK    3  A    between atoms: C_5  and  C_6
REMARK    4  A    between atoms: C_6  and  N_7
REMARK    5  A    between atoms: C_8  and  C_10
REMARK    6  A    between atoms: C_22  and  C_23
REMARK    7  A    between atoms: C_23  and  N_24
REMARK    8  A    between atoms: C_29  and  C_30
REMARK                            x       y       z     vdW  Elec       q    Type
REMARK                         _______ _______ _______ _____ _____    ______ ____
ROOT
ATOM      1  C   UNL     1      51.086   6.211  16.846  0.00  0.00    +0.000 A 
ATOM      2  C   UNL     1      50.440   7.010  15.882  0.00  0.00    +0.000 A 
ATOM      3  C   UNL     1      49.109   6.788  15.491  0.00  0.00    +0.000 A 
ATOM      4  C   UNL     1      48.430   5.697  16.030  0.00  0.00    +0.000 A 
ATOM      5  C   UNL     1      49.046   4.925  17.013  0.00  0.00    +0.000 A 
ATOM      6  C   UNL     1      50.364   5.187  17.468  0.00  0.00    +0.000 A 
ENDROOT
BRANCH   1   8
ATOM      7  C   UNL     1      53.389   6.478  16.213  0.00  0.00    +0.000 C 
ATOM      8  O   UNL     1      52.339   6.670  17.151  0.00  0.00    +0.000 OA
ENDBRANCH   1   8
BRANCH   3   9
ATOM      9  C   UNL     1      48.409   7.758  14.574  0.00  0.00    +0.000 C 
BRANCH   9  10
ATOM     10  N   UNL     1      47.158   7.263  14.068  0.00  0.00    +0.000 N 
ATOM     11  C   UNL     1      47.093   6.726  12.801  0.00  0.00    +0.000 C 
ATOM     12  O   UNL     1      48.104   6.619  12.107  0.00  0.00    +0.000 OA
ATOM     13  H   UNL     1      46.319   7.418  14.614  0.00  0.00    +0.000 HD
BRANCH  11  14
ATOM     14  C   UNL     1      45.784   6.280  12.300  0.00  0.00    +0.000 A 
ATOM     15  C   UNL     1      44.929   7.217  11.729  0.00  0.00    +0.000 A 
ATOM     16  S   UNL     1      43.450   6.570  11.189  0.00  0.00    +0.000 S 
ATOM     17  C   UNL     1      43.885   5.013  11.712  0.00  0.00    +0.000 A 
ATOM     18  N   UNL     1      43.021   3.970  11.558  0.00  0.00    +0.000 NA
ATOM     19  C   UNL     1      43.466   2.841  12.000  0.00  0.00    +0.000 A 
ATOM     20  N   UNL     1      44.694   2.663  12.575  0.00  0.00    +0.000 N 
ATOM     21  C   UNL     1      45.603   3.686  12.751  0.00  0.00    +0.000 A 
ATOM     22  O   UNL     1      46.688   3.482  13.268  0.00  0.00    +0.000 OA
ATOM     23  C   UNL     1      45.146   4.976  12.278  0.00  0.00    +0.000 A 
ATOM     24  H   UNL     1      44.986   1.752  12.903  0.00  0.00    +0.000 HD
ENDBRANCH  11  14
ENDBRANCH   9  10
ENDBRANCH   3   9
BRANCH   6  25
ATOM     25  C   UNL     1      50.794   4.427  18.712  0.00  0.00    +0.000 C 
BRANCH  25  26
ATOM     26  N   UNL     1      52.174   3.929  18.589  0.00  0.00    +0.000 NA
ATOM     27  C   UNL     1      52.764   3.622  19.886  0.00  0.00    +0.000 C 
ATOM     28  C   UNL     1      54.247   3.288  19.803  0.00  0.00    +0.000 C 
ATOM     29  C   UNL     1      54.569   2.278  18.715  0.00  0.00    +0.000 C 
ATOM     30  C   UNL     1      53.896   2.618  17.390  0.00  0.00    +0.000 C 
ATOM     31  C   UNL     1      52.401   2.962  17.494  0.00  0.00    +0.000 C 
BRANCH  31  32
ATOM     32  C   UNL     1      51.414   1.759  17.432  0.00  0.00    +0.000 C 
ATOM     33  N   UNL     1      51.777   0.628  18.118  0.00  0.00    +0.000 N 
ATOM     34  O   UNL     1      50.431   1.689  16.697  0.00  0.00    +0.000 OA
ATOM     35  H   UNL     1      52.396   0.628  18.915  0.00  0.00    +0.000 HD
ATOM     36  H   UNL     1      51.175  -0.180  18.006  0.00  0.00    +0.000 HD
ENDBRANCH  31  32
ENDBRANCH  25  26
ENDBRANCH   6  25
TORSDOF 7
ENDMDL
MODEL 6
REMARK VINA RESULT:    -6.550      4.613      6.881
REMARK INTER + INTRA:         -10.483
REMARK INTER:                  -9.331
REMARK INTRA:                  -1.152
REMARK UNBOUND:                -1.253
REMARK  Name = 
REMARK  8 active torsions:
REMARK  status: ('A' for Active; 'I' for Inactive)
REMARK    1  A    between atoms: C_1  and  O_2
REMARK    2  A    between atoms: O_2  and  C_3
REMARK    3  A    between atoms: C_5  and  C_6
REMARK    4  A    between atoms: C_6  and  N_7
REMARK    5  A    between atoms: C_8  and  C_10
REMARK    6  A    between atoms: C_22  and  C_23
REMARK    7  A    between atoms: C_23  and  N_24
REMARK    8  A    between atoms: C_29  and  C_30
REMARK                            x       y       z     vdW  Elec       q    Type
REMARK                         _______ _______ _______ _____ _____    ______ ____
ROOT
ATOM      1  C   UNL     1      50.279   7.975  13.740  0.00  0.00    +0.000 A 
ATOM      2  C   UNL     1      48.892   7.959  13.983  0.00  0.00    +0.000 A 
ATOM      3  C   UNL     1      47.953   8.331  13.006  0.00  0.00    +0.000 A 
ATOM      4  C   UNL     1      48.418   8.797  11.778  0.00  0.00    +0.000 A 
ATOM      5  C   UNL     1      49.787   8.779  11.515  0.00  0.00    +0.000 A 
ATOM      6  C   UNL     1      50.738   8.334  12.468  0.00  0.00    +0.000 A 
ENDROOT
BRANCH   1   8
ATOM      7  C   UNL     1      50.308   7.023  15.947  0.00  0.00    +0.000 C 
ATOM      8  O   UNL     1      50.999   7.473  14.790  0.00  0.00    +0.000 OA
ENDBRANCH   1   8
BRANCH   3   9
ATOM      9  C   UNL     1      46.477   8.151  13.255  0.00  0.00    +0.000 C 
BRANCH   9  10
ATOM     10  N   UNL     1      46.005   6.827  12.956  0.00  0.00    +0.000 N 
ATOM     11  C   UNL     1      45.206   6.614  11.855  0.00  0.00    +0.000 C 
ATOM     12  O   UNL     1      44.924   7.536  11.089  0.00  0.00    +0.000 OA
ATOM     13  H   UNL     1      46.181   6.088  13.626  0.00  0.00    +0.000 HD
BRANCH  11  14
ATOM     14  C   UNL     1      44.700   5.254  11.613  0.00  0.00    +0.000 A 
ATOM     15  C   UNL     1      43.974   4.620  12.616  0.00  0.00    +0.000 A 
ATOM     16  S   UNL     1      43.447   3.054  12.209  0.00  0.00    +0.000 S 
ATOM     17  C   UNL     1      44.183   3.152  10.680  0.00  0.00    +0.000 A 
ATOM     18  N   UNL     1      44.118   2.099   9.817  0.00  0.00    +0.000 NA
ATOM     19  C   UNL     1      44.721   2.295   8.692  0.00  0.00    +0.000 A 
ATOM     20  N   UNL     1      45.374   3.447   8.353  0.00  0.00    +0.000 N 
ATOM     21  C   UNL     1      45.465   4.540   9.190  0.00  0.00    +0.000 A 
ATOM     22  O   UNL     1      46.056   5.549   8.846  0.00  0.00    +0.000 OA
ATOM     23  C   UNL     1      44.810   4.366  10.470  0.00  0.00    +0.000 A 
ATOM     24  H   UNL     1      45.828   3.541   7.455  0.00  0.00    +0.000 HD
ENDBRANCH  11  14
ENDBRANCH   9  10
ENDBRANCH   3   9
BRANCH   6  25
ATOM     25  C   UNL     1      52.151   8.134  11.945  0.00  0.00    +0.000 C 
BRANCH  25  26
ATOM     26  N   UNL     1      52.212   8.292  10.483  0.00  0.00    +0.000 NA
ATOM     27  C   UNL     1      52.823   9.557  10.094  0.00  0.00    +0.000 C 
ATOM     28  C   UNL     1      52.727   9.831   8.599  0.00  0.00    +0.000 C 
ATOM     29  C   UNL     1      53.149   8.645   7.748  0.00  0.00    +0.000 C 
ATOM     30  C   UNL     1      52.518   7.340   8.220  0.00  0.00    +0.000 C 
ATOM     31  C   UNL     1      52.616   7.084   9.733  0.00  0.00    +0.000 C 
BRANCH  31  32
ATOM     32  C   UNL     1      53.912   6.377  10.227  0.00  0.00    +0.000 C 
ATOM     33  N   UNL     1      53.784   5.078  10.648  0.00  0.00    +0.000 N 
ATOM     34  O   UNL     1      54.992   6.935  10.419  0.00  0.00    +0.000 OA
ATOM     35  H   UNL     1      53.056   4.455  10.335  0.00  0.00    +0.000 HD
ATOM     36  H   UNL     1      54.612   4.650  11.048  0.00  0.00    +0.000 HD
ENDBRANCH  31  32
ENDBRANCH  25  26
ENDBRANCH   6  25
TORSDOF 7
ENDMDL
MODEL 7
REMARK VINA RESULT:    -6.064      4.915      6.918
REMARK INTER + INTRA:          -9.798
REMARK INTER:                  -8.690
REMARK INTRA:                  -1.108
REMARK UNBOUND:                -1.253
REMARK  Name = 
REMARK  8 active torsions:
REMARK  status: ('A' for Active; 'I' for Inactive)
REMARK    1  A    between atoms: C_1  and  O_2
REMARK    2  A    between atoms: O_2  and  C_3
REMARK    3  A    between atoms: C_5  and  C_6
REMARK    4  A    between atoms: C_6  and  N_7
REMARK    5  A    between atoms: C_8  and  C_10
REMARK    6  A    between atoms: C_22  and  C_23
REMARK    7  A    between atoms: C_23  and  N_24
REMARK    8  A    between atoms: C_29  and  C_30
REMARK                            x       y       z     vdW  Elec       q    Type
REMARK                         _______ _______ _______ _____ _____    ______ ____
ROOT
ATOM      1  C   UNL     1      51.650   9.536  13.181  0.00  0.00    +0.000 A 
ATOM      2  C   UNL     1      50.657   9.020  14.036  0.00  0.00    +0.000 A 
ATOM      3  C   UNL     1      49.384   8.648  13.572  0.00  0.00    +0.000 A 
ATOM      4  C   UNL     1      49.076   8.862  12.230  0.00  0.00    +0.000 A 
ATOM      5  C   UNL     1      50.065   9.334  11.368  0.00  0.00    +0.000 A 
ATOM      6  C   UNL     1      51.376   9.642  11.813  0.00  0.00    +0.000 A 
ENDROOT
BRANCH   1   8
ATOM      7  C   UNL     1      53.024   9.181  15.122  0.00  0.00    +0.000 C 
ATOM      8  O   UNL     1      52.844   9.728  13.823  0.00  0.00    +0.000 OA
ENDBRANCH   1   8
BRANCH   3   9
ATOM      9  C   UNL     1      48.407   7.957  14.488  0.00  0.00    +0.000 C 
BRANCH   9  10
ATOM     10  N   UNL     1      47.178   7.590  13.839  0.00  0.00    +0.000 N 
ATOM     11  C   UNL     1      47.071   6.372  13.208  0.00  0.00    +0.000 C 
ATOM     12  O   UNL     1      48.000   5.563  13.229  0.00  0.00    +0.000 OA
ATOM     13  H   UNL     1      46.444   8.285  13.764  0.00  0.00    +0.000 HD
BRANCH  11  14
ATOM     14  C   UNL     1      45.815   6.056  12.510  0.00  0.00    +0.000 A 
ATOM     15  C   UNL     1      45.100   7.089  11.914  0.00  0.00    +0.000 A 
ATOM     16  S   UNL     1      43.669   6.589  11.141  0.00  0.00    +0.000 S 
ATOM     17  C   UNL     1      43.937   4.971  11.586  0.00  0.00    +0.000 A 
ATOM     18  N   UNL     1      43.040   4.005  11.239  0.00  0.00    +0.000 NA
ATOM     19  C   UNL     1      43.354   2.819  11.640  0.00  0.00    +0.000 A 
ATOM     20  N   UNL     1      44.483   2.514  12.349  0.00  0.00    +0.000 N 
ATOM     21  C   UNL     1      45.420   3.455  12.722  0.00  0.00    +0.000 A 
ATOM     22  O   UNL     1      46.414   3.138  13.353  0.00  0.00    +0.000 OA
ATOM     23  C   UNL     1      45.109   4.805  12.301  0.00  0.00    +0.000 A 
ATOM     24  H   UNL     1      44.674   1.563  12.637  0.00  0.00    +0.000 HD
ENDBRANCH  11  14
ENDBRANCH   9  10
ENDBRANCH   3   9
BRANCH   6  25
ATOM     25  C   UNL     1      52.400   9.896  10.720  0.00  0.00    +0.000 C 
BRANCH  25  26
ATOM     26  N   UNL     1      52.484   8.762   9.785  0.00  0.00    +0.000 NA
ATOM     27  C   UNL     1      53.011   9.159   8.486  0.00  0.00    +0.000 C 
ATOM     28  C   UNL     1      52.931   8.050   7.445  0.00  0.00    +0.000 C 
ATOM     29  C   UNL     1      53.457   6.719   7.952  0.00  0.00    +0.000 C 
ATOM     30  C   UNL     1      52.911   6.367   9.332  0.00  0.00    +0.000 C 
ATOM     31  C   UNL     1      52.991   7.501  10.368  0.00  0.00    +0.000 C 
BRANCH  31  32
ATOM     32  C   UNL     1      54.324   7.607  11.166  0.00  0.00    +0.000 C 
ATOM     33  N   UNL     1      54.291   7.203  12.476  0.00  0.00    +0.000 N 
ATOM     34  O   UNL     1      55.344   8.167  10.768  0.00  0.00    +0.000 OA
ATOM     35  H   UNL     1      53.631   6.534  12.842  0.00  0.00    +0.000 HD
ATOM     36  H   UNL     1      55.136   7.353  13.016  0.00  0.00    +0.000 HD
ENDBRANCH  31  32
ENDBRANCH  25  26
ENDBRANCH   6  25
TORSDOF 7
ENDMDL
MODEL 8
REMARK VINA RESULT:    -5.656      3.098      8.526
REMARK INTER + INTRA:          -9.224
REMARK INTER:                  -8.124
REMARK INTRA:                  -1.100
REMARK UNBOUND:                -1.253
REMARK  Name = 
REMARK  8 active torsions:
REMARK  status: ('A' for Active; 'I' for Inactive)
REMARK    1  A    between atoms: C_1  and  O_2
REMARK    2  A    between atoms: O_2  and  C_3
REMARK    3  A    between atoms: C_5  and  C_6
REMARK    4  A    between atoms: C_6  and  N_7
REMARK    5  A    between atoms: C_8  and  C_10
REMARK    6  A    between atoms: C_22  and  C_23
REMARK    7  A    between atoms: C_23  and  N_24
REMARK    8  A    between atoms: C_29  and  C_30
REMARK                            x       y       z     vdW  Elec       q    Type
REMARK                         _______ _______ _______ _____ _____    ______ ____
ROOT
ATOM      1  C   UNL     1      48.846   7.954  12.658  0.00  0.00    +0.000 A 
ATOM      2  C   UNL     1      49.889   8.240  13.559  0.00  0.00    +0.000 A 
ATOM      3  C   UNL     1      49.649   8.666  14.877  0.00  0.00    +0.000 A 
ATOM      4  C   UNL     1      48.332   8.876  15.279  0.00  0.00    +0.000 A 
ATOM      5  C   UNL     1      47.292   8.558  14.407  0.00  0.00    +0.000 A 
ATOM      6  C   UNL     1      47.522   8.056  13.101  0.00  0.00    +0.000 A 
ENDROOT
BRANCH   1   8
ATOM      7  C   UNL     1      50.674   7.628  11.131  0.00  0.00    +0.000 C 
ATOM      8  O   UNL     1      49.304   7.453  11.469  0.00  0.00    +0.000 OA
ENDBRANCH   1   8
BRANCH   3   9
ATOM      9  C   UNL     1      50.788   8.811  15.854  0.00  0.00    +0.000 C 
BRANCH   9  10
ATOM     10  N   UNL     1      51.472   7.575  16.121  0.00  0.00    +0.000 N 
ATOM     11  C   UNL     1      51.064   6.775  17.164  0.00  0.00    +0.000 C 
ATOM     12  O   UNL     1      50.087   7.077  17.850  0.00  0.00    +0.000 OA
ATOM     13  H   UNL     1      52.316   7.367  15.600  0.00  0.00    +0.000 HD
BRANCH  11  14
ATOM     14  C   UNL     1      51.823   5.545  17.438  0.00  0.00    +0.000 A 
ATOM     15  C   UNL     1      53.178   5.645  17.738  0.00  0.00    +0.000 A 
ATOM     16  S   UNL     1      53.937   4.151  18.033  0.00  0.00    +0.000 S 
ATOM     17  C   UNL     1      52.489   3.306  17.755  0.00  0.00    +0.000 A 
ATOM     18  N   UNL     1      52.461   1.946  17.834  0.00  0.00    +0.000 NA
ATOM     19  C   UNL     1      51.305   1.422  17.596  0.00  0.00    +0.000 A 
ATOM     20  N   UNL     1      50.179   2.136  17.294  0.00  0.00    +0.000 N 
ATOM     21  C   UNL     1      50.156   3.513  17.205  0.00  0.00    +0.000 A 
ATOM     22  O   UNL     1      49.127   4.109  16.935  0.00  0.00    +0.000 OA
ATOM     23  C   UNL     1      51.433   4.147  17.456  0.00  0.00    +0.000 A 
ATOM     24  H   UNL     1      49.300   1.668  17.117  0.00  0.00    +0.000 HD
ENDBRANCH  11  14
ENDBRANCH   9  10
ENDBRANCH   3   9
BRANCH   6  25
ATOM     25  C   UNL     1      46.300   7.519  12.376  0.00  0.00    +0.000 C 
BRANCH  25  26
ATOM     26  N   UNL     1      46.305   6.048  12.326  0.00  0.00    +0.000 NA
ATOM     27  C   UNL     1      46.702   5.458  13.599  0.00  0.00    +0.000 C 
ATOM     28  C   UNL     1      46.899   3.950  13.521  0.00  0.00    +0.000 C 
ATOM     29  C   UNL     1      45.751   3.234  12.832  0.00  0.00    +0.000 C 
ATOM     30  C   UNL     1      45.344   3.912  11.528  0.00  0.00    +0.000 C 
ATOM     31  C   UNL     1      45.158   5.436  11.622  0.00  0.00    +0.000 C 
BRANCH  31  32
ATOM     32  C   UNL     1      43.748   5.929  12.060  0.00  0.00    +0.000 C 
ATOM     33  N   UNL     1      43.116   6.812  11.223  0.00  0.00    +0.000 N 
ATOM     34  O   UNL     1      43.235   5.718  13.158  0.00  0.00    +0.000 OA
ATOM     35  H   UNL     1      43.299   6.877  10.233  0.00  0.00    +0.000 HD
ATOM     36  H   UNL     1      42.238   7.196  11.552  0.00  0.00    +0.000 HD
ENDBRANCH  31  32
ENDBRANCH  25  26
ENDBRANCH   6  25
TORSDOF 7
ENDMDL
MODEL 9
REMARK VINA RESULT:    -5.331      5.013      7.140
REMARK INTER + INTRA:          -8.765
REMARK INTER:                  -7.595
REMARK INTRA:                  -1.170
REMARK UNBOUND:                -1.253
REMARK  Name = 
REMARK  8 active torsions:
REMARK  status: ('A' for Active; 'I' for Inactive)
REMARK    1  A    between atoms: C_1  and  O_2
REMARK    2  A    between atoms: O_2  and  C_3
REMARK    3  A    between atoms: C_5  and  C_6
REMARK    4  A    between atoms: C_6  and  N_7
REMARK    5  A    between atoms: C_8  and  C_10
REMARK    6  A    between atoms: C_22  and  C_23
REMARK    7  A    between atoms: C_23  and  N_24
REMARK    8  A    between atoms: C_29  and  C_30
REMARK                            x       y       z     vdW  Elec       q    Type
REMARK                         _______ _______ _______ _____ _____    ______ ____
ROOT
ATOM      1  C   UNL     1      50.588   8.244  13.267  0.00  0.00    +0.000 A 
ATOM      2  C   UNL     1      49.546   7.556  13.917  0.00  0.00    +0.000 A 
ATOM      3  C   UNL     1      48.279   7.383  13.333  0.00  0.00    +0.000 A 
ATOM      4  C   UNL     1      48.031   7.973  12.096  0.00  0.00    +0.000 A 
ATOM      5  C   UNL     1      49.068   8.622  11.427  0.00  0.00    +0.000 A 
ATOM      6  C   UNL     1      50.370   8.737  11.976  0.00  0.00    +0.000 A 
ENDROOT
BRANCH   1   8
ATOM      7  C   UNL     1      51.714   8.083  15.385  0.00  0.00    +0.000 C 
ATOM      8  O   UNL     1      51.762   8.199  13.969  0.00  0.00    +0.000 OA
ENDBRANCH   1   8
BRANCH   3   9
ATOM      9  C   UNL     1      47.244   6.510  13.994  0.00  0.00    +0.000 C 
BRANCH   9  10
ATOM     10  N   UNL     1      46.682   5.525  13.112  0.00  0.00    +0.000 N 
ATOM     11  C   UNL     1      45.322   5.488  12.899  0.00  0.00    +0.000 C 
ATOM     12  O   UNL     1      44.578   6.322  13.417  0.00  0.00    +0.000 OA
ATOM     13  H   UNL     1      47.288   4.800  12.746  0.00  0.00    +0.000 HD
BRANCH  11  14
ATOM     14  C   UNL     1      44.779   4.432  12.031  0.00  0.00    +0.000 A 
ATOM     15  C   UNL     1      43.990   3.437  12.599  0.00  0.00    +0.000 A 
ATOM     16  S   UNL     1      43.427   2.278  11.488  0.00  0.00    +0.000 S 
ATOM     17  C   UNL     1      44.230   3.049  10.203  0.00  0.00    +0.000 A 
ATOM     18  N   UNL     1      44.165   2.533   8.943  0.00  0.00    +0.000 NA
ATOM     19  C   UNL     1      44.820   3.206   8.058  0.00  0.00    +0.000 A 
ATOM     20  N   UNL     1      45.527   4.347   8.319  0.00  0.00    +0.000 N 
ATOM     21  C   UNL     1      45.620   4.909   9.576  0.00  0.00    +0.000 A 
ATOM     22  O   UNL     1      46.260   5.930   9.763  0.00  0.00    +0.000 OA
ATOM     23  C   UNL     1      44.907   4.184  10.607  0.00  0.00    +0.000 A 
ATOM     24  H   UNL     1      46.021   4.831   7.582  0.00  0.00    +0.000 HD
ENDBRANCH  11  14
ENDBRANCH   9  10
ENDBRANCH   3   9
BRANCH   6  25
ATOM     25  C   UNL     1      51.444   9.238  11.025  0.00  0.00    +0.000 C 
BRANCH  25  26
ATOM     26  N   UNL     1      52.531   8.257  10.873  0.00  0.00    +0.000 NA
ATOM     27  C   UNL     1      52.206   7.224   9.899  0.00  0.00    +0.000 C 
ATOM     28  C   UNL     1      53.228   6.095   9.862  0.00  0.00    +0.000 C 
ATOM     29  C   UNL     1      54.661   6.592   9.790  0.00  0.00    +0.000 C 
ATOM     30  C   UNL     1      54.941   7.702  10.799  0.00  0.00    +0.000 C 
ATOM     31  C   UNL     1      53.895   8.828  10.829  0.00  0.00    +0.000 C 
BRANCH  31  32
ATOM     32  C   UNL     1      54.113   9.994   9.820  0.00  0.00    +0.000 C 
ATOM     33  N   UNL     1      53.975   9.691   8.490  0.00  0.00    +0.000 N 
ATOM     34  O   UNL     1      54.550  11.106  10.110  0.00  0.00    +0.000 OA
ATOM     35  H   UNL     1      53.412   8.930   8.142  0.00  0.00    +0.000 HD
ATOM     36  H   UNL     1      54.200  10.431   7.834  0.00  0.00    +0.000 HD
ENDBRANCH  31  32
ENDBRANCH  25  26
ENDBRANCH   6  25
TORSDOF 7
ENDMDL
