MODEL 1
REMARK VINA RESULT:    -7.846      0.000      0.000
REMARK INTER + INTRA:         -10.945
REMARK INTER:                 -10.139
REMARK INTRA:                  -0.806
REMARK UNBOUND:                -0.806
REMARK  Name = 
REMARK  7 active torsions:
REMARK  status: ('A' for Active; 'I' for Inactive)
REMARK    1  A    between atoms: C_1  and  C_2
REMARK    2  A    between atoms: C_5  and  N_6
REMARK    3  A    between atoms: N_6  and  C_7
REMARK    4  A    between atoms: C_7  and  C_8
REMARK    5  A    between atoms: C_8  and  C_9
REMARK    6  A    between atoms: C_13  and  C_14
REMARK    7  A    between atoms: C_18  and  C_19
REMARK                            x       y       z     vdW  Elec       q    Type
REMARK                         _______ _______ _______ _____ _____    ______ ____
ROOT
ATOM      1  C   UNL     1      45.109   4.722  12.059  0.00  0.00    +0.000 A 
ATOM      2  C   UNL     1      45.447   5.715  11.136  0.00  0.00    +0.000 A 
ATOM      3  C   UNL     1      46.520   6.567  11.389  0.00  0.00    +0.000 A 
ATOM      4  C   UNL     1      47.253   6.442  12.573  0.00  0.00    +0.000 A 
ATOM      5  C   UNL     1      46.943   5.455  13.524  0.00  0.00    +0.000 A 
ATOM      6  C   UNL     1      45.866   4.596  13.238  0.00  0.00    +0.000 A 
ENDROOT
BRANCH   5   7
ATOM      7  C   UNL     1      47.681   5.372  14.798  0.00  0.00    +0.000 A 
ATOM      8  C   UNL     1      48.649   6.296  15.191  0.00  0.00    +0.000 A 
ATOM      9  N   UNL     1      49.380   6.178  16.327  0.00  0.00    +0.000 NA
ATOM     10  C   UNL     1      49.106   5.086  17.073  0.00  0.00    +0.000 A 
ATOM     11  C   UNL     1      48.136   4.156  16.718  0.00  0.00    +0.000 A 
ATOM     12  C   UNL     1      47.868   2.951  17.561  0.00  0.00    +0.000 C 
ATOM     13  N   UNL     1      47.409   4.293  15.581  0.00  0.00    +0.000 NA
ENDBRANCH   5   7
BRANCH   1  14
ATOM     14  C   UNL     1      43.886   3.859  11.852  0.00  0.00    +0.000 C 
BRANCH  14  15
ATOM     15  C   UNL     1      43.688   3.562  10.360  0.00  0.00    +0.000 C 
BRANCH  15  16
ATOM     16  N   UNL     1      44.407   2.348   9.967  0.00  0.00    +0.000 N 
ATOM     17  H   UNL     1      44.841   1.875  10.758  0.00  0.00    +0.000 HD
BRANCH  16  22
ATOM     18  C   UNL     1      47.866   2.365   5.455  0.00  0.00    +0.000 C 
ATOM     19  C   UNL     1      46.961   2.415   6.648  0.00  0.00    +0.000 A 
ATOM     20  C   UNL     1      46.280   3.578   6.976  0.00  0.00    +0.000 A 
ATOM     21  C   UNL     1      45.438   3.580   8.092  0.00  0.00    +0.000 A 
ATOM     22  C   UNL     1      45.298   2.441   8.883  0.00  0.00    +0.000 A 
ATOM     23  C   UNL     1      45.994   1.316   8.436  0.00  0.00    +0.000 A 
ATOM     24  N   UNL     1      46.828   1.276   7.363  0.00  0.00    +0.000 NA
ENDBRANCH  16  22
ENDBRANCH  15  16
ENDBRANCH  14  15
ENDBRANCH   1  14
TORSDOF 5
ENDMDL
MODEL 2
REMARK VINA RESULT:    -7.770      0.932      1.513
REMARK INTER + INTRA:         -10.847
REMARK INTER:                 -10.082
REMARK INTRA:                  -0.765
REMARK UNBOUND:                -0.806
REMARK  Name = 
REMARK  7 active torsions:
REMARK  status: ('A' for Active; 'I' for Inactive)
REMARK    1  A    between atoms: C_1  and  C_2
REMARK    2  A    between atoms: C_5  and  N_6
REMARK    3  A    between atoms: N_6  and  C_7
REMARK    4  A    between atoms: C_7  and  C_8
REMARK    5  A    between atoms: C_8  and  C_9
REMARK    6  A    between atoms: C_13  and  C_14
REMARK    7  A    between atoms: C_18  and  C_19
REMARK                            x       y       z     vdW  Elec       q    Type
REMARK                         _______ _______ _______ _____ _____    ______ ____
ROOT
ATOM      1  C   UNL     1      45.284   5.125  12.429  0.00  0.00    +0.000 A 
ATOM      2  C   UNL     1      45.919   6.068  11.615  0.00  0.00    +0.000 A 
ATOM      3  C   UNL     1      47.134   6.624  12.009  0.00  0.00    +0.000 A 
ATOM      4  C   UNL     1      47.717   6.252  13.224  0.00  0.00    +0.000 A 
ATOM      5  C   UNL     1      47.109   5.307  14.068  0.00  0.00    +0.000 A 
ATOM      6  C   UNL     1      45.890   4.747  13.641  0.00  0.00    +0.000 A 
ENDROOT
BRANCH   5   7
ATOM      7  C   UNL     1      47.699   4.968  15.376  0.00  0.00    +0.000 A 
ATOM      8  C   UNL     1      47.155   4.025  16.247  0.00  0.00    +0.000 A 
ATOM      9  N   UNL     1      47.656   3.768  17.481  0.00  0.00    +0.000 NA
ATOM     10  C   UNL     1      48.741   4.497  17.821  0.00  0.00    +0.000 A 
ATOM     11  C   UNL     1      49.317   5.430  16.969  0.00  0.00    +0.000 A 
ATOM     12  C   UNL     1      50.511   6.230  17.384  0.00  0.00    +0.000 C 
ATOM     13  N   UNL     1      48.807   5.672  15.735  0.00  0.00    +0.000 NA
ENDBRANCH   5   7
BRANCH   1  14
ATOM     14  C   UNL     1      43.916   4.593  12.071  0.00  0.00    +0.000 C 
BRANCH  14  15
ATOM     15  C   UNL     1      43.752   4.523  10.547  0.00  0.00    +0.000 C 
BRANCH  15  16
ATOM     16  N   UNL     1      44.016   3.169  10.053  0.00  0.00    +0.000 N 
ATOM     17  H   UNL     1      44.102   2.487  10.804  0.00  0.00    +0.000 HD
BRANCH  16  22
ATOM     18  C   UNL     1      47.967   2.199   6.081  0.00  0.00    +0.000 C 
ATOM     19  C   UNL     1      46.943   2.506   7.131  0.00  0.00    +0.000 A 
ATOM     20  C   UNL     1      46.483   3.802   7.319  0.00  0.00    +0.000 A 
ATOM     21  C   UNL     1      45.521   4.045   8.302  0.00  0.00    +0.000 A 
ATOM     22  C   UNL     1      45.041   3.011   9.104  0.00  0.00    +0.000 A 
ATOM     23  C   UNL     1      45.540   1.741   8.800  0.00  0.00    +0.000 A 
ATOM     24  N   UNL     1      46.481   1.466   7.859  0.00  0.00    +0.000 NA
ENDBRANCH  16  22
ENDBRANCH  15  16
ENDBRANCH  14  15
ENDBRANCH   1  14
TORSDOF 5
ENDMDL
MODEL 3
REMARK VINA RESULT:    -7.634      2.910      4.630
REMARK INTER + INTRA:         -10.671
REMARK INTER:                  -9.958
REMARK INTRA:                  -0.714
REMARK UNBOUND:                -0.806
REMARK  Name = 
REMARK  7 active torsions:
REMARK  status: ('A' for Active; 'I' for Inactive)
REMARK    1  A    between atoms: C_1  and  C_2
REMARK    2  A    between atoms: C_5  and  N_6
REMARK    3  A    between atoms: N_6  and  C_7
REMARK    4  A    between atoms: C_7  and  C_8
REMARK    5  A    between atoms: C_8  and  C_9
REMARK    6  A    between atoms: C_13  and  C_14
REMARK    7  A    between atoms: C_18  and  C_19
REMARK                            x       y       z     vdW  Elec       q    Type
REMARK                         _______ _______ _______ _____ _____    ______ ____
ROOT
ATOM      1  C   UNL     1      44.575   4.840  12.900  0.00  0.00    +0.000 A 
ATOM      2  C   UNL     1      45.829   4.387  13.319  0.00  0.00    +0.000 A 
ATOM      3  C   UNL     1      46.917   5.257  13.330  0.00  0.00    +0.000 A 
ATOM      4  C   UNL     1      46.763   6.581  12.910  0.00  0.00    +0.000 A 
ATOM      5  C   UNL     1      45.517   7.073  12.482  0.00  0.00    +0.000 A 
ATOM      6  C   UNL     1      44.430   6.179  12.496  0.00  0.00    +0.000 A 
ENDROOT
BRANCH   5   7
ATOM      7  C   UNL     1      45.378   8.452  11.981  0.00  0.00    +0.000 A 
ATOM      8  C   UNL     1      46.282   9.474  12.272  0.00  0.00    +0.000 A 
ATOM      9  N   UNL     1      46.114  10.759  11.873  0.00  0.00    +0.000 NA
ATOM     10  C   UNL     1      44.992  10.994  11.158  0.00  0.00    +0.000 A 
ATOM     11  C   UNL     1      44.082   9.995  10.836  0.00  0.00    +0.000 A 
ATOM     12  C   UNL     1      42.843  10.294  10.054  0.00  0.00    +0.000 C 
ATOM     13  N   UNL     1      44.268   8.712  11.239  0.00  0.00    +0.000 NA
ENDBRANCH   5   7
BRANCH   1  14
ATOM     14  C   UNL     1      43.410   3.885  12.780  0.00  0.00    +0.000 C 
BRANCH  14  15
ATOM     15  C   UNL     1      43.597   2.965  11.566  0.00  0.00    +0.000 C 
BRANCH  15  16
ATOM     16  N   UNL     1      43.731   3.745  10.333  0.00  0.00    +0.000 N 
ATOM     17  H   UNL     1      42.843   3.878   9.853  0.00  0.00    +0.000 HD
BRANCH  16  22
ATOM     18  C   UNL     1      47.598   1.898   6.596  0.00  0.00    +0.000 C 
ATOM     19  C   UNL     1      46.601   2.435   7.577  0.00  0.00    +0.000 A 
ATOM     20  C   UNL     1      46.261   3.780   7.583  0.00  0.00    +0.000 A 
ATOM     21  C   UNL     1      45.320   4.239   8.508  0.00  0.00    +0.000 A 
ATOM     22  C   UNL     1      44.743   3.369   9.432  0.00  0.00    +0.000 A 
ATOM     23  C   UNL     1      45.124   2.031   9.308  0.00  0.00    +0.000 A 
ATOM     24  N   UNL     1      46.042   1.548   8.429  0.00  0.00    +0.000 NA
ENDBRANCH  16  22
ENDBRANCH  15  16
ENDBRANCH  14  15
ENDBRANCH   1  14
TORSDOF 5
ENDMDL
MODEL 4
REMARK VINA RESULT:    -7.497      2.835      4.269
REMARK INTER + INTRA:         -10.494
REMARK INTER:                  -9.781
REMARK INTRA:                  -0.713
REMARK UNBOUND:                -0.806
REMARK  Name = 
REMARK  7 active torsions:
REMARK  status: ('A' for Active; 'I' for Inactive)
REMARK    1  A    between atoms: C_1  and  C_2
REMARK    2  A    between atoms: C_5  and  N_6
REMARK    3  A    between atoms: N_6  and  C_7
REMARK    4  A    between atoms: C_7  and  C_8
REMARK    5  A    between atoms: C_8  and  C_9
REMARK    6  A    between atoms: C_13  and  C_14
REMARK    7  A    between atoms: C_18  and  C_19
REMARK                            x       y       z     vdW  Elec       q    Type
REMARK                         _______ _______ _______ _____ _____    ______ ____
ROOT
ATOM      1  C   UNL     1      44.579   5.280  12.875  0.00  0.00    +0.000 A 
ATOM      2  C   UNL     1      45.651   4.467  13.253  0.00  0.00    +0.000 A 
ATOM      3  C   UNL     1      46.930   5.007  13.370  0.00  0.00    +0.000 A 
ATOM      4  C   UNL     1      47.149   6.361  13.097  0.00  0.00    +0.000 A 
ATOM      5  C   UNL     1      46.096   7.210  12.715  0.00  0.00    +0.000 A 
ATOM      6  C   UNL     1      44.810   6.644  12.620  0.00  0.00    +0.000 A 
ENDROOT
BRANCH   5   7
ATOM      7  C   UNL     1      46.347   8.620  12.368  0.00  0.00    +0.000 A 
ATOM      8  C   UNL     1      45.338   9.572  12.227  0.00  0.00    +0.000 A 
ATOM      9  N   UNL     1      45.563  10.851  11.835  0.00  0.00    +0.000 NA
ATOM     10  C   UNL     1      46.856  11.153  11.586  0.00  0.00    +0.000 A 
ATOM     11  C   UNL     1      47.886  10.233  11.735  0.00  0.00    +0.000 A 
ATOM     12  C   UNL     1      49.305  10.599  11.437  0.00  0.00    +0.000 C 
ATOM     13  N   UNL     1      47.644   8.959  12.134  0.00  0.00    +0.000 NA
ENDBRANCH   5   7
BRANCH   1  14
ATOM     14  C   UNL     1      43.208   4.690  12.639  0.00  0.00    +0.000 C 
BRANCH  14  15
ATOM     15  C   UNL     1      43.233   3.749  11.428  0.00  0.00    +0.000 C 
BRANCH  15  16
ATOM     16  N   UNL     1      43.726   4.443  10.235  0.00  0.00    +0.000 N 
ATOM     17  H   UNL     1      42.975   4.831   9.668  0.00  0.00    +0.000 HD
BRANCH  16  22
ATOM     18  C   UNL     1      47.272   1.437   6.962  0.00  0.00    +0.000 C 
ATOM     19  C   UNL     1      46.367   2.274   7.814  0.00  0.00    +0.000 A 
ATOM     20  C   UNL     1      46.238   3.637   7.588  0.00  0.00    +0.000 A 
ATOM     21  C   UNL     1      45.375   4.380   8.398  0.00  0.00    +0.000 A 
ATOM     22  C   UNL     1      44.670   3.773   9.437  0.00  0.00    +0.000 A 
ATOM     23  C   UNL     1      44.842   2.391   9.546  0.00  0.00    +0.000 A 
ATOM     24  N   UNL     1      45.677   1.636   8.784  0.00  0.00    +0.000 NA
ENDBRANCH  16  22
ENDBRANCH  15  16
ENDBRANCH  14  15
ENDBRANCH   1  14
TORSDOF 5
ENDMDL
MODEL 5
REMARK VINA RESULT:    -7.101      1.447      7.360
REMARK INTER + INTRA:          -9.982
REMARK INTER:                  -9.477
REMARK INTRA:                  -0.504
REMARK UNBOUND:                -0.806
REMARK  Name = 
REMARK  7 active torsions:
REMARK  status: ('A' for Active; 'I' for Inactive)
REMARK    1  A    between atoms: C_1  and  C_2
REMARK    2  A    between atoms: C_5  and  N_6
REMARK    3  A    between atoms: N_6  and  C_7
REMARK    4  A    between atoms: C_7  and  C_8
REMARK    5  A    between atoms: C_8  and  C_9
REMARK    6  A    between atoms: C_13  and  C_14
REMARK    7  A    between atoms: C_18  and  C_19
REMARK                            x       y       z     vdW  Elec       q    Type
REMARK                         _______ _______ _______ _____ _____    ______ ____
ROOT
ATOM      1  C   UNL     1      44.435   5.617  11.393  0.00  0.00    +0.000 A 
ATOM      2  C   UNL     1      43.486   4.822  12.041  0.00  0.00    +0.000 A 
ATOM      3  C   UNL     1      43.276   3.509  11.627  0.00  0.00    +0.000 A 
ATOM      4  C   UNL     1      44.002   2.985  10.554  0.00  0.00    +0.000 A 
ATOM      5  C   UNL     1      44.965   3.754   9.878  0.00  0.00    +0.000 A 
ATOM      6  C   UNL     1      45.171   5.072  10.325  0.00  0.00    +0.000 A 
ENDROOT
BRANCH   5   7
ATOM      7  C   UNL     1      45.681   3.214   8.707  0.00  0.00    +0.000 A 
ATOM      8  C   UNL     1      46.070   3.988   7.615  0.00  0.00    +0.000 A 
ATOM      9  N   UNL     1      46.661   3.478   6.507  0.00  0.00    +0.000 NA
ATOM     10  C   UNL     1      46.857   2.142   6.526  0.00  0.00    +0.000 A 
ATOM     11  C   UNL     1      46.497   1.345   7.606  0.00  0.00    +0.000 A 
ATOM     12  C   UNL     1      46.716  -0.134   7.589  0.00  0.00    +0.000 C 
ATOM     13  N   UNL     1      45.911   1.872   8.711  0.00  0.00    +0.000 NA
ENDBRANCH   5   7
BRANCH   1  14
ATOM     14  C   UNL     1      44.600   7.075  11.757  0.00  0.00    +0.000 C 
BRANCH  14  15
ATOM     15  C   UNL     1      45.627   7.230  12.886  0.00  0.00    +0.000 C 
BRANCH  15  16
ATOM     16  N   UNL     1      46.738   6.290  12.717  0.00  0.00    +0.000 N 
ATOM     17  H   UNL     1      46.674   5.757  11.852  0.00  0.00    +0.000 HD
BRANCH  16  22
ATOM     18  C   UNL     1      48.209   2.669  16.846  0.00  0.00    +0.000 C 
ATOM     19  C   UNL     1      47.815   3.662  15.796  0.00  0.00    +0.000 A 
ATOM     20  C   UNL     1      47.986   5.023  16.004  0.00  0.00    +0.000 A 
ATOM     21  C   UNL     1      47.615   5.916  14.995  0.00  0.00    +0.000 A 
ATOM     22  C   UNL     1      47.057   5.456  13.804  0.00  0.00    +0.000 A 
ATOM     23  C   UNL     1      46.971   4.067  13.683  0.00  0.00    +0.000 A 
ATOM     24  N   UNL     1      47.312   3.167  14.643  0.00  0.00    +0.000 NA
ENDBRANCH  16  22
ENDBRANCH  15  16
ENDBRANCH  14  15
ENDBRANCH   1  14
TORSDOF 5
ENDMDL
MODEL 6
REMARK VINA RESULT:    -6.784      2.049      3.166
REMARK INTER + INTRA:          -9.573
REMARK INTER:                  -8.885
REMARK INTRA:                  -0.688
REMARK UNBOUND:                -0.806
REMARK  Name = 
REMARK  7 active torsions:
REMARK  status: ('A' for Active; 'I' for Inactive)
REMARK    1  A    between atoms: C_1  and  C_2
REMARK    2  A    between atoms: C_5  and  N_6
REMARK    3  A    between atoms: N_6  and  C_7
REMARK    4  A    between atoms: C_7  and  C_8
REMARK    5  A    between atoms: C_8  and  C_9
REMARK    6  A    between atoms: C_13  and  C_14
REMARK    7  A    between atoms: C_18  and  C_19
REMARK                            x       y       z     vdW  Elec       q    Type
REMARK                         _______ _______ _______ _____ _____    ______ ____
ROOT
ATOM      1  C   UNL     1      44.876   4.928  12.634  0.00  0.00    +0.000 A 
ATOM      2  C   UNL     1      45.470   3.782  13.170  0.00  0.00    +0.000 A 
ATOM      3  C   UNL     1      46.771   3.836  13.664  0.00  0.00    +0.000 A 
ATOM      4  C   UNL     1      47.493   5.032  13.614  0.00  0.00    +0.000 A 
ATOM      5  C   UNL     1      46.929   6.206  13.084  0.00  0.00    +0.000 A 
ATOM      6  C   UNL     1      45.607   6.130  12.606  0.00  0.00    +0.000 A 
ENDROOT
BRANCH   5   7
ATOM      7  C   UNL     1      47.719   7.446  12.978  0.00  0.00    +0.000 A 
ATOM      8  C   UNL     1      48.284   7.902  11.787  0.00  0.00    +0.000 A 
ATOM      9  N   UNL     1      49.073   9.002  11.705  0.00  0.00    +0.000 NA
ATOM     10  C   UNL     1      49.281   9.646  12.874  0.00  0.00    +0.000 A 
ATOM     11  C   UNL     1      48.717   9.227  14.074  0.00  0.00    +0.000 A 
ATOM     12  C   UNL     1      48.980   9.956  15.353  0.00  0.00    +0.000 C 
ATOM     13  N   UNL     1      47.926   8.127  14.138  0.00  0.00    +0.000 NA
ENDBRANCH   5   7
BRANCH   1  14
ATOM     14  C   UNL     1      43.508   4.862  11.997  0.00  0.00    +0.000 C 
BRANCH  14  15
ATOM     15  C   UNL     1      43.633   4.750  10.472  0.00  0.00    +0.000 C 
BRANCH  15  16
ATOM     16  N   UNL     1      43.906   3.368  10.069  0.00  0.00    +0.000 N 
ATOM     17  H   UNL     1      43.974   2.734  10.863  0.00  0.00    +0.000 HD
BRANCH  16  22
ATOM     18  C   UNL     1      47.929   2.162   6.238  0.00  0.00    +0.000 C 
ATOM     19  C   UNL     1      46.888   2.531   7.249  0.00  0.00    +0.000 A 
ATOM     20  C   UNL     1      46.468   3.846   7.391  0.00  0.00    +0.000 A 
ATOM     21  C   UNL     1      45.487   4.147   8.340  0.00  0.00    +0.000 A 
ATOM     22  C   UNL     1      44.951   3.151   9.154  0.00  0.00    +0.000 A 
ATOM     23  C   UNL     1      45.414   1.858   8.897  0.00  0.00    +0.000 A 
ATOM     24  N   UNL     1      46.371   1.526   7.991  0.00  0.00    +0.000 NA
ENDBRANCH  16  22
ENDBRANCH  15  16
ENDBRANCH  14  15
ENDBRANCH   1  14
TORSDOF 5
ENDMDL
MODEL 7
REMARK VINA RESULT:    -6.629      1.674      7.532
REMARK INTER + INTRA:          -9.372
REMARK INTER:                  -8.504
REMARK INTRA:                  -0.868
REMARK UNBOUND:                -0.806
REMARK  Name = 
REMARK  7 active torsions:
REMARK  status: ('A' for Active; 'I' for Inactive)
REMARK    1  A    between atoms: C_1  and  C_2
REMARK    2  A    between atoms: C_5  and  N_6
REMARK    3  A    between atoms: N_6  and  C_7
REMARK    4  A    between atoms: C_7  and  C_8
REMARK    5  A    between atoms: C_8  and  C_9
REMARK    6  A    between atoms: C_13  and  C_14
REMARK    7  A    between atoms: C_18  and  C_19
REMARK                            x       y       z     vdW  Elec       q    Type
REMARK                         _______ _______ _______ _____ _____    ______ ____
ROOT
ATOM      1  C   UNL     1      47.456   7.965  11.983  0.00  0.00    +0.000 A 
ATOM      2  C   UNL     1      46.534   8.973  12.275  0.00  0.00    +0.000 A 
ATOM      3  C   UNL     1      45.173   8.751  12.079  0.00  0.00    +0.000 A 
ATOM      4  C   UNL     1      44.725   7.526  11.577  0.00  0.00    +0.000 A 
ATOM      5  C   UNL     1      45.622   6.488  11.273  0.00  0.00    +0.000 A 
ATOM      6  C   UNL     1      46.991   6.730  11.495  0.00  0.00    +0.000 A 
ENDROOT
BRANCH   5   7
ATOM      7  C   UNL     1      45.147   5.222  10.685  0.00  0.00    +0.000 A 
ATOM      8  C   UNL     1      44.370   4.294  11.377  0.00  0.00    +0.000 A 
ATOM      9  N   UNL     1      43.996   3.097  10.861  0.00  0.00    +0.000 NA
ATOM     10  C   UNL     1      44.430   2.854   9.605  0.00  0.00    +0.000 A 
ATOM     11  C   UNL     1      45.189   3.766   8.882  0.00  0.00    +0.000 A 
ATOM     12  C   UNL     1      45.664   3.460   7.498  0.00  0.00    +0.000 C 
ATOM     13  N   UNL     1      45.550   4.963   9.411  0.00  0.00    +0.000 NA
ENDBRANCH   5   7
BRANCH   1  14
ATOM     14  C   UNL     1      48.942   8.224  12.087  0.00  0.00    +0.000 C 
BRANCH  14  15
ATOM     15  C   UNL     1      49.554   7.376  13.208  0.00  0.00    +0.000 C 
BRANCH  15  16
ATOM     16  N   UNL     1      48.777   7.500  14.444  0.00  0.00    +0.000 N 
ATOM     17  H   UNL     1      49.161   8.194  15.082  0.00  0.00    +0.000 HD
BRANCH  16  22
ATOM     18  C   UNL     1      47.394   2.933  17.535  0.00  0.00    +0.000 C 
ATOM     19  C   UNL     1      47.744   4.109  16.676  0.00  0.00    +0.000 A 
ATOM     20  C   UNL     1      47.147   4.286  15.435  0.00  0.00    +0.000 A 
ATOM     21  C   UNL     1      47.493   5.402  14.668  0.00  0.00    +0.000 A 
ATOM     22  C   UNL     1      48.443   6.315  15.124  0.00  0.00    +0.000 A 
ATOM     23  C   UNL     1      48.946   6.063  16.403  0.00  0.00    +0.000 A 
ATOM     24  N   UNL     1      48.641   4.987  17.175  0.00  0.00    +0.000 NA
ENDBRANCH  16  22
ENDBRANCH  15  16
ENDBRANCH  14  15
ENDBRANCH   1  14
TORSDOF 5
ENDMDL
MODEL 8
REMARK VINA RESULT:    -6.479      2.219      7.743
REMARK INTER + INTRA:          -9.179
REMARK INTER:                  -8.458
REMARK INTRA:                  -0.720
REMARK UNBOUND:                -0.806
REMARK  Name = 
REMARK  7 active torsions:
REMARK  status: ('A' for Active; 'I' for Inactive)
REMARK    1  A    between atoms: C_1  and  C_2
REMARK    2  A    between atoms: C_5  and  N_6
REMARK    3  A    between atoms: N_6  and  C_7
REMARK    4  A    between atoms: C_7  and  C_8
REMARK    5  A    between atoms: C_8  and  C_9
REMARK    6  A    between atoms: C_13  and  C_14
REMARK    7  A    between atoms: C_18  and  C_19
REMARK                            x       y       z     vdW  Elec       q    Type
REMARK                         _______ _______ _______ _____ _____    ______ ____
ROOT
ATOM      1  C   UNL     1      47.637   7.194  13.835  0.00  0.00    +0.000 A 
ATOM      2  C   UNL     1      47.157   8.480  13.570  0.00  0.00    +0.000 A 
ATOM      3  C   UNL     1      45.950   8.650  12.896  0.00  0.00    +0.000 A 
ATOM      4  C   UNL     1      45.220   7.536  12.469  0.00  0.00    +0.000 A 
ATOM      5  C   UNL     1      45.670   6.228  12.717  0.00  0.00    +0.000 A 
ATOM      6  C   UNL     1      46.884   6.082  13.415  0.00  0.00    +0.000 A 
ENDROOT
BRANCH   5   7
ATOM      7  C   UNL     1      44.926   5.061  12.208  0.00  0.00    +0.000 A 
ATOM      8  C   UNL     1      44.194   4.198  13.022  0.00  0.00    +0.000 A 
ATOM      9  N   UNL     1      43.572   3.083  12.564  0.00  0.00    +0.000 NA
ATOM     10  C   UNL     1      43.706   2.857  11.239  0.00  0.00    +0.000 A 
ATOM     11  C   UNL     1      44.414   3.708  10.398  0.00  0.00    +0.000 A 
ATOM     12  C   UNL     1      44.553   3.420   8.937  0.00  0.00    +0.000 C 
ATOM     13  N   UNL     1      45.026   4.823  10.872  0.00  0.00    +0.000 NA
ENDBRANCH   5   7
BRANCH   1  14
ATOM     14  C   UNL     1      48.993   6.991  14.468  0.00  0.00    +0.000 C 
BRANCH  14  15
ATOM     15  C   UNL     1      48.975   7.455  15.930  0.00  0.00    +0.000 C 
BRANCH  15  16
ATOM     16  N   UNL     1      48.347   6.450  16.791  0.00  0.00    +0.000 N 
ATOM     17  H   UNL     1      47.991   6.844  17.661  0.00  0.00    +0.000 HD
BRANCH  16  22
ATOM     18  C   UNL     1      51.090   1.506  17.385  0.00  0.00    +0.000 C 
ATOM     19  C   UNL     1      50.399   2.830  17.267  0.00  0.00    +0.000 A 
ATOM     20  C   UNL     1      51.050   4.005  17.614  0.00  0.00    +0.000 A 
ATOM     21  C   UNL     1      50.375   5.221  17.480  0.00  0.00    +0.000 A 
ATOM     22  C   UNL     1      49.057   5.260  17.028  0.00  0.00    +0.000 A 
ATOM     23  C   UNL     1      48.514   4.024  16.666  0.00  0.00    +0.000 A 
ATOM     24  N   UNL     1      49.135   2.821  16.790  0.00  0.00    +0.000 NA
ENDBRANCH  16  22
ENDBRANCH  15  16
ENDBRANCH  14  15
ENDBRANCH   1  14
TORSDOF 5
ENDMDL
MODEL 9
REMARK VINA RESULT:    -6.366      2.740      7.434
REMARK INTER + INTRA:          -9.032
REMARK INTER:                  -8.472
REMARK INTRA:                  -0.561
REMARK UNBOUND:                -0.806
REMARK  Name = 
REMARK  7 active torsions:
REMARK  status: ('A' for Active; 'I' for Inactive)
REMARK    1  A    between atoms: C_1  and  C_2
REMARK    2  A    between atoms: C_5  and  N_6
REMARK    3  A    between atoms: N_6  and  C_7
REMARK    4  A    between atoms: C_7  and  C_8
REMARK    5  A    between atoms: C_8  and  C_9
REMARK    6  A    between atoms: C_13  and  C_14
REMARK    7  A    between atoms: C_18  and  C_19
REMARK                            x       y       z     vdW  Elec       q    Type
REMARK                         _______ _______ _______ _____ _____    ______ ____
ROOT
ATOM      1  C   UNL     1      44.505   4.935  12.223  0.00  0.00    +0.000 A 
ATOM      2  C   UNL     1      43.496   4.083  12.678  0.00  0.00    +0.000 A 
ATOM      3  C   UNL     1      43.191   2.922  11.970  0.00  0.00    +0.000 A 
ATOM      4  C   UNL     1      43.883   2.613  10.795  0.00  0.00    +0.000 A 
ATOM      5  C   UNL     1      44.904   3.446  10.307  0.00  0.00    +0.000 A 
ATOM      6  C   UNL     1      45.205   4.604  11.048  0.00  0.00    +0.000 A 
ENDROOT
BRANCH   5   7
ATOM      7  C   UNL     1      45.584   3.144   9.034  0.00  0.00    +0.000 A 
ATOM      8  C   UNL     1      45.798   4.089   8.030  0.00  0.00    +0.000 A 
ATOM      9  N   UNL     1      46.357   3.794   6.830  0.00  0.00    +0.000 NA
ATOM     10  C   UNL     1      46.703   2.499   6.663  0.00  0.00    +0.000 A 
ATOM     11  C   UNL     1      46.519   1.538   7.650  0.00  0.00    +0.000 A 
ATOM     12  C   UNL     1      46.902   0.110   7.426  0.00  0.00    +0.000 C 
ATOM     13  N   UNL     1      45.964   1.851   8.848  0.00  0.00    +0.000 NA
ENDBRANCH   5   7
BRANCH   1  14
ATOM     14  C   UNL     1      44.776   6.250  12.917  0.00  0.00    +0.000 C 
BRANCH  14  15
ATOM     15  C   UNL     1      46.285   6.519  12.981  0.00  0.00    +0.000 C 
BRANCH  15  16
ATOM     16  N   UNL     1      46.565   7.956  12.921  0.00  0.00    +0.000 N 
ATOM     17  H   UNL     1      45.780   8.494  12.558  0.00  0.00    +0.000 HD
BRANCH  16  22
ATOM     18  C   UNL     1      51.454   9.906  10.771  0.00  0.00    +0.000 C 
ATOM     19  C   UNL     1      50.178   9.343  11.317  0.00  0.00    +0.000 A 
ATOM     20  C   UNL     1      50.057   7.988  11.590  0.00  0.00    +0.000 A 
ATOM     21  C   UNL     1      48.853   7.504  12.107  0.00  0.00    +0.000 A 
ATOM     22  C   UNL     1      47.774   8.359  12.326  0.00  0.00    +0.000 A 
ATOM     23  C   UNL     1      48.020   9.708  12.058  0.00  0.00    +0.000 A 
ATOM     24  N   UNL     1      49.172  10.216  11.547  0.00  0.00    +0.000 NA
ENDBRANCH  16  22
ENDBRANCH  15  16
ENDBRANCH  14  15
ENDBRANCH   1  14
TORSDOF 5
ENDMDL
