MODEL 1
REMARK VINA RESULT:    -7.401      0.000      0.000
REMARK INTER + INTRA:         -12.560
REMARK INTER:                 -11.078
REMARK INTRA:                  -1.482
REMARK UNBOUND:                -1.482
REMARK  Name = 
REMARK  9 active torsions:
REMARK  status: ('A' for Active; 'I' for Inactive)
REMARK    1  A    between atoms: C_2  and  C_21
REMARK    2  A    between atoms: N_3  and  C_4
REMARK    3  A    between atoms: C_4  and  C_5
REMARK    4  A    between atoms: C_8  and  C_9
REMARK    5  A    between atoms: C_9  and  N_10
REMARK    6  A    between atoms: N_10  and  CA_11
REMARK    7  A    between atoms: CA_11  and  C_12
REMARK    8  A    between atoms: CA_11  and  C_14
REMARK    9  A    between atoms: C_12  and  O_13
REMARK                            x       y       z     vdW  Elec       q    Type
REMARK                         _______ _______ _______ _____ _____    ______ ____
ROOT
ATOM      1  C   UNL     1      46.467   7.508  12.724  0.00  0.00    +0.000 A 
ATOM      2  C   UNL     1      45.313   8.106  12.211  0.00  0.00    +0.000 A 
ATOM      3  C   UNL     1      44.452   7.364  11.406  0.00  0.00    +0.000 A 
ATOM      4  C   UNL     1      44.779   6.043  11.113  0.00  0.00    +0.000 A 
ATOM      5  N   UNL     1      45.909   5.451  11.578  0.00  0.00    +0.000 NA
ATOM      6  C   UNL     1      46.722   6.192  12.366  0.00  0.00    +0.000 A 
ENDROOT
BRANCH   1   7
ATOM      7  C   UNL     1      47.429   8.261  13.601  0.00  0.00    +0.000 C 
BRANCH   7  10
ATOM      8  O   UNL     1      49.924   7.101  14.185  0.00  0.00    +0.000 OA
ATOM      9  C   UNL     1      49.020   7.005  15.011  0.00  0.00    +0.000 C 
ATOM     10  N   UNL     1      47.761   7.506  14.781  0.00  0.00    +0.000 N 
ATOM     11  H   UNL     1      47.108   7.568  15.555  0.00  0.00    +0.000 HD
BRANCH   9  12
ATOM     12  C   UNL     1      49.211   6.296  16.283  0.00  0.00    +0.000 A 
ATOM     13  C   UNL     1      50.105   6.790  17.220  0.00  0.00    +0.000 A 
ATOM     14  S   UNL     1      50.227   5.828  18.624  0.00  0.00    +0.000 S 
ATOM     15  C   UNL     1      49.050   4.743  18.050  0.00  0.00    +0.000 A 
ATOM     16  N   UNL     1      48.656   3.676  18.797  0.00  0.00    +0.000 NA
ATOM     17  C   UNL     1      47.721   2.965  18.262  0.00  0.00    +0.000 A 
ATOM     18  N   UNL     1      47.151   3.215  17.041  0.00  0.00    +0.000 N 
ATOM     19  C   UNL     1      47.576   4.229  16.216  0.00  0.00    +0.000 A 
ATOM     20  O   UNL     1      47.149   4.338  15.071  0.00  0.00    +0.000 OA
ATOM     21  C   UNL     1      48.590   5.094  16.792  0.00  0.00    +0.000 A 
ATOM     22  H   UNL     1      46.445   2.601  16.665  0.00  0.00    +0.000 HD
ENDBRANCH   9  12
ENDBRANCH   7  10
ENDBRANCH   1   7
BRANCH   4  23
ATOM     23  C   UNL     1      43.859   5.185  10.269  0.00  0.00    +0.000 C 
BRANCH  23  24
ATOM     24  N   UNL     1      44.463   4.742   9.008  0.00  0.00    +0.000 NA
ATOM     25  H   UNL     1      45.434   5.044   8.950  0.00  0.00    +0.000 HD
BRANCH  24  26
ATOM     26  CA  UNL     1      44.379   3.273   8.839  0.00  0.00    +0.000 C 
BRANCH  26  27
ATOM     27  C   UNL     1      45.676   2.777   8.187  0.00  0.00    +0.000 C 
ATOM     28  N   UNL     1      46.429   3.573   7.471  0.00  0.00    +0.000 NA
ATOM     29  C   UNL     1      47.479   2.684   6.902  0.00  0.00    +0.000 C 
ATOM     30  C   UNL     1      47.193   1.260   7.393  0.00  0.00    +0.000 C 
ATOM     31  N   UNL     1      46.067   1.458   8.274  0.00  0.00    +0.000 N 
ATOM     32  H   UNL     1      45.293   0.797   8.189  0.00  0.00    +0.000 HD
ENDBRANCH  26  27
BRANCH  26  33
ATOM     33  C   UNL     1      44.190   2.474  10.146  0.00  0.00    +0.000 C 
BRANCH  33  34
ATOM     34  O   UNL     1      45.365   2.525  10.966  0.00  0.00    +0.000 OA
ATOM     35  H   UNL     1      45.528   1.616  11.278  0.00  0.00    +0.000 HD
ENDBRANCH  33  34
ENDBRANCH  26  33
ENDBRANCH  24  26
ENDBRANCH  23  24
ENDBRANCH   4  23
TORSDOF 9
ENDMDL
MODEL 2
REMARK VINA RESULT:    -7.194      3.061      4.199
REMARK INTER + INTRA:         -12.251
REMARK INTER:                 -11.156
REMARK INTRA:                  -1.095
REMARK UNBOUND:                -1.482
REMARK  Name = 
REMARK  9 active torsions:
REMARK  status: ('A' for Active; 'I' for Inactive)
REMARK    1  A    between atoms: C_2  and  C_21
REMARK    2  A    between atoms: N_3  and  C_4
REMARK    3  A    between atoms: C_4  and  C_5
REMARK    4  A    between atoms: C_8  and  C_9
REMARK    5  A    between atoms: C_9  and  N_10
REMARK    6  A    between atoms: N_10  and  CA_11
REMARK    7  A    between atoms: CA_11  and  C_12
REMARK    8  A    between atoms: CA_11  and  C_14
REMARK    9  A    between atoms: C_12  and  O_13
REMARK                            x       y       z     vdW  Elec       q    Type
REMARK                         _______ _______ _______ _____ _____    ______ ____
ROOT
ATOM      1  C   UNL     1      48.156   5.615  16.156  0.00  0.00    +0.000 A 
ATOM      2  C   UNL     1      48.183   6.311  14.945  0.00  0.00    +0.000 A 
ATOM      3  C   UNL     1      47.499   5.802  13.843  0.00  0.00    +0.000 A 
ATOM      4  C   UNL     1      46.822   4.593  13.973  0.00  0.00    +0.000 A 
ATOM      5  N   UNL     1      46.807   3.887  15.132  0.00  0.00    +0.000 NA
ATOM      6  C   UNL     1      47.470   4.410  16.190  0.00  0.00    +0.000 A 
ENDROOT
BRANCH   1   7
ATOM      7  C   UNL     1      48.874   6.120  17.378  0.00  0.00    +0.000 C 
BRANCH   7  10
ATOM      8  O   UNL     1      51.513   6.141  16.405  0.00  0.00    +0.000 OA
ATOM      9  C   UNL     1      51.210   5.328  17.274  0.00  0.00    +0.000 C 
ATOM     10  N   UNL     1      49.932   5.226  17.769  0.00  0.00    +0.000 N 
ATOM     11  H   UNL     1      49.771   4.676  18.606  0.00  0.00    +0.000 HD
BRANCH   9  12
ATOM     12  C   UNL     1      52.187   4.369  17.807  0.00  0.00    +0.000 A 
ATOM     13  C   UNL     1      53.338   4.831  18.426  0.00  0.00    +0.000 A 
ATOM     14  S   UNL     1      54.377   3.584  18.956  0.00  0.00    +0.000 S 
ATOM     15  C   UNL     1      53.299   2.383  18.421  0.00  0.00    +0.000 A 
ATOM     16  N   UNL     1      53.578   1.063  18.597  0.00  0.00    +0.000 NA
ATOM     17  C   UNL     1      52.651   0.262  18.190  0.00  0.00    +0.000 A 
ATOM     18  N   UNL     1      51.475   0.660  17.609  0.00  0.00    +0.000 N 
ATOM     19  C   UNL     1      51.189   1.976  17.334  0.00  0.00    +0.000 A 
ATOM     20  O   UNL     1      50.197   2.288  16.683  0.00  0.00    +0.000 OA
ATOM     21  C   UNL     1      52.175   2.923  17.821  0.00  0.00    +0.000 A 
ATOM     22  H   UNL     1      50.804  -0.019  17.283  0.00  0.00    +0.000 HD
ENDBRANCH   9  12
ENDBRANCH   7  10
ENDBRANCH   1   7
BRANCH   4  23
ATOM     23  C   UNL     1      46.036   4.016  12.814  0.00  0.00    +0.000 C 
BRANCH  23  24
ATOM     24  N   UNL     1      44.584   4.169  12.955  0.00  0.00    +0.000 NA
ATOM     25  H   UNL     1      44.353   4.591  13.853  0.00  0.00    +0.000 HD
BRANCH  24  26
ATOM     26  CA  UNL     1      44.002   4.972  11.856  0.00  0.00    +0.000 C 
BRANCH  26  27
ATOM     27  C   UNL     1      44.281   4.262  10.525  0.00  0.00    +0.000 C 
ATOM     28  N   UNL     1      43.885   3.033  10.310  0.00  0.00    +0.000 NA
ATOM     29  C   UNL     1      44.479   2.673   8.993  0.00  0.00    +0.000 C 
ATOM     30  C   UNL     1      45.286   3.881   8.506  0.00  0.00    +0.000 C 
ATOM     31  N   UNL     1      45.016   4.864   9.527  0.00  0.00    +0.000 N 
ATOM     32  H   UNL     1      45.813   5.400   9.874  0.00  0.00    +0.000 HD
ENDBRANCH  26  27
BRANCH  26  33
ATOM     33  C   UNL     1      42.477   5.193  11.944  0.00  0.00    +0.000 C 
BRANCH  33  34
ATOM     34  O   UNL     1      42.131   6.565  11.710  0.00  0.00    +0.000 OA
ATOM     35  H   UNL     1      42.455   7.070  12.478  0.00  0.00    +0.000 HD
ENDBRANCH  33  34
ENDBRANCH  26  33
ENDBRANCH  24  26
ENDBRANCH  23  24
ENDBRANCH   4  23
TORSDOF 9
ENDMDL
MODEL 3
REMARK VINA RESULT:    -6.991      2.656      8.134
REMARK INTER + INTRA:         -11.947
REMARK INTER:                  -9.772
REMARK INTRA:                  -2.175
REMARK UNBOUND:                -1.482
REMARK  Name = 
REMARK  9 active torsions:
REMARK  status: ('A' for Active; 'I' for Inactive)
REMARK    1  A    between atoms: C_2  and  C_21
REMARK    2  A    between atoms: N_3  and  C_4
REMARK    3  A    between atoms: C_4  and  C_5
REMARK    4  A    between atoms: C_8  and  C_9
REMARK    5  A    between atoms: C_9  and  N_10
REMARK    6  A    between atoms: N_10  and  CA_11
REMARK    7  A    between atoms: CA_11  and  C_12
REMARK    8  A    between atoms: CA_11  and  C_14
REMARK    9  A    between atoms: C_12  and  O_13
REMARK                            x       y       z     vdW  Elec       q    Type
REMARK                         _______ _______ _______ _____ _____    ______ ____
ROOT
ATOM      1  C   UNL     1      48.163   7.896  13.261  0.00  0.00    +0.000 A 
ATOM      2  C   UNL     1      47.808   8.947  14.108  0.00  0.00    +0.000 A 
ATOM      3  C   UNL     1      48.331   9.000  15.398  0.00  0.00    +0.000 A 
ATOM      4  C   UNL     1      49.183   7.983  15.819  0.00  0.00    +0.000 A 
ATOM      5  N   UNL     1      49.519   6.938  15.021  0.00  0.00    +0.000 NA
ATOM      6  C   UNL     1      49.004   6.917  13.769  0.00  0.00    +0.000 A 
ENDROOT
BRANCH   1   7
ATOM      7  C   UNL     1      47.631   7.791  11.858  0.00  0.00    +0.000 C 
BRANCH   7  10
ATOM      8  O   UNL     1      44.847   7.478  12.115  0.00  0.00    +0.000 OA
ATOM      9  C   UNL     1      45.521   6.510  11.775  0.00  0.00    +0.000 C 
ATOM     10  N   UNL     1      46.891   6.571  11.670  0.00  0.00    +0.000 N 
ATOM     11  H   UNL     1      47.382   5.811  11.212  0.00  0.00    +0.000 HD
BRANCH   9  12
ATOM     12  C   UNL     1      44.911   5.201  11.510  0.00  0.00    +0.000 A 
ATOM     13  C   UNL     1      44.152   4.582  12.492  0.00  0.00    +0.000 A 
ATOM     14  S   UNL     1      43.546   3.055  12.029  0.00  0.00    +0.000 S 
ATOM     15  C   UNL     1      44.235   3.191  10.479  0.00  0.00    +0.000 A 
ATOM     16  N   UNL     1      44.067   2.211   9.551  0.00  0.00    +0.000 NA
ATOM     17  C   UNL     1      44.599   2.466   8.403  0.00  0.00    +0.000 A 
ATOM     18  N   UNL     1      45.296   3.606   8.102  0.00  0.00    +0.000 N 
ATOM     19  C   UNL     1      45.564   4.583   9.032  0.00  0.00    +0.000 A 
ATOM     20  O   UNL     1      46.312   5.519   8.773  0.00  0.00    +0.000 OA
ATOM     21  C   UNL     1      44.940   4.371  10.326  0.00  0.00    +0.000 A 
ATOM     22  H   UNL     1      45.716   3.731   7.192  0.00  0.00    +0.000 HD
ENDBRANCH   9  12
ENDBRANCH   7  10
ENDBRANCH   1   7
BRANCH   4  23
ATOM     23  C   UNL     1      49.804   8.013  17.200  0.00  0.00    +0.000 C 
BRANCH  23  24
ATOM     24  N   UNL     1      48.988   7.351  18.224  0.00  0.00    +0.000 NA
ATOM     25  H   UNL     1      48.020   7.275  17.917  0.00  0.00    +0.000 HD
BRANCH  24  26
ATOM     26  CA  UNL     1      49.515   6.012  18.572  0.00  0.00    +0.000 C 
BRANCH  26  27
ATOM     27  C   UNL     1      48.564   4.946  18.011  0.00  0.00    +0.000 C 
ATOM     28  N   UNL     1      48.573   3.717  18.461  0.00  0.00    +0.000 NA
ATOM     29  C   UNL     1      47.636   2.984  17.566  0.00  0.00    +0.000 C 
ATOM     30  C   UNL     1      47.111   3.984  16.529  0.00  0.00    +0.000 C 
ATOM     31  N   UNL     1      47.709   5.223  16.966  0.00  0.00    +0.000 N 
ATOM     32  H   UNL     1      48.124   5.814  16.245  0.00  0.00    +0.000 HD
ENDBRANCH  26  27
BRANCH  26  33
ATOM     33  C   UNL     1      50.923   5.700  18.025  0.00  0.00    +0.000 C 
BRANCH  33  34
ATOM     34  O   UNL     1      50.867   4.781  16.925  0.00  0.00    +0.000 OA
ATOM     35  H   UNL     1      51.727   4.323  16.900  0.00  0.00    +0.000 HD
ENDBRANCH  33  34
ENDBRANCH  26  33
ENDBRANCH  24  26
ENDBRANCH  23  24
ENDBRANCH   4  23
TORSDOF 9
ENDMDL
MODEL 4
REMARK VINA RESULT:    -6.962      4.782      9.475
REMARK INTER + INTRA:         -11.903
REMARK INTER:                 -10.607
REMARK INTRA:                  -1.296
REMARK UNBOUND:                -1.482
REMARK  Name = 
REMARK  9 active torsions:
REMARK  status: ('A' for Active; 'I' for Inactive)
REMARK    1  A    between atoms: C_2  and  C_21
REMARK    2  A    between atoms: N_3  and  C_4
REMARK    3  A    between atoms: C_4  and  C_5
REMARK    4  A    between atoms: C_8  and  C_9
REMARK    5  A    between atoms: C_9  and  N_10
REMARK    6  A    between atoms: N_10  and  CA_11
REMARK    7  A    between atoms: CA_11  and  C_12
REMARK    8  A    between atoms: CA_11  and  C_14
REMARK    9  A    between atoms: C_12  and  O_13
REMARK                            x       y       z     vdW  Elec       q    Type
REMARK                         _______ _______ _______ _____ _____    ______ ____
ROOT
ATOM      1  C   UNL     1      48.704   3.333  17.174  0.00  0.00    +0.000 A 
ATOM      2  C   UNL     1      49.540   4.266  17.791  0.00  0.00    +0.000 A 
ATOM      3  C   UNL     1      50.881   3.955  18.004  0.00  0.00    +0.000 A 
ATOM      4  C   UNL     1      51.350   2.704  17.616  0.00  0.00    +0.000 A 
ATOM      5  N   UNL     1      50.548   1.772  17.040  0.00  0.00    +0.000 NA
ATOM      6  C   UNL     1      49.252   2.104  16.835  0.00  0.00    +0.000 A 
ENDROOT
BRANCH   1   7
ATOM      7  C   UNL     1      47.250   3.617  16.916  0.00  0.00    +0.000 C 
BRANCH   7  10
ATOM      8  O   UNL     1      47.242   3.158  14.140  0.00  0.00    +0.000 OA
ATOM      9  C   UNL     1      47.053   4.300  14.551  0.00  0.00    +0.000 C 
ATOM     10  N   UNL     1      47.086   4.613  15.890  0.00  0.00    +0.000 N 
ATOM     11  H   UNL     1      46.745   5.519  16.191  0.00  0.00    +0.000 HD
BRANCH   9  12
ATOM     12  C   UNL     1      46.834   5.424  13.631  0.00  0.00    +0.000 A 
ATOM     13  C   UNL     1      47.887   6.264  13.306  0.00  0.00    +0.000 A 
ATOM     14  S   UNL     1      47.451   7.534  12.253  0.00  0.00    +0.000 S 
ATOM     15  C   UNL     1      45.847   6.974  12.154  0.00  0.00    +0.000 A 
ATOM     16  N   UNL     1      44.931   7.610  11.375  0.00  0.00    +0.000 NA
ATOM     17  C   UNL     1      43.769   7.049  11.353  0.00  0.00    +0.000 A 
ATOM     18  N   UNL     1      43.434   5.918  12.049  0.00  0.00    +0.000 N 
ATOM     19  C   UNL     1      44.301   5.292  12.914  0.00  0.00    +0.000 A 
ATOM     20  O   UNL     1      43.928   4.371  13.632  0.00  0.00    +0.000 OA
ATOM     21  C   UNL     1      45.641   5.851  12.935  0.00  0.00    +0.000 A 
ATOM     22  H   UNL     1      42.496   5.547  12.014  0.00  0.00    +0.000 HD
ENDBRANCH   9  12
ENDBRANCH   7  10
ENDBRANCH   1   7
BRANCH   4  23
ATOM     23  C   UNL     1      52.806   2.331  17.796  0.00  0.00    +0.000 C 
BRANCH  23  24
ATOM     24  N   UNL     1      53.002   1.045  18.475  0.00  0.00    +0.000 NA
ATOM     25  H   UNL     1      52.208   0.429  18.314  0.00  0.00    +0.000 HD
BRANCH  24  26
ATOM     26  CA  UNL     1      54.254   0.378  18.049  0.00  0.00    +0.000 C 
BRANCH  26  27
ATOM     27  C   UNL     1      54.243  -1.066  18.566  0.00  0.00    +0.000 C 
ATOM     28  N   UNL     1      55.330  -1.796  18.576  0.00  0.00    +0.000 NA
ATOM     29  C   UNL     1      54.868  -3.149  18.993  0.00  0.00    +0.000 C 
ATOM     30  C   UNL     1      53.351  -3.075  19.199  0.00  0.00    +0.000 C 
ATOM     31  N   UNL     1      53.078  -1.675  18.978  0.00  0.00    +0.000 N 
ATOM     32  H   UNL     1      52.271  -1.449  18.395  0.00  0.00    +0.000 HD
ENDBRANCH  26  27
BRANCH  26  33
ATOM     33  C   UNL     1      54.475   0.315  16.523  0.00  0.00    +0.000 C 
BRANCH  33  34
ATOM     34  O   UNL     1      53.917  -0.881  15.961  0.00  0.00    +0.000 OA
ATOM     35  H   UNL     1      54.652  -1.515  15.869  0.00  0.00    +0.000 HD
ENDBRANCH  33  34
ENDBRANCH  26  33
ENDBRANCH  24  26
ENDBRANCH  23  24
ENDBRANCH   4  23
TORSDOF 9
ENDMDL
MODEL 5
REMARK VINA RESULT:    -6.889      1.765      2.269
REMARK INTER + INTRA:         -11.795
REMARK INTER:                 -10.452
REMARK INTRA:                  -1.343
REMARK UNBOUND:                -1.482
REMARK  Name = 
REMARK  9 active torsions:
REMARK  status: ('A' for Active; 'I' for Inactive)
REMARK    1  A    between atoms: C_2  and  C_21
REMARK    2  A    between atoms: N_3  and  C_4
REMARK    3  A    between atoms: C_4  and  C_5
REMARK    4  A    between atoms: C_8  and  C_9
REMARK    5  A    between atoms: C_9  and  N_10
REMARK    6  A    between atoms: N_10  and  CA_11
REMARK    7  A    between atoms: CA_11  and  C_12
REMARK    8  A    between atoms: CA_11  and  C_14
REMARK    9  A    between atoms: C_12  and  O_13
REMARK                            x       y       z     vdW  Elec       q    Type
REMARK                         _______ _______ _______ _____ _____    ______ ____
ROOT
ATOM      1  C   UNL     1      47.833   6.887  13.486  0.00  0.00    +0.000 A 
ATOM      2  C   UNL     1      47.450   5.550  13.623  0.00  0.00    +0.000 A 
ATOM      3  C   UNL     1      46.157   5.165  13.279  0.00  0.00    +0.000 A 
ATOM      4  C   UNL     1      45.266   6.133  12.825  0.00  0.00    +0.000 A 
ATOM      5  N   UNL     1      45.608   7.442  12.711  0.00  0.00    +0.000 NA
ATOM      6  C   UNL     1      46.874   7.787  13.043  0.00  0.00    +0.000 A 
ENDROOT
BRANCH   1   7
ATOM      7  C   UNL     1      49.216   7.358  13.840  0.00  0.00    +0.000 C 
BRANCH   7  10
ATOM      8  O   UNL     1      48.428   8.942  16.027  0.00  0.00    +0.000 OA
ATOM      9  C   UNL     1      49.058   7.909  16.242  0.00  0.00    +0.000 C 
ATOM     10  N   UNL     1      49.516   7.105  15.225  0.00  0.00    +0.000 N 
ATOM     11  H   UNL     1      49.864   6.180  15.450  0.00  0.00    +0.000 HD
BRANCH   9  12
ATOM     12  C   UNL     1      49.412   7.492  17.605  0.00  0.00    +0.000 A 
ATOM     13  C   UNL     1      50.209   8.309  18.391  0.00  0.00    +0.000 A 
ATOM     14  S   UNL     1      50.550   7.658  19.931  0.00  0.00    +0.000 S 
ATOM     15  C   UNL     1      49.599   6.282  19.620  0.00  0.00    +0.000 A 
ATOM     16  N   UNL     1      49.442   5.313  20.561  0.00  0.00    +0.000 NA
ATOM     17  C   UNL     1      48.655   4.351  20.211  0.00  0.00    +0.000 A 
ATOM     18  N   UNL     1      48.022   4.262  18.999  0.00  0.00    +0.000 N 
ATOM     19  C   UNL     1      48.219   5.172  17.988  0.00  0.00    +0.000 A 
ATOM     20  O   UNL     1      47.754   4.989  16.867  0.00  0.00    +0.000 OA
ATOM     21  C   UNL     1      49.053   6.305  18.349  0.00  0.00    +0.000 A 
ATOM     22  H   UNL     1      47.443   3.466  18.775  0.00  0.00    +0.000 HD
ENDBRANCH   9  12
ENDBRANCH   7  10
ENDBRANCH   1   7
BRANCH   4  23
ATOM     23  C   UNL     1      43.860   5.758  12.407  0.00  0.00    +0.000 C 
BRANCH  23  24
ATOM     24  N   UNL     1      43.729   5.480  10.973  0.00  0.00    +0.000 NA
ATOM     25  H   UNL     1      44.580   5.741  10.477  0.00  0.00    +0.000 HD
BRANCH  24  26
ATOM     26  CA  UNL     1      43.409   4.058  10.710  0.00  0.00    +0.000 C 
BRANCH  26  27
ATOM     27  C   UNL     1      44.425   3.501   9.704  0.00  0.00    +0.000 C 
ATOM     28  N   UNL     1      44.794   4.189   8.654  0.00  0.00    +0.000 NA
ATOM     29  C   UNL     1      45.646   3.251   7.873  0.00  0.00    +0.000 C 
ATOM     30  C   UNL     1      45.687   1.922   8.635  0.00  0.00    +0.000 C 
ATOM     31  N   UNL     1      44.939   2.228   9.830  0.00  0.00    +0.000 N 
ATOM     32  H   UNL     1      44.250   1.538  10.133  0.00  0.00    +0.000 HD
ENDBRANCH  26  27
BRANCH  26  33
ATOM     33  C   UNL     1      43.444   3.140  11.950  0.00  0.00    +0.000 C 
BRANCH  33  34
ATOM     34  O   UNL     1      42.854   1.862  11.674  0.00  0.00    +0.000 OA
ATOM     35  H   UNL     1      42.267   1.986  10.906  0.00  0.00    +0.000 HD
ENDBRANCH  33  34
ENDBRANCH  26  33
ENDBRANCH  24  26
ENDBRANCH  23  24
ENDBRANCH   4  23
TORSDOF 9
ENDMDL
MODEL 6
REMARK VINA RESULT:    -6.779      3.228      5.383
REMARK INTER + INTRA:         -11.629
REMARK INTER:                  -9.891
REMARK INTRA:                  -1.738
REMARK UNBOUND:                -1.482
REMARK  Name = 
REMARK  9 active torsions:
REMARK  status: ('A' for Active; 'I' for Inactive)
REMARK    1  A    between atoms: C_2  and  C_21
REMARK    2  A    between atoms: N_3  and  C_4
REMARK    3  A    between atoms: C_4  and  C_5
REMARK    4  A    between atoms: C_8  and  C_9
REMARK    5  A    between atoms: C_9  and  N_10
REMARK    6  A    between atoms: N_10  and  CA_11
REMARK    7  A    between atoms: CA_11  and  C_12
REMARK    8  A    between atoms: CA_11  and  C_14
REMARK    9  A    between atoms: C_12  and  O_13
REMARK                            x       y       z     vdW  Elec       q    Type
REMARK                         _______ _______ _______ _____ _____    ______ ____
ROOT
ATOM      1  C   UNL     1      47.638   4.342  16.017  0.00  0.00    +0.000 A 
ATOM      2  C   UNL     1      48.207   5.617  16.034  0.00  0.00    +0.000 A 
ATOM      3  C   UNL     1      48.124   6.425  14.903  0.00  0.00    +0.000 A 
ATOM      4  C   UNL     1      47.490   5.927  13.768  0.00  0.00    +0.000 A 
ATOM      5  N   UNL     1      46.955   4.680  13.720  0.00  0.00    +0.000 NA
ATOM      6  C   UNL     1      47.042   3.920  14.837  0.00  0.00    +0.000 A 
ENDROOT
BRANCH   1   7
ATOM      7  C   UNL     1      47.697   3.429  17.211  0.00  0.00    +0.000 C 
BRANCH   7  10
ATOM      8  O   UNL     1      49.535   1.759  15.890  0.00  0.00    +0.000 OA
ATOM      9  C   UNL     1      49.906   2.376  16.885  0.00  0.00    +0.000 C 
ATOM     10  N   UNL     1      49.056   3.177  17.610  0.00  0.00    +0.000 N 
ATOM     11  H   UNL     1      49.446   3.805  18.305  0.00  0.00    +0.000 HD
BRANCH   9  12
ATOM     12  C   UNL     1      51.276   2.255  17.400  0.00  0.00    +0.000 A 
ATOM     13  C   UNL     1      51.900   1.017  17.415  0.00  0.00    +0.000 A 
ATOM     14  S   UNL     1      53.473   1.051  18.075  0.00  0.00    +0.000 S 
ATOM     15  C   UNL     1      53.395   2.733  18.317  0.00  0.00    +0.000 A 
ATOM     16  N   UNL     1      54.450   3.415  18.838  0.00  0.00    +0.000 NA
ATOM     17  C   UNL     1      54.273   4.691  18.920  0.00  0.00    +0.000 A 
ATOM     18  N   UNL     1      53.132   5.347  18.540  0.00  0.00    +0.000 N 
ATOM     19  C   UNL     1      52.012   4.691  18.088  0.00  0.00    +0.000 A 
ATOM     20  O   UNL     1      50.959   5.290  17.895  0.00  0.00    +0.000 OA
ATOM     21  C   UNL     1      52.176   3.258  17.925  0.00  0.00    +0.000 A 
ATOM     22  H   UNL     1      53.046   6.346  18.659  0.00  0.00    +0.000 HD
ENDBRANCH   9  12
ENDBRANCH   7  10
ENDBRANCH   1   7
BRANCH   4  23
ATOM     23  C   UNL     1      47.344   6.778  12.524  0.00  0.00    +0.000 C 
BRANCH  23  24
ATOM     24  N   UNL     1      46.164   7.649  12.545  0.00  0.00    +0.000 NA
ATOM     25  H   UNL     1      46.442   8.629  12.559  0.00  0.00    +0.000 HD
BRANCH  24  26
ATOM     26  CA  UNL     1      45.267   7.395  11.395  0.00  0.00    +0.000 C 
BRANCH  26  27
ATOM     27  C   UNL     1      44.420   6.151  11.695  0.00  0.00    +0.000 C 
ATOM     28  N   UNL     1      44.057   5.327  10.746  0.00  0.00    +0.000 NA
ATOM     29  C   UNL     1      43.139   4.366  11.416  0.00  0.00    +0.000 C 
ATOM     30  C   UNL     1      43.025   4.785  12.886  0.00  0.00    +0.000 C 
ATOM     31  N   UNL     1      43.953   5.887  12.964  0.00  0.00    +0.000 N 
ATOM     32  H   UNL     1      43.640   6.720  13.465  0.00  0.00    +0.000 HD
ENDBRANCH  26  27
BRANCH  26  33
ATOM     33  C   UNL     1      44.289   8.543  11.062  0.00  0.00    +0.000 C 
BRANCH  33  34
ATOM     34  O   UNL     1      42.933   8.079  11.014  0.00  0.00    +0.000 OA
ATOM     35  H   UNL     1      42.962   7.115  11.157  0.00  0.00    +0.000 HD
ENDBRANCH  33  34
ENDBRANCH  26  33
ENDBRANCH  24  26
ENDBRANCH  23  24
ENDBRANCH   4  23
TORSDOF 9
ENDMDL
MODEL 7
REMARK VINA RESULT:    -6.718      4.895      9.430
REMARK INTER + INTRA:         -11.539
REMARK INTER:                 -10.254
REMARK INTRA:                  -1.285
REMARK UNBOUND:                -1.482
REMARK  Name = 
REMARK  9 active torsions:
REMARK  status: ('A' for Active; 'I' for Inactive)
REMARK    1  A    between atoms: C_2  and  C_21
REMARK    2  A    between atoms: N_3  and  C_4
REMARK    3  A    between atoms: C_4  and  C_5
REMARK    4  A    between atoms: C_8  and  C_9
REMARK    5  A    between atoms: C_9  and  N_10
REMARK    6  A    between atoms: N_10  and  CA_11
REMARK    7  A    between atoms: CA_11  and  C_12
REMARK    8  A    between atoms: CA_11  and  C_14
REMARK    9  A    between atoms: C_12  and  O_13
REMARK                            x       y       z     vdW  Elec       q    Type
REMARK                         _______ _______ _______ _____ _____    ______ ____
ROOT
ATOM      1  C   UNL     1      48.569   3.361  17.041  0.00  0.00    +0.000 A 
ATOM      2  C   UNL     1      49.451   4.148  17.784  0.00  0.00    +0.000 A 
ATOM      3  C   UNL     1      50.754   3.706  17.999  0.00  0.00    +0.000 A 
ATOM      4  C   UNL     1      51.139   2.472  17.484  0.00  0.00    +0.000 A 
ATOM      5  N   UNL     1      50.289   1.679  16.783  0.00  0.00    +0.000 NA
ATOM      6  C   UNL     1      49.031   2.137  16.580  0.00  0.00    +0.000 A 
ENDROOT
BRANCH   1   7
ATOM      7  C   UNL     1      47.152   3.790  16.775  0.00  0.00    +0.000 C 
BRANCH   7  10
ATOM      8  O   UNL     1      47.010   3.189  14.030  0.00  0.00    +0.000 OA
ATOM      9  C   UNL     1      46.979   4.366  14.380  0.00  0.00    +0.000 C 
ATOM     10  N   UNL     1      47.088   4.743  15.697  0.00  0.00    +0.000 N 
ATOM     11  H   UNL     1      46.874   5.700  15.954  0.00  0.00    +0.000 HD
BRANCH   9  12
ATOM     12  C   UNL     1      46.879   5.458  13.403  0.00  0.00    +0.000 A 
ATOM     13  C   UNL     1      45.855   5.455  12.468  0.00  0.00    +0.000 A 
ATOM     14  S   UNL     1      45.907   6.777  11.390  0.00  0.00    +0.000 S 
ATOM     15  C   UNL     1      47.273   7.428  12.168  0.00  0.00    +0.000 A 
ATOM     16  N   UNL     1      47.825   8.599  11.750  0.00  0.00    +0.000 NA
ATOM     17  C   UNL     1      48.824   9.002  12.460  0.00  0.00    +0.000 A 
ATOM     18  N   UNL     1      49.331   8.334  13.544  0.00  0.00    +0.000 N 
ATOM     19  C   UNL     1      48.861   7.108  13.950  0.00  0.00    +0.000 A 
ATOM     20  O   UNL     1      49.428   6.469  14.830  0.00  0.00    +0.000 OA
ATOM     21  C   UNL     1      47.700   6.634  13.218  0.00  0.00    +0.000 A 
ATOM     22  H   UNL     1      50.137   8.688  14.039  0.00  0.00    +0.000 HD
ENDBRANCH   9  12
ENDBRANCH   7  10
ENDBRANCH   1   7
BRANCH   4  23
ATOM     23  C   UNL     1      52.554   1.963  17.663  0.00  0.00    +0.000 C 
BRANCH  23  24
ATOM     24  N   UNL     1      52.692   0.522  17.427  0.00  0.00    +0.000 NA
ATOM     25  H   UNL     1      52.344   0.274  16.503  0.00  0.00    +0.000 HD
BRANCH  24  26
ATOM     26  CA  UNL     1      54.094   0.067  17.577  0.00  0.00    +0.000 C 
BRANCH  26  27
ATOM     27  C   UNL     1      54.113  -1.195  18.449  0.00  0.00    +0.000 C 
ATOM     28  N   UNL     1      55.191  -1.926  18.569  0.00  0.00    +0.000 NA
ATOM     29  C   UNL     1      54.753  -3.113  19.354  0.00  0.00    +0.000 C 
ATOM     30  C   UNL     1      53.257  -2.948  19.642  0.00  0.00    +0.000 C 
ATOM     31  N   UNL     1      52.978  -1.646  19.088  0.00  0.00    +0.000 N 
ATOM     32  H   UNL     1      52.130  -1.555  18.526  0.00  0.00    +0.000 HD
ENDBRANCH  26  27
BRANCH  26  33
ATOM     33  C   UNL     1      54.814  -0.280  16.257  0.00  0.00    +0.000 C 
BRANCH  33  34
ATOM     34  O   UNL     1      54.251  -1.448  15.644  0.00  0.00    +0.000 OA
ATOM     35  H   UNL     1      53.345  -1.536  15.991  0.00  0.00    +0.000 HD
ENDBRANCH  33  34
ENDBRANCH  26  33
ENDBRANCH  24  26
ENDBRANCH  23  24
ENDBRANCH   4  23
TORSDOF 9
ENDMDL
MODEL 8
REMARK VINA RESULT:    -6.273      2.172      3.116
REMARK INTER + INTRA:         -10.872
REMARK INTER:                 -10.304
REMARK INTRA:                  -0.568
REMARK UNBOUND:                -1.482
REMARK  Name = 
REMARK  9 active torsions:
REMARK  status: ('A' for Active; 'I' for Inactive)
REMARK    1  A    between atoms: C_2  and  C_21
REMARK    2  A    between atoms: N_3  and  C_4
REMARK    3  A    between atoms: C_4  and  C_5
REMARK    4  A    between atoms: C_8  and  C_9
REMARK    5  A    between atoms: C_9  and  N_10
REMARK    6  A    between atoms: N_10  and  CA_11
REMARK    7  A    between atoms: CA_11  and  C_12
REMARK    8  A    between atoms: CA_11  and  C_14
REMARK    9  A    between atoms: C_12  and  O_13
REMARK                            x       y       z     vdW  Elec       q    Type
REMARK                         _______ _______ _______ _____ _____    ______ ____
ROOT
ATOM      1  C   UNL     1      46.404   5.590  13.131  0.00  0.00    +0.000 A 
ATOM      2  C   UNL     1      46.602   4.223  13.337  0.00  0.00    +0.000 A 
ATOM      3  C   UNL     1      45.742   3.304  12.740  0.00  0.00    +0.000 A 
ATOM      4  C   UNL     1      44.686   3.777  11.967  0.00  0.00    +0.000 A 
ATOM      5  N   UNL     1      44.458   5.102  11.777  0.00  0.00    +0.000 NA
ATOM      6  C   UNL     1      45.315   5.972  12.361  0.00  0.00    +0.000 A 
ENDROOT
BRANCH   1   7
ATOM      7  C   UNL     1      47.303   6.625  13.748  0.00  0.00    +0.000 C 
BRANCH   7  10
ATOM      8  O   UNL     1      48.672   8.038  15.760  0.00  0.00    +0.000 OA
ATOM      9  C   UNL     1      48.733   6.811  15.752  0.00  0.00    +0.000 C 
ATOM     10  N   UNL     1      48.130   6.052  14.778  0.00  0.00    +0.000 N 
ATOM     11  H   UNL     1      48.051   5.050  14.914  0.00  0.00    +0.000 HD
BRANCH   9  12
ATOM     12  C   UNL     1      49.508   6.073  16.758  0.00  0.00    +0.000 A 
ATOM     13  C   UNL     1      48.850   5.300  17.703  0.00  0.00    +0.000 A 
ATOM     14  S   UNL     1      49.897   4.538  18.814  0.00  0.00    +0.000 S 
ATOM     15  C   UNL     1      51.272   5.174  18.039  0.00  0.00    +0.000 A 
ATOM     16  N   UNL     1      52.524   4.880  18.482  0.00  0.00    +0.000 NA
ATOM     17  C   UNL     1      53.474   5.388  17.771  0.00  0.00    +0.000 A 
ATOM     18  N   UNL     1      53.287   6.175  16.665  0.00  0.00    +0.000 N 
ATOM     19  C   UNL     1      52.043   6.568  16.233  0.00  0.00    +0.000 A 
ATOM     20  O   UNL     1      51.913   7.389  15.331  0.00  0.00    +0.000 OA
ATOM     21  C   UNL     1      50.936   5.979  16.965  0.00  0.00    +0.000 A 
ATOM     22  H   UNL     1      54.075   6.568  16.171  0.00  0.00    +0.000 HD
ENDBRANCH   9  12
ENDBRANCH   7  10
ENDBRANCH   1   7
BRANCH   4  23
ATOM     23  C   UNL     1      43.744   2.817  11.270  0.00  0.00    +0.000 C 
BRANCH  23  24
ATOM     24  N   UNL     1      44.361   2.098  10.151  0.00  0.00    +0.000 NA
ATOM     25  H   UNL     1      43.659   1.581   9.625  0.00  0.00    +0.000 HD
BRANCH  24  26
ATOM     26  CA  UNL     1      45.100   3.009   9.247  0.00  0.00    +0.000 C 
BRANCH  26  27
ATOM     27  C   UNL     1      45.989   2.169   8.319  0.00  0.00    +0.000 C 
ATOM     28  N   UNL     1      45.980   0.862   8.365  0.00  0.00    +0.000 NA
ATOM     29  C   UNL     1      47.071   0.448   7.440  0.00  0.00    +0.000 C 
ATOM     30  C   UNL     1      47.709   1.724   6.879  0.00  0.00    +0.000 C 
ATOM     31  N   UNL     1      46.879   2.759   7.448  0.00  0.00    +0.000 N 
ATOM     32  H   UNL     1      47.358   3.570   7.840  0.00  0.00    +0.000 HD
ENDBRANCH  26  27
BRANCH  26  33
ATOM     33  C   UNL     1      44.215   3.899   8.348  0.00  0.00    +0.000 C 
BRANCH  33  34
ATOM     34  O   UNL     1      43.499   4.874   9.118  0.00  0.00    +0.000 OA
ATOM     35  H   UNL     1      42.581   4.553   9.189  0.00  0.00    +0.000 HD
ENDBRANCH  33  34
ENDBRANCH  26  33
ENDBRANCH  24  26
ENDBRANCH  23  24
ENDBRANCH   4  23
TORSDOF 9
ENDMDL
MODEL 9
REMARK VINA RESULT:    -6.074      1.998      2.574
REMARK INTER + INTRA:         -10.574
REMARK INTER:                  -9.147
REMARK INTRA:                  -1.427
REMARK UNBOUND:                -1.482
REMARK  Name = 
REMARK  9 active torsions:
REMARK  status: ('A' for Active; 'I' for Inactive)
REMARK    1  A    between atoms: C_2  and  C_21
REMARK    2  A    between atoms: N_3  and  C_4
REMARK    3  A    between atoms: C_4  and  C_5
REMARK    4  A    between atoms: C_8  and  C_9
REMARK    5  A    between atoms: C_9  and  N_10
REMARK    6  A    between atoms: N_10  and  CA_11
REMARK    7  A    between atoms: CA_11  and  C_12
REMARK    8  A    between atoms: CA_11  and  C_14
REMARK    9  A    between atoms: C_12  and  O_13
REMARK                            x       y       z     vdW  Elec       q    Type
REMARK                         _______ _______ _______ _____ _____    ______ ____
ROOT
ATOM      1  C   UNL     1      47.817   7.412  13.519  0.00  0.00    +0.000 A 
ATOM      2  C   UNL     1      46.740   8.299  13.455  0.00  0.00    +0.000 A 
ATOM      3  C   UNL     1      45.576   7.922  12.790  0.00  0.00    +0.000 A 
ATOM      4  C   UNL     1      45.523   6.671  12.183  0.00  0.00    +0.000 A 
ATOM      5  N   UNL     1      46.568   5.805  12.209  0.00  0.00    +0.000 NA
ATOM      6  C   UNL     1      47.684   6.192  12.871  0.00  0.00    +0.000 A 
ENDROOT
BRANCH   1   7
ATOM      7  C   UNL     1      49.097   7.765  14.226  0.00  0.00    +0.000 C 
BRANCH   7  10
ATOM      8  O   UNL     1      51.420   7.172  15.697  0.00  0.00    +0.000 OA
ATOM      9  C   UNL     1      50.325   6.960  16.211  0.00  0.00    +0.000 C 
ATOM     10  N   UNL     1      49.145   7.182  15.541  0.00  0.00    +0.000 N 
ATOM     11  H   UNL     1      48.275   7.169  16.061  0.00  0.00    +0.000 HD
BRANCH   9  12
ATOM     12  C   UNL     1      50.204   6.400  17.563  0.00  0.00    +0.000 A 
ATOM     13  C   UNL     1      51.010   5.338  17.944  0.00  0.00    +0.000 A 
ATOM     14  S   UNL     1      50.717   4.791  19.534  0.00  0.00    +0.000 S 
ATOM     15  C   UNL     1      49.536   5.990  19.787  0.00  0.00    +0.000 A 
ATOM     16  N   UNL     1      48.894   6.098  20.981  0.00  0.00    +0.000 NA
ATOM     17  C   UNL     1      48.061   7.082  21.051  0.00  0.00    +0.000 A 
ATOM     18  N   UNL     1      47.800   7.959  20.032  0.00  0.00    +0.000 N 
ATOM     19  C   UNL     1      48.361   7.836  18.783  0.00  0.00    +0.000 A 
ATOM     20  O   UNL     1      47.999   8.547  17.851  0.00  0.00    +0.000 OA
ATOM     21  C   UNL     1      49.348   6.778  18.665  0.00  0.00    +0.000 A 
ATOM     22  H   UNL     1      47.112   8.689  20.141  0.00  0.00    +0.000 HD
ENDBRANCH   9  12
ENDBRANCH   7  10
ENDBRANCH   1   7
BRANCH   4  23
ATOM     23  C   UNL     1      44.268   6.203  11.477  0.00  0.00    +0.000 C 
BRANCH  23  24
ATOM     24  N   UNL     1      44.532   5.503  10.215  0.00  0.00    +0.000 NA
ATOM     25  H   UNL     1      45.532   5.472  10.024  0.00  0.00    +0.000 HD
BRANCH  24  26
ATOM     26  CA  UNL     1      43.974   4.131  10.215  0.00  0.00    +0.000 C 
BRANCH  26  27
ATOM     27  C   UNL     1      44.780   3.272   9.232  0.00  0.00    +0.000 C 
ATOM     28  N   UNL     1      44.807   1.967   9.329  0.00  0.00    +0.000 NA
ATOM     29  C   UNL     1      45.805   1.536   8.311  0.00  0.00    +0.000 C 
ATOM     30  C   UNL     1      46.350   2.800   7.638  0.00  0.00    +0.000 C 
ATOM     31  N   UNL     1      45.561   3.841   8.250  0.00  0.00    +0.000 N 
ATOM     32  H   UNL     1      46.059   4.677   8.558  0.00  0.00    +0.000 HD
ENDBRANCH  26  27
BRANCH  26  33
ATOM     33  C   UNL     1      44.004   3.412  11.580  0.00  0.00    +0.000 C 
BRANCH  33  34
ATOM     34  O   UNL     1      45.325   2.958  11.906  0.00  0.00    +0.000 OA
ATOM     35  H   UNL     1      45.760   2.739  11.062  0.00  0.00    +0.000 HD
ENDBRANCH  33  34
ENDBRANCH  26  33
ENDBRANCH  24  26
ENDBRANCH  23  24
ENDBRANCH   4  23
TORSDOF 9
ENDMDL
