MODEL 1
REMARK VINA RESULT:    -8.601      0.000      0.000
REMARK INTER + INTRA:         -13.932
REMARK INTER:                 -12.623
REMARK INTRA:                  -1.309
REMARK UNBOUND:                -1.309
REMARK  Name = 
REMARK  10 active torsions:
REMARK  status: ('A' for Active; 'I' for Inactive)
REMARK    1  A    between atoms: C_1  and  O_2
REMARK    2  A    between atoms: O_2  and  C_3
REMARK    3  A    between atoms: C_10  and  C_11
REMARK    4  A    between atoms: N_13  and  C_14
REMARK    5  A    between atoms: C_14  and  C_15
REMARK    6  A    between atoms: C_18  and  N_19
REMARK    7  A    between atoms: N_19  and  C_20
REMARK    8  A    between atoms: C_20  and  C_21
REMARK    9  A    between atoms: C_21  and  C_22
REMARK   10  A    between atoms: C_26  and  C_27
REMARK                            x       y       z     vdW  Elec       q    Type
REMARK                         _______ _______ _______ _____ _____    ______ ____
ROOT
ATOM      1  C   UNL     1      46.958   8.035  13.021  0.00  0.00    +0.000 A 
ATOM      2  C   UNL     1      47.429   6.965  12.252  0.00  0.00    +0.000 A 
ATOM      3  C   UNL     1      46.569   6.270  11.395  0.00  0.00    +0.000 A 
ATOM      4  C   UNL     1      45.220   6.621  11.287  0.00  0.00    +0.000 A 
ATOM      5  C   UNL     1      44.797   7.790  11.931  0.00  0.00    +0.000 A 
ATOM      6  C   UNL     1      45.649   8.480  12.803  0.00  0.00    +0.000 A 
ENDROOT
BRANCH   4   7
ATOM      7  N   UNL     1      44.282   5.895  10.540  0.00  0.00    +0.000 N 
ATOM      8  H   UNL     1      43.968   6.446   9.743  0.00  0.00    +0.000 HD
BRANCH   7   9
ATOM      9  C   UNL     1      44.615   4.515  10.155  0.00  0.00    +0.000 C 
BRANCH   9  10
ATOM     10  C   UNL     1      44.450   4.288   8.641  0.00  0.00    +0.000 C 
BRANCH  10  11
ATOM     11  C   UNL     1      45.365   3.201   8.131  0.00  0.00    +0.000 A 
ATOM     12  C   UNL     1      45.429   1.962   8.777  0.00  0.00    +0.000 A 
ATOM     13  C   UNL     1      46.242   0.947   8.272  0.00  0.00    +0.000 A 
ATOM     14  C   UNL     1      46.985   1.156   7.109  0.00  0.00    +0.000 A 
ATOM     15  C   UNL     1      46.931   2.385   6.447  0.00  0.00    +0.000 A 
ATOM     16  C   UNL     1      47.699   2.612   5.179  0.00  0.00    +0.000 C 
ATOM     17  C   UNL     1      46.132   3.410   6.974  0.00  0.00    +0.000 A 
ENDBRANCH  10  11
ENDBRANCH   9  10
ENDBRANCH   7   9
ENDBRANCH   4   7
BRANCH   1  18
ATOM     18  C   UNL     1      47.838   8.664  14.072  0.00  0.00    +0.000 C 
BRANCH  18  21
ATOM     19  C   UNL     1      49.170   7.038  15.355  0.00  0.00    +0.000 C 
ATOM     20  O   UNL     1      50.077   7.067  14.527  0.00  0.00    +0.000 OA
ATOM     21  N   UNL     1      48.043   7.799  15.204  0.00  0.00    +0.000 N 
ATOM     22  H   UNL     1      47.313   7.772  15.901  0.00  0.00    +0.000 HD
BRANCH  19  30
ATOM     23  C   UNL     1      47.405   4.267  16.362  0.00  0.00    +0.000 A 
ATOM     24  N   UNL     1      46.931   3.148  16.938  0.00  0.00    +0.000 NA
ATOM     25  C   UNL     1      47.494   2.747  18.084  0.00  0.00    +0.000 A 
ATOM     26  N   UNL     1      48.483   3.346  18.742  0.00  0.00    +0.000 NA
ATOM     27  C   UNL     1      48.937   4.452  18.120  0.00  0.00    +0.000 A 
ATOM     28  S   UNL     1      50.197   5.349  18.818  0.00  0.00    +0.000 S 
ATOM     29  C   UNL     1      50.186   6.456  17.527  0.00  0.00    +0.000 A 
ATOM     30  C   UNL     1      49.247   6.167  16.544  0.00  0.00    +0.000 A 
ATOM     31  C   UNL     1      48.481   4.979  16.920  0.00  0.00    +0.000 A 
BRANCH  23  33
ATOM     32  C   UNL     1      47.029   3.782  14.105  0.00  0.00    +0.000 C 
ATOM     33  O   UNL     1      46.825   4.686  15.185  0.00  0.00    +0.000 OA
ENDBRANCH  23  33
ENDBRANCH  19  30
ENDBRANCH  18  21
ENDBRANCH   1  18
TORSDOF 8
ENDMDL
MODEL 2
REMARK VINA RESULT:    -7.955      1.679      2.275
REMARK INTER + INTRA:         -12.984
REMARK INTER:                 -11.550
REMARK INTRA:                  -1.434
REMARK UNBOUND:                -1.309
REMARK  Name = 
REMARK  10 active torsions:
REMARK  status: ('A' for Active; 'I' for Inactive)
REMARK    1  A    between atoms: C_1  and  O_2
REMARK    2  A    between atoms: O_2  and  C_3
REMARK    3  A    between atoms: C_10  and  C_11
REMARK    4  A    between atoms: N_13  and  C_14
REMARK    5  A    between atoms: C_14  and  C_15
REMARK    6  A    between atoms: C_18  and  N_19
REMARK    7  A    between atoms: N_19  and  C_20
REMARK    8  A    between atoms: C_20  and  C_21
REMARK    9  A    between atoms: C_21  and  C_22
REMARK   10  A    between atoms: C_26  and  C_27
REMARK                            x       y       z     vdW  Elec       q    Type
REMARK                         _______ _______ _______ _____ _____    ______ ____
ROOT
ATOM      1  C   UNL     1      47.099   6.827  13.195  0.00  0.00    +0.000 A 
ATOM      2  C   UNL     1      46.846   5.539  13.682  0.00  0.00    +0.000 A 
ATOM      3  C   UNL     1      45.693   4.845  13.297  0.00  0.00    +0.000 A 
ATOM      4  C   UNL     1      44.764   5.420  12.424  0.00  0.00    +0.000 A 
ATOM      5  C   UNL     1      45.104   6.634  11.816  0.00  0.00    +0.000 A 
ATOM      6  C   UNL     1      46.248   7.340  12.210  0.00  0.00    +0.000 A 
ENDROOT
BRANCH   4   7
ATOM      7  N   UNL     1      43.536   4.830  12.093  0.00  0.00    +0.000 N 
ATOM      8  H   UNL     1      42.769   5.425  12.403  0.00  0.00    +0.000 HD
BRANCH   7   9
ATOM      9  C   UNL     1      43.340   4.356  10.714  0.00  0.00    +0.000 C 
BRANCH   9  10
ATOM     10  C   UNL     1      43.977   2.971  10.490  0.00  0.00    +0.000 C 
BRANCH  10  11
ATOM     11  C   UNL     1      44.938   2.976   9.325  0.00  0.00    +0.000 A 
ATOM     12  C   UNL     1      45.332   4.179   8.731  0.00  0.00    +0.000 A 
ATOM     13  C   UNL     1      46.255   4.177   7.685  0.00  0.00    +0.000 A 
ATOM     14  C   UNL     1      46.804   2.976   7.236  0.00  0.00    +0.000 A 
ATOM     15  C   UNL     1      46.426   1.763   7.819  0.00  0.00    +0.000 A 
ATOM     16  C   UNL     1      47.033   0.468   7.368  0.00  0.00    +0.000 C 
ATOM     17  C   UNL     1      45.478   1.770   8.852  0.00  0.00    +0.000 A 
ENDBRANCH  10  11
ENDBRANCH   9  10
ENDBRANCH   7   9
ENDBRANCH   4   7
BRANCH   1  18
ATOM     18  C   UNL     1      48.244   7.638  13.748  0.00  0.00    +0.000 C 
BRANCH  18  21
ATOM     19  C   UNL     1      49.212   7.108  15.949  0.00  0.00    +0.000 C 
ATOM     20  O   UNL     1      50.162   6.521  15.435  0.00  0.00    +0.000 OA
ATOM     21  N   UNL     1      48.236   7.688  15.187  0.00  0.00    +0.000 N 
ATOM     22  H   UNL     1      47.469   8.177  15.626  0.00  0.00    +0.000 HD
BRANCH  19  30
ATOM     23  C   UNL     1      48.759   4.768  18.423  0.00  0.00    +0.000 A 
ATOM     24  N   UNL     1      48.658   4.064  19.565  0.00  0.00    +0.000 NA
ATOM     25  C   UNL     1      48.666   4.740  20.720  0.00  0.00    +0.000 A 
ATOM     26  N   UNL     1      48.749   6.058  20.875  0.00  0.00    +0.000 NA
ATOM     27  C   UNL     1      48.864   6.720  19.706  0.00  0.00    +0.000 A 
ATOM     28  S   UNL     1      48.979   8.413  19.710  0.00  0.00    +0.000 S 
ATOM     29  C   UNL     1      49.104   8.455  18.014  0.00  0.00    +0.000 A 
ATOM     30  C   UNL     1      49.074   7.201  17.416  0.00  0.00    +0.000 A 
ATOM     31  C   UNL     1      48.902   6.166  18.435  0.00  0.00    +0.000 A 
BRANCH  23  33
ATOM     32  C   UNL     1      47.445   3.659  16.837  0.00  0.00    +0.000 C 
ATOM     33  O   UNL     1      48.747   4.076  17.232  0.00  0.00    +0.000 OA
ENDBRANCH  23  33
ENDBRANCH  19  30
ENDBRANCH  18  21
ENDBRANCH   1  18
TORSDOF 8
ENDMDL
MODEL 3
REMARK VINA RESULT:    -7.775      2.130      2.945
REMARK INTER + INTRA:         -12.721
REMARK INTER:                 -11.525
REMARK INTRA:                  -1.196
REMARK UNBOUND:                -1.309
REMARK  Name = 
REMARK  10 active torsions:
REMARK  status: ('A' for Active; 'I' for Inactive)
REMARK    1  A    between atoms: C_1  and  O_2
REMARK    2  A    between atoms: O_2  and  C_3
REMARK    3  A    between atoms: C_10  and  C_11
REMARK    4  A    between atoms: N_13  and  C_14
REMARK    5  A    between atoms: C_14  and  C_15
REMARK    6  A    between atoms: C_18  and  N_19
REMARK    7  A    between atoms: N_19  and  C_20
REMARK    8  A    between atoms: C_20  and  C_21
REMARK    9  A    between atoms: C_21  and  C_22
REMARK   10  A    between atoms: C_26  and  C_27
REMARK                            x       y       z     vdW  Elec       q    Type
REMARK                         _______ _______ _______ _____ _____    ______ ____
ROOT
ATOM      1  C   UNL     1      46.688   7.003  13.044  0.00  0.00    +0.000 A 
ATOM      2  C   UNL     1      45.912   7.785  12.180  0.00  0.00    +0.000 A 
ATOM      3  C   UNL     1      44.892   7.206  11.417  0.00  0.00    +0.000 A 
ATOM      4  C   UNL     1      44.626   5.836  11.492  0.00  0.00    +0.000 A 
ATOM      5  C   UNL     1      45.293   5.094  12.474  0.00  0.00    +0.000 A 
ATOM      6  C   UNL     1      46.326   5.664  13.229  0.00  0.00    +0.000 A 
ENDROOT
BRANCH   4   7
ATOM      7  N   UNL     1      43.702   5.175  10.671  0.00  0.00    +0.000 N 
ATOM      8  H   UNL     1      43.286   5.833  10.013  0.00  0.00    +0.000 HD
BRANCH   7   9
ATOM      9  C   UNL     1      44.124   3.931  10.007  0.00  0.00    +0.000 C 
BRANCH   9  10
ATOM     10  C   UNL     1      44.511   4.171   8.536  0.00  0.00    +0.000 C 
BRANCH  10  11
ATOM     11  C   UNL     1      45.445   3.105   8.018  0.00  0.00    +0.000 A 
ATOM     12  C   UNL     1      45.531   1.861   8.653  0.00  0.00    +0.000 A 
ATOM     13  C   UNL     1      46.362   0.866   8.141  0.00  0.00    +0.000 A 
ATOM     14  C   UNL     1      47.103   1.098   6.981  0.00  0.00    +0.000 A 
ATOM     15  C   UNL     1      47.028   2.332   6.329  0.00  0.00    +0.000 A 
ATOM     16  C   UNL     1      47.793   2.583   5.064  0.00  0.00    +0.000 C 
ATOM     17  C   UNL     1      46.210   3.337   6.864  0.00  0.00    +0.000 A 
ENDBRANCH  10  11
ENDBRANCH   9  10
ENDBRANCH   7   9
ENDBRANCH   4   7
BRANCH   1  18
ATOM     18  C   UNL     1      47.897   7.593  13.727  0.00  0.00    +0.000 C 
BRANCH  18  21
ATOM     19  C   UNL     1      48.932   6.771  15.804  0.00  0.00    +0.000 C 
ATOM     20  O   UNL     1      49.943   6.411  15.206  0.00  0.00    +0.000 OA
ATOM     21  N   UNL     1      47.889   7.364  15.148  0.00  0.00    +0.000 N 
ATOM     22  H   UNL     1      47.071   7.665  15.658  0.00  0.00    +0.000 HD
BRANCH  19  30
ATOM     23  C   UNL     1      47.822   8.769  18.369  0.00  0.00    +0.000 A 
ATOM     24  N   UNL     1      47.373   9.307  19.518  0.00  0.00    +0.000 NA
ATOM     25  C   UNL     1      47.417   8.551  20.621  0.00  0.00    +0.000 A 
ATOM     26  N   UNL     1      47.873   7.305  20.721  0.00  0.00    +0.000 NA
ATOM     27  C   UNL     1      48.296   6.803  19.544  0.00  0.00    +0.000 A 
ATOM     28  S   UNL     1      48.917   5.225  19.480  0.00  0.00    +0.000 S 
ATOM     29  C   UNL     1      49.175   5.344  17.803  0.00  0.00    +0.000 A 
ATOM     30  C   UNL     1      48.790   6.563  17.259  0.00  0.00    +0.000 A 
ATOM     31  C   UNL     1      48.290   7.445  18.313  0.00  0.00    +0.000 A 
BRANCH  23  33
ATOM     32  C   UNL     1      48.682  10.648  17.274  0.00  0.00    +0.000 C 
ATOM     33  O   UNL     1      47.783   9.546  17.232  0.00  0.00    +0.000 OA
ENDBRANCH  23  33
ENDBRANCH  19  30
ENDBRANCH  18  21
ENDBRANCH   1  18
TORSDOF 8
ENDMDL
MODEL 4
REMARK VINA RESULT:    -7.747      1.942      2.296
REMARK INTER + INTRA:         -12.680
REMARK INTER:                 -11.510
REMARK INTRA:                  -1.170
REMARK UNBOUND:                -1.309
REMARK  Name = 
REMARK  10 active torsions:
REMARK  status: ('A' for Active; 'I' for Inactive)
REMARK    1  A    between atoms: C_1  and  O_2
REMARK    2  A    between atoms: O_2  and  C_3
REMARK    3  A    between atoms: C_10  and  C_11
REMARK    4  A    between atoms: N_13  and  C_14
REMARK    5  A    between atoms: C_14  and  C_15
REMARK    6  A    between atoms: C_18  and  N_19
REMARK    7  A    between atoms: N_19  and  C_20
REMARK    8  A    between atoms: C_20  and  C_21
REMARK    9  A    between atoms: C_21  and  C_22
REMARK   10  A    between atoms: C_26  and  C_27
REMARK                            x       y       z     vdW  Elec       q    Type
REMARK                         _______ _______ _______ _____ _____    ______ ____
ROOT
ATOM      1  C   UNL     1      47.639   6.564  14.047  0.00  0.00    +0.000 A 
ATOM      2  C   UNL     1      47.101   5.283  14.217  0.00  0.00    +0.000 A 
ATOM      3  C   UNL     1      46.167   4.775  13.307  0.00  0.00    +0.000 A 
ATOM      4  C   UNL     1      45.744   5.532  12.211  0.00  0.00    +0.000 A 
ATOM      5  C   UNL     1      46.406   6.739  11.957  0.00  0.00    +0.000 A 
ATOM      6  C   UNL     1      47.329   7.260  12.873  0.00  0.00    +0.000 A 
ENDROOT
BRANCH   4   7
ATOM      7  N   UNL     1      44.728   5.131  11.331  0.00  0.00    +0.000 N 
ATOM      8  H   UNL     1      44.489   5.897  10.702  0.00  0.00    +0.000 HD
BRANCH   7   9
ATOM      9  C   UNL     1      44.892   3.860  10.610  0.00  0.00    +0.000 C 
BRANCH   9  10
ATOM     10  C   UNL     1      44.731   4.042   9.089  0.00  0.00    +0.000 C 
BRANCH  10  11
ATOM     11  C   UNL     1      45.557   3.044   8.312  0.00  0.00    +0.000 A 
ATOM     12  C   UNL     1      45.664   1.718   8.743  0.00  0.00    +0.000 A 
ATOM     13  C   UNL     1      46.391   0.792   7.995  0.00  0.00    +0.000 A 
ATOM     14  C   UNL     1      47.003   1.179   6.802  0.00  0.00    +0.000 A 
ATOM     15  C   UNL     1      46.904   2.499   6.352  0.00  0.00    +0.000 A 
ATOM     16  C   UNL     1      47.528   2.920   5.055  0.00  0.00    +0.000 C 
ATOM     17  C   UNL     1      46.194   3.430   7.122  0.00  0.00    +0.000 A 
ENDBRANCH  10  11
ENDBRANCH   9  10
ENDBRANCH   7   9
ENDBRANCH   4   7
BRANCH   1  18
ATOM     18  C   UNL     1      48.504   7.176  15.120  0.00  0.00    +0.000 C 
BRANCH  18  21
ATOM     19  C   UNL     1      49.859   6.291  16.976  0.00  0.00    +0.000 C 
ATOM     20  O   UNL     1      49.446   7.158  17.744  0.00  0.00    +0.000 OA
ATOM     21  N   UNL     1      49.437   6.231  15.676  0.00  0.00    +0.000 N 
ATOM     22  H   UNL     1      49.777   5.505  15.063  0.00  0.00    +0.000 HD
BRANCH  19  30
ATOM     23  C   UNL     1      49.881   2.856  16.951  0.00  0.00    +0.000 A 
ATOM     24  N   UNL     1      50.169   1.542  16.987  0.00  0.00    +0.000 NA
ATOM     25  C   UNL     1      51.364   1.176  17.465  0.00  0.00    +0.000 A 
ATOM     26  N   UNL     1      52.318   1.977  17.932  0.00  0.00    +0.000 NA
ATOM     27  C   UNL     1      51.993   3.283  17.861  0.00  0.00    +0.000 A 
ATOM     28  S   UNL     1      53.090   4.452  18.417  0.00  0.00    +0.000 S 
ATOM     29  C   UNL     1      52.031   5.714  17.994  0.00  0.00    +0.000 A 
ATOM     30  C   UNL     1      50.842   5.283  17.419  0.00  0.00    +0.000 A 
ATOM     31  C   UNL     1      50.813   3.822  17.368  0.00  0.00    +0.000 A 
BRANCH  23  33
ATOM     32  C   UNL     1      47.587   3.003  17.380  0.00  0.00    +0.000 C 
ATOM     33  O   UNL     1      48.650   3.236  16.463  0.00  0.00    +0.000 OA
ENDBRANCH  23  33
ENDBRANCH  19  30
ENDBRANCH  18  21
ENDBRANCH   1  18
TORSDOF 8
ENDMDL
MODEL 5
REMARK VINA RESULT:    -7.571      1.881      3.513
REMARK INTER + INTRA:         -12.421
REMARK INTER:                 -11.007
REMARK INTRA:                  -1.414
REMARK UNBOUND:                -1.309
REMARK  Name = 
REMARK  10 active torsions:
REMARK  status: ('A' for Active; 'I' for Inactive)
REMARK    1  A    between atoms: C_1  and  O_2
REMARK    2  A    between atoms: O_2  and  C_3
REMARK    3  A    between atoms: C_10  and  C_11
REMARK    4  A    between atoms: N_13  and  C_14
REMARK    5  A    between atoms: C_14  and  C_15
REMARK    6  A    between atoms: C_18  and  N_19
REMARK    7  A    between atoms: N_19  and  C_20
REMARK    8  A    between atoms: C_20  and  C_21
REMARK    9  A    between atoms: C_21  and  C_22
REMARK   10  A    between atoms: C_26  and  C_27
REMARK                            x       y       z     vdW  Elec       q    Type
REMARK                         _______ _______ _______ _____ _____    ______ ____
ROOT
ATOM      1  C   UNL     1      46.777   4.311  14.091  0.00  0.00    +0.000 A 
ATOM      2  C   UNL     1      46.268   3.269  13.307  0.00  0.00    +0.000 A 
ATOM      3  C   UNL     1      45.542   3.542  12.142  0.00  0.00    +0.000 A 
ATOM      4  C   UNL     1      45.302   4.857  11.734  0.00  0.00    +0.000 A 
ATOM      5  C   UNL     1      45.951   5.884  12.429  0.00  0.00    +0.000 A 
ATOM      6  C   UNL     1      46.664   5.619  13.605  0.00  0.00    +0.000 A 
ENDROOT
BRANCH   4   7
ATOM      7  N   UNL     1      44.486   5.200  10.647  0.00  0.00    +0.000 N 
ATOM      8  H   UNL     1      44.916   5.953  10.111  0.00  0.00    +0.000 HD
BRANCH   7   9
ATOM      9  C   UNL     1      43.992   4.121   9.778  0.00  0.00    +0.000 C 
BRANCH   9  10
ATOM     10  C   UNL     1      44.487   4.283   8.328  0.00  0.00    +0.000 C 
BRANCH  10  11
ATOM     11  C   UNL     1      45.422   3.168   7.925  0.00  0.00    +0.000 A 
ATOM     12  C   UNL     1      45.445   1.964   8.637  0.00  0.00    +0.000 A 
ATOM     13  C   UNL     1      46.278   0.923   8.229  0.00  0.00    +0.000 A 
ATOM     14  C   UNL     1      47.083   1.068   7.098  0.00  0.00    +0.000 A 
ATOM     15  C   UNL     1      47.070   2.262   6.371  0.00  0.00    +0.000 A 
ATOM     16  C   UNL     1      47.905   2.420   5.135  0.00  0.00    +0.000 C 
ATOM     17  C   UNL     1      46.250   3.315   6.801  0.00  0.00    +0.000 A 
ENDBRANCH  10  11
ENDBRANCH   9  10
ENDBRANCH   7   9
ENDBRANCH   4   7
BRANCH   1  18
ATOM     18  C   UNL     1      47.400   4.020  15.433  0.00  0.00    +0.000 C 
BRANCH  18  21
ATOM     19  C   UNL     1      48.779   5.431  16.907  0.00  0.00    +0.000 C 
ATOM     20  O   UNL     1      49.692   4.607  16.907  0.00  0.00    +0.000 OA
ATOM     21  N   UNL     1      47.627   5.216  16.202  0.00  0.00    +0.000 N 
ATOM     22  H   UNL     1      46.892   5.909  16.202  0.00  0.00    +0.000 HD
BRANCH  19  30
ATOM     23  C   UNL     1      48.722   8.751  16.028  0.00  0.00    +0.000 A 
ATOM     24  N   UNL     1      48.655  10.094  15.961  0.00  0.00    +0.000 NA
ATOM     25  C   UNL     1      48.726  10.781  17.107  0.00  0.00    +0.000 A 
ATOM     26  N   UNL     1      48.871  10.283  18.332  0.00  0.00    +0.000 NA
ATOM     27  C   UNL     1      48.918   8.936  18.351  0.00  0.00    +0.000 A 
ATOM     28  S   UNL     1      49.105   8.124  19.829  0.00  0.00    +0.000 S 
ATOM     29  C   UNL     1      49.050   6.609  19.058  0.00  0.00    +0.000 A 
ATOM     30  C   UNL     1      48.878   6.684  17.681  0.00  0.00    +0.000 A 
ATOM     31  C   UNL     1      48.828   8.083  17.259  0.00  0.00    +0.000 A 
BRANCH  23  33
ATOM     32  C   UNL     1      49.929   7.782  14.275  0.00  0.00    +0.000 C 
ATOM     33  O   UNL     1      48.654   8.040  14.849  0.00  0.00    +0.000 OA
ENDBRANCH  23  33
ENDBRANCH  19  30
ENDBRANCH  18  21
ENDBRANCH   1  18
TORSDOF 8
ENDMDL
MODEL 6
REMARK VINA RESULT:    -7.400      2.146      2.926
REMARK INTER + INTRA:         -12.170
REMARK INTER:                 -10.994
REMARK INTRA:                  -1.177
REMARK UNBOUND:                -1.309
REMARK  Name = 
REMARK  10 active torsions:
REMARK  status: ('A' for Active; 'I' for Inactive)
REMARK    1  A    between atoms: C_1  and  O_2
REMARK    2  A    between atoms: O_2  and  C_3
REMARK    3  A    between atoms: C_10  and  C_11
REMARK    4  A    between atoms: N_13  and  C_14
REMARK    5  A    between atoms: C_14  and  C_15
REMARK    6  A    between atoms: C_18  and  N_19
REMARK    7  A    between atoms: N_19  and  C_20
REMARK    8  A    between atoms: C_20  and  C_21
REMARK    9  A    between atoms: C_21  and  C_22
REMARK   10  A    between atoms: C_26  and  C_27
REMARK                            x       y       z     vdW  Elec       q    Type
REMARK                         _______ _______ _______ _____ _____    ______ ____
ROOT
ATOM      1  C   UNL     1      48.158   6.981  12.891  0.00  0.00    +0.000 A 
ATOM      2  C   UNL     1      47.810   5.955  13.777  0.00  0.00    +0.000 A 
ATOM      3  C   UNL     1      46.702   5.139  13.523  0.00  0.00    +0.000 A 
ATOM      4  C   UNL     1      45.913   5.329  12.385  0.00  0.00    +0.000 A 
ATOM      5  C   UNL     1      46.361   6.245  11.426  0.00  0.00    +0.000 A 
ATOM      6  C   UNL     1      47.459   7.076  11.682  0.00  0.00    +0.000 A 
ENDROOT
BRANCH   4   7
ATOM      7  N   UNL     1      44.726   4.627  12.133  0.00  0.00    +0.000 N 
ATOM      8  H   UNL     1      44.063   4.777  12.893  0.00  0.00    +0.000 HD
BRANCH   7   9
ATOM      9  C   UNL     1      44.091   4.783  10.815  0.00  0.00    +0.000 C 
BRANCH   9  10
ATOM     10  C   UNL     1      43.868   3.424  10.124  0.00  0.00    +0.000 C 
BRANCH  10  11
ATOM     11  C   UNL     1      44.911   3.152   9.066  0.00  0.00    +0.000 A 
ATOM     12  C   UNL     1      45.521   4.207   8.379  0.00  0.00    +0.000 A 
ATOM     13  C   UNL     1      46.516   3.949   7.437  0.00  0.00    +0.000 A 
ATOM     14  C   UNL     1      46.922   2.638   7.185  0.00  0.00    +0.000 A 
ATOM     15  C   UNL     1      46.327   1.571   7.864  0.00  0.00    +0.000 A 
ATOM     16  C   UNL     1      46.777   0.160   7.627  0.00  0.00    +0.000 C 
ATOM     17  C   UNL     1      45.309   1.835   8.791  0.00  0.00    +0.000 A 
ENDBRANCH  10  11
ENDBRANCH   9  10
ENDBRANCH   7   9
ENDBRANCH   4   7
BRANCH   1  18
ATOM     18  C   UNL     1      49.239   7.969  13.255  0.00  0.00    +0.000 C 
BRANCH  18  21
ATOM     19  C   UNL     1      50.394   7.515  15.382  0.00  0.00    +0.000 C 
ATOM     20  O   UNL     1      49.569   8.170  16.016  0.00  0.00    +0.000 OA
ATOM     21  N   UNL     1      50.294   7.365  14.026  0.00  0.00    +0.000 N 
ATOM     22  H   UNL     1      50.974   6.814  13.523  0.00  0.00    +0.000 HD
BRANCH  19  30
ATOM     23  C   UNL     1      50.679   4.804  17.473  0.00  0.00    +0.000 A 
ATOM     24  N   UNL     1      51.067   3.761  18.228  0.00  0.00    +0.000 NA
ATOM     25  C   UNL     1      52.375   3.617  18.472  0.00  0.00    +0.000 A 
ATOM     26  N   UNL     1      53.358   4.411  18.056  0.00  0.00    +0.000 NA
ATOM     27  C   UNL     1      52.924   5.432  17.291  0.00  0.00    +0.000 A 
ATOM     28  S   UNL     1      54.041   6.551  16.674  0.00  0.00    +0.000 S 
ATOM     29  C   UNL     1      52.809   7.414  15.881  0.00  0.00    +0.000 A 
ATOM     30  C   UNL     1      51.540   6.873  16.054  0.00  0.00    +0.000 A 
ATOM     31  C   UNL     1      51.613   5.700  16.925  0.00  0.00    +0.000 A 
BRANCH  23  33
ATOM     32  C   UNL     1      48.517   4.059  17.967  0.00  0.00    +0.000 C 
ATOM     33  O   UNL     1      49.332   4.958  17.223  0.00  0.00    +0.000 OA
ENDBRANCH  23  33
ENDBRANCH  19  30
ENDBRANCH  18  21
ENDBRANCH   1  18
TORSDOF 8
ENDMDL
MODEL 7
REMARK VINA RESULT:    -7.267      2.393      3.296
REMARK INTER + INTRA:         -11.975
REMARK INTER:                 -10.638
REMARK INTRA:                  -1.337
REMARK UNBOUND:                -1.309
REMARK  Name = 
REMARK  10 active torsions:
REMARK  status: ('A' for Active; 'I' for Inactive)
REMARK    1  A    between atoms: C_1  and  O_2
REMARK    2  A    between atoms: O_2  and  C_3
REMARK    3  A    between atoms: C_10  and  C_11
REMARK    4  A    between atoms: N_13  and  C_14
REMARK    5  A    between atoms: C_14  and  C_15
REMARK    6  A    between atoms: C_18  and  N_19
REMARK    7  A    between atoms: N_19  and  C_20
REMARK    8  A    between atoms: C_20  and  C_21
REMARK    9  A    between atoms: C_21  and  C_22
REMARK   10  A    between atoms: C_26  and  C_27
REMARK                            x       y       z     vdW  Elec       q    Type
REMARK                         _______ _______ _______ _____ _____    ______ ____
ROOT
ATOM      1  C   UNL     1      46.731   5.136  13.636  0.00  0.00    +0.000 A 
ATOM      2  C   UNL     1      46.048   6.281  13.207  0.00  0.00    +0.000 A 
ATOM      3  C   UNL     1      44.998   6.182  12.288  0.00  0.00    +0.000 A 
ATOM      4  C   UNL     1      44.608   4.944  11.769  0.00  0.00    +0.000 A 
ATOM      5  C   UNL     1      45.183   3.794  12.323  0.00  0.00    +0.000 A 
ATOM      6  C   UNL     1      46.245   3.887  13.232  0.00  0.00    +0.000 A 
ENDROOT
BRANCH   4   7
ATOM      7  N   UNL     1      43.648   4.789  10.760  0.00  0.00    +0.000 N 
ATOM      8  H   UNL     1      43.415   5.695  10.356  0.00  0.00    +0.000 HD
BRANCH   7   9
ATOM      9  C   UNL     1      43.885   3.772   9.723  0.00  0.00    +0.000 C 
BRANCH   9  10
ATOM     10  C   UNL     1      44.874   4.268   8.652  0.00  0.00    +0.000 C 
BRANCH  10  11
ATOM     11  C   UNL     1      45.683   3.136   8.064  0.00  0.00    +0.000 A 
ATOM     12  C   UNL     1      45.658   1.865   8.647  0.00  0.00    +0.000 A 
ATOM     13  C   UNL     1      46.371   0.814   8.071  0.00  0.00    +0.000 A 
ATOM     14  C   UNL     1      47.101   1.019   6.900  0.00  0.00    +0.000 A 
ATOM     15  C   UNL     1      47.135   2.281   6.300  0.00  0.00    +0.000 A 
ATOM     16  C   UNL     1      47.889   2.508   5.023  0.00  0.00    +0.000 C 
ATOM     17  C   UNL     1      46.438   3.340   6.899  0.00  0.00    +0.000 A 
ENDBRANCH  10  11
ENDBRANCH   9  10
ENDBRANCH   7   9
ENDBRANCH   4   7
BRANCH   1  18
ATOM     18  C   UNL     1      47.972   5.261  14.484  0.00  0.00    +0.000 C 
BRANCH  18  21
ATOM     19  C   UNL     1      48.824   7.308  15.556  0.00  0.00    +0.000 C 
ATOM     20  O   UNL     1      49.814   7.325  14.826  0.00  0.00    +0.000 OA
ATOM     21  N   UNL     1      47.874   6.331  15.443  0.00  0.00    +0.000 N 
ATOM     22  H   UNL     1      47.061   6.339  16.042  0.00  0.00    +0.000 HD
BRANCH  19  30
ATOM     23  C   UNL     1      48.023   7.145  18.892  0.00  0.00    +0.000 A 
ATOM     24  N   UNL     1      47.799   7.352  20.203  0.00  0.00    +0.000 NA
ATOM     25  C   UNL     1      47.816   8.613  20.649  0.00  0.00    +0.000 A 
ATOM     26  N   UNL     1      48.021   9.714  19.931  0.00  0.00    +0.000 NA
ATOM     27  C   UNL     1      48.257   9.458  18.629  0.00  0.00    +0.000 A 
ATOM     28  S   UNL     1      48.537  10.744  17.558  0.00  0.00    +0.000 S 
ATOM     29  C   UNL     1      48.748   9.674  16.253  0.00  0.00    +0.000 A 
ATOM     30  C   UNL     1      48.625   8.333  16.599  0.00  0.00    +0.000 A 
ATOM     31  C   UNL     1      48.302   8.211  18.020  0.00  0.00    +0.000 A 
BRANCH  23  33
ATOM     32  C   UNL     1      48.422   4.897  19.399  0.00  0.00    +0.000 C 
ATOM     33  O   UNL     1      48.001   5.848  18.428  0.00  0.00    +0.000 OA
ENDBRANCH  23  33
ENDBRANCH  19  30
ENDBRANCH  18  21
ENDBRANCH   1  18
TORSDOF 8
ENDMDL
MODEL 8
REMARK VINA RESULT:    -7.168      3.475      7.859
REMARK INTER + INTRA:         -11.830
REMARK INTER:                  -9.997
REMARK INTRA:                  -1.833
REMARK UNBOUND:                -1.309
REMARK  Name = 
REMARK  10 active torsions:
REMARK  status: ('A' for Active; 'I' for Inactive)
REMARK    1  A    between atoms: C_1  and  O_2
REMARK    2  A    between atoms: O_2  and  C_3
REMARK    3  A    between atoms: C_10  and  C_11
REMARK    4  A    between atoms: N_13  and  C_14
REMARK    5  A    between atoms: C_14  and  C_15
REMARK    6  A    between atoms: C_18  and  N_19
REMARK    7  A    between atoms: N_19  and  C_20
REMARK    8  A    between atoms: C_20  and  C_21
REMARK    9  A    between atoms: C_21  and  C_22
REMARK   10  A    between atoms: C_26  and  C_27
REMARK                            x       y       z     vdW  Elec       q    Type
REMARK                         _______ _______ _______ _____ _____    ______ ____
ROOT
ATOM      1  C   UNL     1      48.477   7.943  13.415  0.00  0.00    +0.000 A 
ATOM      2  C   UNL     1      49.322   7.008  14.024  0.00  0.00    +0.000 A 
ATOM      3  C   UNL     1      49.566   7.059  15.401  0.00  0.00    +0.000 A 
ATOM      4  C   UNL     1      48.980   8.044  16.201  0.00  0.00    +0.000 A 
ATOM      5  C   UNL     1      48.013   8.869  15.616  0.00  0.00    +0.000 A 
ATOM      6  C   UNL     1      47.776   8.834  14.236  0.00  0.00    +0.000 A 
ENDROOT
BRANCH   4   7
ATOM      7  N   UNL     1      49.275   8.223  17.560  0.00  0.00    +0.000 N 
ATOM      8  H   UNL     1      48.426   8.454  18.074  0.00  0.00    +0.000 HD
BRANCH   7   9
ATOM      9  C   UNL     1      50.065   7.188  18.244  0.00  0.00    +0.000 C 
BRANCH   9  10
ATOM     10  C   UNL     1      49.180   6.275  19.114  0.00  0.00    +0.000 C 
BRANCH  10  11
ATOM     11  C   UNL     1      48.843   4.982  18.411  0.00  0.00    +0.000 A 
ATOM     12  C   UNL     1      47.535   4.720  17.989  0.00  0.00    +0.000 A 
ATOM     13  C   UNL     1      47.242   3.543  17.300  0.00  0.00    +0.000 A 
ATOM     14  C   UNL     1      48.254   2.627  17.012  0.00  0.00    +0.000 A 
ATOM     15  C   UNL     1      49.568   2.872  17.422  0.00  0.00    +0.000 A 
ATOM     16  C   UNL     1      50.671   1.912  17.091  0.00  0.00    +0.000 C 
ATOM     17  C   UNL     1      49.851   4.044  18.138  0.00  0.00    +0.000 A 
ENDBRANCH  10  11
ENDBRANCH   9  10
ENDBRANCH   7   9
ENDBRANCH   4   7
BRANCH   1  18
ATOM     18  C   UNL     1      48.357   7.997  11.912  0.00  0.00    +0.000 C 
BRANCH  18  21
ATOM     19  C   UNL     1      46.274   6.899  11.191  0.00  0.00    +0.000 C 
ATOM     20  O   UNL     1      45.608   7.897  11.456  0.00  0.00    +0.000 OA
ATOM     21  N   UNL     1      47.628   6.874  11.381  0.00  0.00    +0.000 N 
ATOM     22  H   UNL     1      48.161   6.049  11.146  0.00  0.00    +0.000 HD
BRANCH  19  30
ATOM     23  C   UNL     1      44.563   4.317  12.678  0.00  0.00    +0.000 A 
ATOM     24  N   UNL     1      43.810   3.248  12.994  0.00  0.00    +0.000 NA
ATOM     25  C   UNL     1      43.416   2.444  12.000  0.00  0.00    +0.000 A 
ATOM     26  N   UNL     1      43.698   2.573  10.706  0.00  0.00    +0.000 NA
ATOM     27  C   UNL     1      44.440   3.665  10.435  0.00  0.00    +0.000 A 
ATOM     28  S   UNL     1      44.900   3.990   8.834  0.00  0.00    +0.000 S 
ATOM     29  C   UNL     1      45.710   5.410   9.305  0.00  0.00    +0.000 A 
ATOM     30  C   UNL     1      45.639   5.672  10.668  0.00  0.00    +0.000 A 
ATOM     31  C   UNL     1      44.901   4.607  11.344  0.00  0.00    +0.000 A 
BRANCH  23  33
ATOM     32  C   UNL     1      46.287   4.852  14.165  0.00  0.00    +0.000 C 
ATOM     33  O   UNL     1      44.975   5.145  13.699  0.00  0.00    +0.000 OA
ENDBRANCH  23  33
ENDBRANCH  19  30
ENDBRANCH  18  21
ENDBRANCH   1  18
TORSDOF 8
ENDMDL
MODEL 9
REMARK VINA RESULT:    -6.995      3.267      5.564
REMARK INTER + INTRA:         -11.576
REMARK INTER:                  -9.941
REMARK INTRA:                  -1.635
REMARK UNBOUND:                -1.309
REMARK  Name = 
REMARK  10 active torsions:
REMARK  status: ('A' for Active; 'I' for Inactive)
REMARK    1  A    between atoms: C_1  and  O_2
REMARK    2  A    between atoms: O_2  and  C_3
REMARK    3  A    between atoms: C_10  and  C_11
REMARK    4  A    between atoms: N_13  and  C_14
REMARK    5  A    between atoms: C_14  and  C_15
REMARK    6  A    between atoms: C_18  and  N_19
REMARK    7  A    between atoms: N_19  and  C_20
REMARK    8  A    between atoms: C_20  and  C_21
REMARK    9  A    between atoms: C_21  and  C_22
REMARK   10  A    between atoms: C_26  and  C_27
REMARK                            x       y       z     vdW  Elec       q    Type
REMARK                         _______ _______ _______ _____ _____    ______ ____
ROOT
ATOM      1  C   UNL     1      47.909   4.149  16.712  0.00  0.00    +0.000 A 
ATOM      2  C   UNL     1      48.475   5.428  16.648  0.00  0.00    +0.000 A 
ATOM      3  C   UNL     1      48.349   6.207  15.493  0.00  0.00    +0.000 A 
ATOM      4  C   UNL     1      47.663   5.728  14.373  0.00  0.00    +0.000 A 
ATOM      5  C   UNL     1      46.963   4.522  14.502  0.00  0.00    +0.000 A 
ATOM      6  C   UNL     1      47.099   3.731  15.650  0.00  0.00    +0.000 A 
ENDROOT
BRANCH   4   7
ATOM      7  N   UNL     1      47.602   6.405  13.147  0.00  0.00    +0.000 N 
ATOM      8  H   UNL     1      47.722   5.747  12.378  0.00  0.00    +0.000 HD
BRANCH   7   9
ATOM      9  C   UNL     1      46.475   7.321  12.912  0.00  0.00    +0.000 C 
BRANCH   9  10
ATOM     10  C   UNL     1      45.751   7.009  11.589  0.00  0.00    +0.000 C 
BRANCH  10  11
ATOM     11  C   UNL     1      44.956   5.727  11.670  0.00  0.00    +0.000 A 
ATOM     12  C   UNL     1      44.000   5.544  12.675  0.00  0.00    +0.000 A 
ATOM     13  C   UNL     1      43.239   4.376  12.715  0.00  0.00    +0.000 A 
ATOM     14  C   UNL     1      43.414   3.390  11.744  0.00  0.00    +0.000 A 
ATOM     15  C   UNL     1      44.361   3.556  10.730  0.00  0.00    +0.000 A 
ATOM     16  C   UNL     1      44.537   2.519   9.661  0.00  0.00    +0.000 C 
ATOM     17  C   UNL     1      45.142   4.720  10.710  0.00  0.00    +0.000 A 
ENDBRANCH  10  11
ENDBRANCH   9  10
ENDBRANCH   7   9
ENDBRANCH   4   7
BRANCH   1  18
ATOM     18  C   UNL     1      48.197   3.246  17.885  0.00  0.00    +0.000 C 
BRANCH  18  21
ATOM     19  C   UNL     1      50.336   2.212  17.239  0.00  0.00    +0.000 C 
ATOM     20  O   UNL     1      49.818   1.644  16.280  0.00  0.00    +0.000 OA
ATOM     21  N   UNL     1      49.607   3.019  18.068  0.00  0.00    +0.000 N 
ATOM     22  H   UNL     1      50.052   3.487  18.844  0.00  0.00    +0.000 HD
BRANCH  19  30
ATOM     23  C   UNL     1      52.915   4.414  17.788  0.00  0.00    +0.000 A 
ATOM     24  N   UNL     1      54.058   5.049  18.109  0.00  0.00    +0.000 NA
ATOM     25  C   UNL     1      55.126   4.300  18.408  0.00  0.00    +0.000 A 
ATOM     26  N   UNL     1      55.197   2.972  18.412  0.00  0.00    +0.000 NA
ATOM     27  C   UNL     1      54.027   2.380  18.100  0.00  0.00    +0.000 A 
ATOM     28  S   UNL     1      53.930   0.687  18.052  0.00  0.00    +0.000 S 
ATOM     29  C   UNL     1      52.280   0.746  17.646  0.00  0.00    +0.000 A 
ATOM     30  C   UNL     1      51.768   2.035  17.551  0.00  0.00    +0.000 A 
ATOM     31  C   UNL     1      52.829   3.011  17.796  0.00  0.00    +0.000 A 
BRANCH  23  33
ATOM     32  C   UNL     1      51.595   6.248  18.390  0.00  0.00    +0.000 C 
ATOM     33  O   UNL     1      51.814   5.181  17.475  0.00  0.00    +0.000 OA
ENDBRANCH  23  33
ENDBRANCH  19  30
ENDBRANCH  18  21
ENDBRANCH   1  18
TORSDOF 8
ENDMDL
