MODEL 1
REMARK VINA RESULT:    -8.643      0.000      0.000
REMARK INTER + INTRA:         -13.641
REMARK INTER:                 -12.180
REMARK INTRA:                  -1.461
REMARK UNBOUND:                -1.461
REMARK  Name = 
REMARK  8 active torsions:
REMARK  status: ('A' for Active; 'I' for Inactive)
REMARK    1  A    between atoms: C_1  and  C_2
REMARK    2  A    between atoms: C_2  and  N_3
REMARK    3  A    between atoms: C_2  and  C_25
REMARK    4  A    between atoms: N_3  and  C_4
REMARK    5  A    between atoms: C_4  and  C_5
REMARK    6  A    between atoms: C_8  and  C_9
REMARK    7  A    between atoms: C_9  and  N_10
REMARK    8  A    between atoms: C_11  and  C_13
REMARK                            x       y       z     vdW  Elec       q    Type
REMARK                         _______ _______ _______ _____ _____    ______ ____
ROOT
ATOM      1  C   UNL     1      44.632   5.742  10.980  0.00  0.00    +0.000 A 
ATOM      2  C   UNL     1      46.003   5.825  10.699  0.00  0.00    +0.000 A 
ATOM      3  C   UNL     1      46.847   6.613  11.491  0.00  0.00    +0.000 A 
ATOM      4  C   UNL     1      46.339   7.332  12.580  0.00  0.00    +0.000 A 
ATOM      5  C   UNL     1      44.961   7.296  12.824  0.00  0.00    +0.000 A 
ATOM      6  C   UNL     1      44.120   6.503  12.041  0.00  0.00    +0.000 A 
ENDROOT
BRANCH   1   7
ATOM      7  C   UNL     1      43.711   4.858  10.164  0.00  0.00    +0.000 C 
BRANCH   7   8
ATOM      8  N   UNL     1      44.336   4.447   8.908  0.00  0.00    +0.000 NA
ATOM      9  H   UNL     1      43.783   4.812   8.133  0.00  0.00    +0.000 HD
BRANCH   8  11
ATOM     10  C   UNL     1      44.513   2.255  10.094  0.00  0.00    +0.000 C 
ATOM     11  C   UNL     1      44.433   2.987   8.747  0.00  0.00    +0.000 C 
BRANCH  11  12
ATOM     12  C   UNL     1      45.648   2.649   7.887  0.00  0.00    +0.000 A 
ATOM     13  C   UNL     1      46.317   1.426   8.049  0.00  0.00    +0.000 A 
ATOM     14  C   UNL     1      47.417   1.104   7.249  0.00  0.00    +0.000 A 
ATOM     15  C   UNL     1      47.864   1.998   6.278  0.00  0.00    +0.000 A 
ATOM     16  C   UNL     1      47.213   3.217   6.108  0.00  0.00    +0.000 A 
ATOM     17  C   UNL     1      46.113   3.540   6.904  0.00  0.00    +0.000 A 
ENDBRANCH  11  12
ENDBRANCH   8  11
ENDBRANCH   7   8
ENDBRANCH   1   7
BRANCH   4  18
ATOM     18  C   UNL     1      47.241   8.161  13.456  0.00  0.00    +0.000 C 
BRANCH  18  19
ATOM     19  N   UNL     1      47.619   7.430  14.638  0.00  0.00    +0.000 N 
ATOM     20  C   UNL     1      48.864   6.874  14.774  0.00  0.00    +0.000 C 
ATOM     21  O   UNL     1      49.738   7.012  13.923  0.00  0.00    +0.000 OA
ATOM     22  H   UNL     1      46.860   7.101  15.224  0.00  0.00    +0.000 HD
BRANCH  20  23
ATOM     23  C   UNL     1      49.118   6.162  16.032  0.00  0.00    +0.000 A 
ATOM     24  C   UNL     1      50.149   6.577  16.865  0.00  0.00    +0.000 A 
ATOM     25  S   UNL     1      50.245   5.696  18.323  0.00  0.00    +0.000 S 
ATOM     26  C   UNL     1      48.947   4.690  17.868  0.00  0.00    +0.000 A 
ATOM     27  N   UNL     1      48.513   3.698  18.687  0.00  0.00    +0.000 NA
ATOM     28  C   UNL     1      47.541   2.997  18.201  0.00  0.00    +0.000 A 
ATOM     29  N   UNL     1      46.970   3.197  16.971  0.00  0.00    +0.000 N 
ATOM     30  C   UNL     1      47.364   4.201  16.122  0.00  0.00    +0.000 A 
ATOM     31  O   UNL     1      46.815   4.366  15.037  0.00  0.00    +0.000 OA
ATOM     32  C   UNL     1      48.447   5.026  16.621  0.00  0.00    +0.000 A 
ATOM     33  H   UNL     1      46.214   2.611  16.650  0.00  0.00    +0.000 HD
ENDBRANCH  20  23
ENDBRANCH  18  19
ENDBRANCH   4  18
TORSDOF 7
ENDMDL
MODEL 2
REMARK VINA RESULT:    -8.123      1.866      2.375
REMARK INTER + INTRA:         -12.908
REMARK INTER:                 -11.888
REMARK INTRA:                  -1.020
REMARK UNBOUND:                -1.461
REMARK  Name = 
REMARK  8 active torsions:
REMARK  status: ('A' for Active; 'I' for Inactive)
REMARK    1  A    between atoms: C_1  and  C_2
REMARK    2  A    between atoms: C_2  and  N_3
REMARK    3  A    between atoms: C_2  and  C_25
REMARK    4  A    between atoms: N_3  and  C_4
REMARK    5  A    between atoms: C_4  and  C_5
REMARK    6  A    between atoms: C_8  and  C_9
REMARK    7  A    between atoms: C_9  and  N_10
REMARK    8  A    between atoms: C_11  and  C_13
REMARK                            x       y       z     vdW  Elec       q    Type
REMARK                         _______ _______ _______ _____ _____    ______ ____
ROOT
ATOM      1  C   UNL     1      45.250   5.554  11.626  0.00  0.00    +0.000 A 
ATOM      2  C   UNL     1      45.540   4.954  12.860  0.00  0.00    +0.000 A 
ATOM      3  C   UNL     1      46.660   5.353  13.601  0.00  0.00    +0.000 A 
ATOM      4  C   UNL     1      47.509   6.360  13.126  0.00  0.00    +0.000 A 
ATOM      5  C   UNL     1      47.252   6.917  11.867  0.00  0.00    +0.000 A 
ATOM      6  C   UNL     1      46.131   6.527  11.132  0.00  0.00    +0.000 A 
ENDROOT
BRANCH   1   7
ATOM      7  C   UNL     1      44.019   5.170  10.832  0.00  0.00    +0.000 C 
BRANCH   7   8
ATOM      8  N   UNL     1      44.362   4.759   9.472  0.00  0.00    +0.000 NA
ATOM      9  H   UNL     1      43.754   5.251   8.818  0.00  0.00    +0.000 HD
BRANCH   8  11
ATOM     10  C   UNL     1      44.101   2.516  10.540  0.00  0.00    +0.000 C 
ATOM     11  C   UNL     1      44.209   3.315   9.234  0.00  0.00    +0.000 C 
BRANCH  11  12
ATOM     12  C   UNL     1      45.383   2.809   8.399  0.00  0.00    +0.000 A 
ATOM     13  C   UNL     1      46.125   3.696   7.604  0.00  0.00    +0.000 A 
ATOM     14  C   UNL     1      47.214   3.242   6.855  0.00  0.00    +0.000 A 
ATOM     15  C   UNL     1      47.576   1.896   6.888  0.00  0.00    +0.000 A 
ATOM     16  C   UNL     1      46.846   1.003   7.669  0.00  0.00    +0.000 A 
ATOM     17  C   UNL     1      45.760   1.455   8.419  0.00  0.00    +0.000 A 
ENDBRANCH  11  12
ENDBRANCH   8  11
ENDBRANCH   7   8
ENDBRANCH   1   7
BRANCH   4  18
ATOM     18  C   UNL     1      48.700   6.817  13.927  0.00  0.00    +0.000 C 
BRANCH  18  19
ATOM     19  N   UNL     1      48.354   6.969  15.316  0.00  0.00    +0.000 N 
ATOM     20  C   UNL     1      49.243   6.674  16.316  0.00  0.00    +0.000 C 
ATOM     21  O   UNL     1      50.394   6.316  16.083  0.00  0.00    +0.000 OA
ATOM     22  H   UNL     1      47.364   7.022  15.530  0.00  0.00    +0.000 HD
BRANCH  20  23
ATOM     23  C   UNL     1      48.762   6.880  17.688  0.00  0.00    +0.000 A 
ATOM     24  C   UNL     1      48.332   8.139  18.087  0.00  0.00    +0.000 A 
ATOM     25  S   UNL     1      47.723   8.178  19.680  0.00  0.00    +0.000 S 
ATOM     26  C   UNL     1      48.067   6.525  19.914  0.00  0.00    +0.000 A 
ATOM     27  N   UNL     1      47.787   5.915  21.094  0.00  0.00    +0.000 NA
ATOM     28  C   UNL     1      48.126   4.668  21.139  0.00  0.00    +0.000 A 
ATOM     29  N   UNL     1      48.724   3.982  20.114  0.00  0.00    +0.000 N 
ATOM     30  C   UNL     1      49.005   4.555  18.898  0.00  0.00    +0.000 A 
ATOM     31  O   UNL     1      49.519   3.905  17.994  0.00  0.00    +0.000 OA
ATOM     32  C   UNL     1      48.635   5.953  18.788  0.00  0.00    +0.000 A 
ATOM     33  H   UNL     1      48.967   3.007  20.214  0.00  0.00    +0.000 HD
ENDBRANCH  20  23
ENDBRANCH  18  19
ENDBRANCH   4  18
TORSDOF 7
ENDMDL
MODEL 3
REMARK VINA RESULT:    -7.456      2.543      3.132
REMARK INTER + INTRA:         -11.968
REMARK INTER:                 -11.042
REMARK INTRA:                  -0.926
REMARK UNBOUND:                -1.461
REMARK  Name = 
REMARK  8 active torsions:
REMARK  status: ('A' for Active; 'I' for Inactive)
REMARK    1  A    between atoms: C_1  and  C_2
REMARK    2  A    between atoms: C_2  and  N_3
REMARK    3  A    between atoms: C_2  and  C_25
REMARK    4  A    between atoms: N_3  and  C_4
REMARK    5  A    between atoms: C_4  and  C_5
REMARK    6  A    between atoms: C_8  and  C_9
REMARK    7  A    between atoms: C_9  and  N_10
REMARK    8  A    between atoms: C_11  and  C_13
REMARK                            x       y       z     vdW  Elec       q    Type
REMARK                         _______ _______ _______ _____ _____    ______ ____
ROOT
ATOM      1  C   UNL     1      46.286   5.239  13.233  0.00  0.00    +0.000 A 
ATOM      2  C   UNL     1      46.711   6.519  12.848  0.00  0.00    +0.000 A 
ATOM      3  C   UNL     1      47.692   7.196  13.583  0.00  0.00    +0.000 A 
ATOM      4  C   UNL     1      48.271   6.607  14.714  0.00  0.00    +0.000 A 
ATOM      5  C   UNL     1      47.804   5.355  15.133  0.00  0.00    +0.000 A 
ATOM      6  C   UNL     1      46.832   4.676  14.395  0.00  0.00    +0.000 A 
ENDROOT
BRANCH   1   7
ATOM      7  C   UNL     1      45.260   4.473  12.425  0.00  0.00    +0.000 C 
BRANCH   7   8
ATOM      8  N   UNL     1      45.079   5.054  11.096  0.00  0.00    +0.000 NA
ATOM      9  H   UNL     1      44.627   5.963  11.196  0.00  0.00    +0.000 HD
BRANCH   8  11
ATOM     10  C   UNL     1      43.418   3.192  10.963  0.00  0.00    +0.000 C 
ATOM     11  C   UNL     1      44.250   4.232  10.200  0.00  0.00    +0.000 C 
BRANCH  11  12
ATOM     12  C   UNL     1      45.143   3.544   9.170  0.00  0.00    +0.000 A 
ATOM     13  C   UNL     1      45.283   2.148   9.169  0.00  0.00    +0.000 A 
ATOM     14  C   UNL     1      46.083   1.512   8.215  0.00  0.00    +0.000 A 
ATOM     15  C   UNL     1      46.753   2.261   7.250  0.00  0.00    +0.000 A 
ATOM     16  C   UNL     1      46.627   3.648   7.240  0.00  0.00    +0.000 A 
ATOM     17  C   UNL     1      45.828   4.285   8.191  0.00  0.00    +0.000 A 
ENDBRANCH  11  12
ENDBRANCH   8  11
ENDBRANCH   7   8
ENDBRANCH   1   7
BRANCH   4  18
ATOM     18  C   UNL     1      49.348   7.313  15.496  0.00  0.00    +0.000 C 
BRANCH  18  19
ATOM     19  N   UNL     1      50.343   6.379  15.955  0.00  0.00    +0.000 N 
ATOM     20  C   UNL     1      50.344   5.901  17.239  0.00  0.00    +0.000 C 
ATOM     21  O   UNL     1      49.473   6.202  18.049  0.00  0.00    +0.000 OA
ATOM     22  H   UNL     1      51.187   6.312  15.397  0.00  0.00    +0.000 HD
BRANCH  20  23
ATOM     23  C   UNL     1      51.412   4.950  17.571  0.00  0.00    +0.000 A 
ATOM     24  C   UNL     1      52.662   5.420  17.953  0.00  0.00    +0.000 A 
ATOM     25  S   UNL     1      53.752   4.183  18.390  0.00  0.00    +0.000 S 
ATOM     26  C   UNL     1      52.610   2.970  18.029  0.00  0.00    +0.000 A 
ATOM     27  N   UNL     1      52.915   1.656  18.184  0.00  0.00    +0.000 NA
ATOM     28  C   UNL     1      51.964   0.847  17.846  0.00  0.00    +0.000 A 
ATOM     29  N   UNL     1      50.741   1.236  17.362  0.00  0.00    +0.000 N 
ATOM     30  C   UNL     1      50.385   2.553  17.209  0.00  0.00    +0.000 A 
ATOM     31  O   UNL     1      49.273   2.866  16.796  0.00  0.00    +0.000 OA
ATOM     32  C   UNL     1      51.413   3.506  17.584  0.00  0.00    +0.000 A 
ATOM     33  H   UNL     1      50.042   0.553  17.114  0.00  0.00    +0.000 HD
ENDBRANCH  20  23
ENDBRANCH  18  19
ENDBRANCH   4  18
TORSDOF 7
ENDMDL
MODEL 4
REMARK VINA RESULT:    -7.330      1.688      2.732
REMARK INTER + INTRA:         -11.791
REMARK INTER:                 -10.770
REMARK INTRA:                  -1.021
REMARK UNBOUND:                -1.461
REMARK  Name = 
REMARK  8 active torsions:
REMARK  status: ('A' for Active; 'I' for Inactive)
REMARK    1  A    between atoms: C_1  and  C_2
REMARK    2  A    between atoms: C_2  and  N_3
REMARK    3  A    between atoms: C_2  and  C_25
REMARK    4  A    between atoms: N_3  and  C_4
REMARK    5  A    between atoms: C_4  and  C_5
REMARK    6  A    between atoms: C_8  and  C_9
REMARK    7  A    between atoms: C_9  and  N_10
REMARK    8  A    between atoms: C_11  and  C_13
REMARK                            x       y       z     vdW  Elec       q    Type
REMARK                         _______ _______ _______ _____ _____    ______ ____
ROOT
ATOM      1  C   UNL     1      44.719   5.497  11.155  0.00  0.00    +0.000 A 
ATOM      2  C   UNL     1      44.415   5.735  12.503  0.00  0.00    +0.000 A 
ATOM      3  C   UNL     1      45.328   6.395  13.334  0.00  0.00    +0.000 A 
ATOM      4  C   UNL     1      46.561   6.832  12.835  0.00  0.00    +0.000 A 
ATOM      5  C   UNL     1      46.889   6.542  11.505  0.00  0.00    +0.000 A 
ATOM      6  C   UNL     1      45.974   5.892  10.673  0.00  0.00    +0.000 A 
ENDROOT
BRANCH   1   7
ATOM      7  C   UNL     1      43.725   4.827  10.229  0.00  0.00    +0.000 C 
BRANCH   7   8
ATOM      8  N   UNL     1      44.337   4.470   8.950  0.00  0.00    +0.000 NA
ATOM      9  H   UNL     1      43.824   4.934   8.201  0.00  0.00    +0.000 HD
BRANCH   8  11
ATOM     10  C   UNL     1      44.270   2.186   9.959  0.00  0.00    +0.000 C 
ATOM     11  C   UNL     1      44.332   3.024   8.675  0.00  0.00    +0.000 C 
BRANCH  11  12
ATOM     12  C   UNL     1      45.570   2.656   7.862  0.00  0.00    +0.000 A 
ATOM     13  C   UNL     1      46.062   3.529   6.878  0.00  0.00    +0.000 A 
ATOM     14  C   UNL     1      47.208   3.207   6.146  0.00  0.00    +0.000 A 
ATOM     15  C   UNL     1      47.878   2.009   6.385  0.00  0.00    +0.000 A 
ATOM     16  C   UNL     1      47.401   1.130   7.354  0.00  0.00    +0.000 A 
ATOM     17  C   UNL     1      46.258   1.451   8.088  0.00  0.00    +0.000 A 
ENDBRANCH  11  12
ENDBRANCH   8  11
ENDBRANCH   7   8
ENDBRANCH   1   7
BRANCH   4  18
ATOM     18  C   UNL     1      47.540   7.569  13.712  0.00  0.00    +0.000 C 
BRANCH  18  19
ATOM     19  N   UNL     1      48.114   6.684  14.692  0.00  0.00    +0.000 N 
ATOM     20  C   UNL     1      48.829   7.160  15.760  0.00  0.00    +0.000 C 
ATOM     21  O   UNL     1      48.974   8.361  15.967  0.00  0.00    +0.000 OA
ATOM     22  H   UNL     1      48.218   5.714  14.416  0.00  0.00    +0.000 HD
BRANCH  20  23
ATOM     23  C   UNL     1      49.353   6.148  16.686  0.00  0.00    +0.000 A 
ATOM     24  C   UNL     1      48.475   5.381  17.439  0.00  0.00    +0.000 A 
ATOM     25  S   UNL     1      49.249   4.196  18.392  0.00  0.00    +0.000 S 
ATOM     26  C   UNL     1      50.791   4.706  17.876  0.00  0.00    +0.000 A 
ATOM     27  N   UNL     1      51.916   4.096  18.331  0.00  0.00    +0.000 NA
ATOM     28  C   UNL     1      53.015   4.605  17.877  0.00  0.00    +0.000 A 
ATOM     29  N   UNL     1      53.088   5.669  17.017  0.00  0.00    +0.000 N 
ATOM     30  C   UNL     1      51.976   6.301  16.518  0.00  0.00    +0.000 A 
ATOM     31  O   UNL     1      52.077   7.236  15.730  0.00  0.00    +0.000 OA
ATOM     32  C   UNL     1      50.712   5.764  16.986  0.00  0.00    +0.000 A 
ATOM     33  H   UNL     1      53.980   6.021  16.702  0.00  0.00    +0.000 HD
ENDBRANCH  20  23
ENDBRANCH  18  19
ENDBRANCH   4  18
TORSDOF 7
ENDMDL
MODEL 5
REMARK VINA RESULT:    -7.271      1.957      2.455
REMARK INTER + INTRA:         -11.707
REMARK INTER:                 -10.525
REMARK INTRA:                  -1.182
REMARK UNBOUND:                -1.461
REMARK  Name = 
REMARK  8 active torsions:
REMARK  status: ('A' for Active; 'I' for Inactive)
REMARK    1  A    between atoms: C_1  and  C_2
REMARK    2  A    between atoms: C_2  and  N_3
REMARK    3  A    between atoms: C_2  and  C_25
REMARK    4  A    between atoms: N_3  and  C_4
REMARK    5  A    between atoms: C_4  and  C_5
REMARK    6  A    between atoms: C_8  and  C_9
REMARK    7  A    between atoms: C_9  and  N_10
REMARK    8  A    between atoms: C_11  and  C_13
REMARK                            x       y       z     vdW  Elec       q    Type
REMARK                         _______ _______ _______ _____ _____    ______ ____
ROOT
ATOM      1  C   UNL     1      45.620   6.452  11.837  0.00  0.00    +0.000 A 
ATOM      2  C   UNL     1      45.706   7.822  12.126  0.00  0.00    +0.000 A 
ATOM      3  C   UNL     1      46.724   8.314  12.952  0.00  0.00    +0.000 A 
ATOM      4  C   UNL     1      47.677   7.449  13.502  0.00  0.00    +0.000 A 
ATOM      5  C   UNL     1      47.556   6.075  13.263  0.00  0.00    +0.000 A 
ATOM      6  C   UNL     1      46.547   5.585  12.431  0.00  0.00    +0.000 A 
ENDROOT
BRANCH   1   7
ATOM      7  C   UNL     1      44.554   5.907  10.909  0.00  0.00    +0.000 C 
BRANCH   7   8
ATOM      8  N   UNL     1      45.141   5.274   9.729  0.00  0.00    +0.000 NA
ATOM      9  H   UNL     1      45.059   5.913   8.940  0.00  0.00    +0.000 HD
BRANCH   8  11
ATOM     10  C   UNL     1      44.043   3.198  10.580  0.00  0.00    +0.000 C 
ATOM     11  C   UNL     1      44.494   4.006   9.356  0.00  0.00    +0.000 C 
BRANCH  11  12
ATOM     12  C   UNL     1      45.449   3.180   8.498  0.00  0.00    +0.000 A 
ATOM     13  C   UNL     1      46.225   3.794   7.503  0.00  0.00    +0.000 A 
ATOM     14  C   UNL     1      47.118   3.046   6.731  0.00  0.00    +0.000 A 
ATOM     15  C   UNL     1      47.247   1.674   6.940  0.00  0.00    +0.000 A 
ATOM     16  C   UNL     1      46.481   1.049   7.921  0.00  0.00    +0.000 A 
ATOM     17  C   UNL     1      45.591   1.795   8.695  0.00  0.00    +0.000 A 
ENDBRANCH  11  12
ENDBRANCH   8  11
ENDBRANCH   7   8
ENDBRANCH   1   7
BRANCH   4  18
ATOM     18  C   UNL     1      48.794   7.970  14.369  0.00  0.00    +0.000 C 
BRANCH  18  19
ATOM     19  N   UNL     1      49.026   7.093  15.487  0.00  0.00    +0.000 N 
ATOM     20  C   UNL     1      50.251   7.010  16.095  0.00  0.00    +0.000 C 
ATOM     21  O   UNL     1      51.199   7.712  15.756  0.00  0.00    +0.000 OA
ATOM     22  H   UNL     1      48.351   6.347  15.620  0.00  0.00    +0.000 HD
BRANCH  20  23
ATOM     23  C   UNL     1      50.346   6.080  17.228  0.00  0.00    +0.000 A 
ATOM     24  C   UNL     1      51.296   5.067  17.211  0.00  0.00    +0.000 A 
ATOM     25  S   UNL     1      51.327   4.138  18.642  0.00  0.00    +0.000 S 
ATOM     26  C   UNL     1      50.033   5.021  19.313  0.00  0.00    +0.000 A 
ATOM     27  N   UNL     1      49.552   4.726  20.547  0.00  0.00    +0.000 NA
ATOM     28  C   UNL     1      48.552   5.459  20.916  0.00  0.00    +0.000 A 
ATOM     29  N   UNL     1      47.989   6.452  20.159  0.00  0.00    +0.000 N 
ATOM     30  C   UNL     1      48.456   6.797  18.914  0.00  0.00    +0.000 A 
ATOM     31  O   UNL     1      47.943   7.708  18.273  0.00  0.00    +0.000 OA
ATOM     32  C   UNL     1      49.587   6.013  18.454  0.00  0.00    +0.000 A 
ATOM     33  H   UNL     1      47.206   6.987  20.504  0.00  0.00    +0.000 HD
ENDBRANCH  20  23
ENDBRANCH  18  19
ENDBRANCH   4  18
TORSDOF 7
ENDMDL
MODEL 6
REMARK VINA RESULT:    -7.180      3.342      8.002
REMARK INTER + INTRA:         -11.578
REMARK INTER:                  -9.704
REMARK INTRA:                  -1.875
REMARK UNBOUND:                -1.461
REMARK  Name = 
REMARK  8 active torsions:
REMARK  status: ('A' for Active; 'I' for Inactive)
REMARK    1  A    between atoms: C_1  and  C_2
REMARK    2  A    between atoms: C_2  and  N_3
REMARK    3  A    between atoms: C_2  and  C_25
REMARK    4  A    between atoms: N_3  and  C_4
REMARK    5  A    between atoms: C_4  and  C_5
REMARK    6  A    between atoms: C_8  and  C_9
REMARK    7  A    between atoms: C_9  and  N_10
REMARK    8  A    between atoms: C_11  and  C_13
REMARK                            x       y       z     vdW  Elec       q    Type
REMARK                         _______ _______ _______ _____ _____    ______ ____
ROOT
ATOM      1  C   UNL     1      48.678   7.757  16.269  0.00  0.00    +0.000 A 
ATOM      2  C   UNL     1      48.078   8.896  15.714  0.00  0.00    +0.000 A 
ATOM      3  C   UNL     1      47.969   9.040  14.325  0.00  0.00    +0.000 A 
ATOM      4  C   UNL     1      48.455   8.048  13.465  0.00  0.00    +0.000 A 
ATOM      5  C   UNL     1      49.107   6.939  14.017  0.00  0.00    +0.000 A 
ATOM      6  C   UNL     1      49.208   6.791  15.402  0.00  0.00    +0.000 A 
ENDROOT
BRANCH   1   7
ATOM      7  C   UNL     1      48.763   7.561  17.768  0.00  0.00    +0.000 C 
BRANCH   7   8
ATOM      8  N   UNL     1      47.487   7.119  18.326  0.00  0.00    +0.000 NA
ATOM      9  H   UNL     1      47.104   7.868  18.902  0.00  0.00    +0.000 HD
BRANCH   8  11
ATOM     10  C   UNL     1      48.596   6.086  20.312  0.00  0.00    +0.000 C 
ATOM     11  C   UNL     1      47.594   5.912  19.163  0.00  0.00    +0.000 C 
BRANCH  11  12
ATOM     12  C   UNL     1      47.988   4.722  18.292  0.00  0.00    +0.000 A 
ATOM     13  C   UNL     1      47.175   4.326  17.218  0.00  0.00    +0.000 A 
ATOM     14  C   UNL     1      47.543   3.251  16.404  0.00  0.00    +0.000 A 
ATOM     15  C   UNL     1      48.725   2.556  16.652  0.00  0.00    +0.000 A 
ATOM     16  C   UNL     1      49.539   2.934  17.716  0.00  0.00    +0.000 A 
ATOM     17  C   UNL     1      49.175   4.009  18.529  0.00  0.00    +0.000 A 
ENDBRANCH  11  12
ENDBRANCH   8  11
ENDBRANCH   7   8
ENDBRANCH   1   7
BRANCH   4  18
ATOM     18  C   UNL     1      48.318   8.178  11.970  0.00  0.00    +0.000 C 
BRANCH  18  19
ATOM     19  N   UNL     1      47.600   7.057  11.422  0.00  0.00    +0.000 N 
ATOM     20  C   UNL     1      46.231   7.034  11.372  0.00  0.00    +0.000 C 
ATOM     21  O   UNL     1      45.546   7.984  11.740  0.00  0.00    +0.000 OA
ATOM     22  H   UNL     1      48.116   6.187  11.345  0.00  0.00    +0.000 HD
BRANCH  20  23
ATOM     23  C   UNL     1      45.628   5.831  10.783  0.00  0.00    +0.000 A 
ATOM     24  C   UNL     1      45.819   5.553   9.435  0.00  0.00    +0.000 A 
ATOM     25  S   UNL     1      45.126   4.074   8.940  0.00  0.00    +0.000 S 
ATOM     26  C   UNL     1      44.496   3.781  10.497  0.00  0.00    +0.000 A 
ATOM     27  N   UNL     1      43.777   2.660  10.758  0.00  0.00    +0.000 NA
ATOM     28  C   UNL     1      43.338   2.583  11.973  0.00  0.00    +0.000 A 
ATOM     29  N   UNL     1      43.550   3.528  12.943  0.00  0.00    +0.000 N 
ATOM     30  C   UNL     1      44.289   4.665  12.726  0.00  0.00    +0.000 A 
ATOM     31  O   UNL     1      44.479   5.479  13.624  0.00  0.00    +0.000 OA
ATOM     32  C   UNL     1      44.815   4.799  11.381  0.00  0.00    +0.000 A 
ATOM     33  H   UNL     1      43.177   3.409  13.873  0.00  0.00    +0.000 HD
ENDBRANCH  20  23
ENDBRANCH  18  19
ENDBRANCH   4  18
TORSDOF 7
ENDMDL
MODEL 7
REMARK VINA RESULT:    -7.161      2.936      8.355
REMARK INTER + INTRA:         -11.552
REMARK INTER:                  -9.555
REMARK INTRA:                  -1.997
REMARK UNBOUND:                -1.461
REMARK  Name = 
REMARK  8 active torsions:
REMARK  status: ('A' for Active; 'I' for Inactive)
REMARK    1  A    between atoms: C_1  and  C_2
REMARK    2  A    between atoms: C_2  and  N_3
REMARK    3  A    between atoms: C_2  and  C_25
REMARK    4  A    between atoms: N_3  and  C_4
REMARK    5  A    between atoms: C_4  and  C_5
REMARK    6  A    between atoms: C_8  and  C_9
REMARK    7  A    between atoms: C_9  and  N_10
REMARK    8  A    between atoms: C_11  and  C_13
REMARK                            x       y       z     vdW  Elec       q    Type
REMARK                         _______ _______ _______ _____ _____    ______ ____
ROOT
ATOM      1  C   UNL     1      49.166   8.047  16.190  0.00  0.00    +0.000 A 
ATOM      2  C   UNL     1      48.471   9.140  15.653  0.00  0.00    +0.000 A 
ATOM      3  C   UNL     1      47.991   9.104  14.338  0.00  0.00    +0.000 A 
ATOM      4  C   UNL     1      48.194   7.975  13.535  0.00  0.00    +0.000 A 
ATOM      5  C   UNL     1      48.939   6.908  14.051  0.00  0.00    +0.000 A 
ATOM      6  C   UNL     1      49.410   6.940  15.366  0.00  0.00    +0.000 A 
ENDROOT
BRANCH   1   7
ATOM      7  C   UNL     1      49.651   8.049  17.625  0.00  0.00    +0.000 C 
BRANCH   7   8
ATOM      8  N   UNL     1      48.769   7.270  18.492  0.00  0.00    +0.000 NA
ATOM      9  H   UNL     1      48.486   7.854  19.279  0.00  0.00    +0.000 HD
BRANCH   8  11
ATOM     10  C   UNL     1      50.927   6.136  19.038  0.00  0.00    +0.000 C 
ATOM     11  C   UNL     1      49.395   6.052  19.032  0.00  0.00    +0.000 C 
BRANCH  11  12
ATOM     12  C   UNL     1      48.933   4.842  18.225  0.00  0.00    +0.000 A 
ATOM     13  C   UNL     1      47.603   4.742  17.788  0.00  0.00    +0.000 A 
ATOM     14  C   UNL     1      47.181   3.646  17.030  0.00  0.00    +0.000 A 
ATOM     15  C   UNL     1      48.081   2.636  16.697  0.00  0.00    +0.000 A 
ATOM     16  C   UNL     1      49.403   2.718  17.126  0.00  0.00    +0.000 A 
ATOM     17  C   UNL     1      49.827   3.813  17.882  0.00  0.00    +0.000 A 
ENDBRANCH  11  12
ENDBRANCH   8  11
ENDBRANCH   7   8
ENDBRANCH   1   7
BRANCH   4  18
ATOM     18  C   UNL     1      47.658   7.913  12.128  0.00  0.00    +0.000 C 
BRANCH  18  19
ATOM     19  N   UNL     1      46.962   6.674  11.900  0.00  0.00    +0.000 N 
ATOM     20  C   UNL     1      45.605   6.571  12.059  0.00  0.00    +0.000 C 
ATOM     21  O   UNL     1      44.905   7.536  12.351  0.00  0.00    +0.000 OA
ATOM     22  H   UNL     1      47.529   5.833  11.902  0.00  0.00    +0.000 HD
BRANCH  20  23
ATOM     23  C   UNL     1      45.023   5.250  11.787  0.00  0.00    +0.000 A 
ATOM     24  C   UNL     1      44.368   4.563  12.801  0.00  0.00    +0.000 A 
ATOM     25  S   UNL     1      43.676   3.090  12.289  0.00  0.00    +0.000 S 
ATOM     26  C   UNL     1      44.278   3.290  10.707  0.00  0.00    +0.000 A 
ATOM     27  N   UNL     1      44.041   2.359   9.748  0.00  0.00    +0.000 NA
ATOM     28  C   UNL     1      44.582   2.627   8.604  0.00  0.00    +0.000 A 
ATOM     29  N   UNL     1      45.340   3.738   8.338  0.00  0.00    +0.000 N 
ATOM     30  C   UNL     1      45.586   4.713   9.273  0.00  0.00    +0.000 A 
ATOM     31  O   UNL     1      46.250   5.706   8.994  0.00  0.00    +0.000 OA
ATOM     32  C   UNL     1      44.994   4.468  10.574  0.00  0.00    +0.000 A 
ATOM     33  H   UNL     1      45.737   3.887   7.422  0.00  0.00    +0.000 HD
ENDBRANCH  20  23
ENDBRANCH  18  19
ENDBRANCH   4  18
TORSDOF 7
ENDMDL
MODEL 8
REMARK VINA RESULT:    -6.977      2.225      3.559
REMARK INTER + INTRA:         -11.293
REMARK INTER:                 -10.351
REMARK INTRA:                  -0.942
REMARK UNBOUND:                -1.461
REMARK  Name = 
REMARK  8 active torsions:
REMARK  status: ('A' for Active; 'I' for Inactive)
REMARK    1  A    between atoms: C_1  and  C_2
REMARK    2  A    between atoms: C_2  and  N_3
REMARK    3  A    between atoms: C_2  and  C_25
REMARK    4  A    between atoms: N_3  and  C_4
REMARK    5  A    between atoms: C_4  and  C_5
REMARK    6  A    between atoms: C_8  and  C_9
REMARK    7  A    between atoms: C_9  and  N_10
REMARK    8  A    between atoms: C_11  and  C_13
REMARK                            x       y       z     vdW  Elec       q    Type
REMARK                         _______ _______ _______ _____ _____    ______ ____
ROOT
ATOM      1  C   UNL     1      45.102   4.766  11.714  0.00  0.00    +0.000 A 
ATOM      2  C   UNL     1      45.486   5.914  12.422  0.00  0.00    +0.000 A 
ATOM      3  C   UNL     1      46.264   5.810  13.581  0.00  0.00    +0.000 A 
ATOM      4  C   UNL     1      46.676   4.558  14.054  0.00  0.00    +0.000 A 
ATOM      5  C   UNL     1      46.243   3.410  13.381  0.00  0.00    +0.000 A 
ATOM      6  C   UNL     1      45.475   3.513  12.220  0.00  0.00    +0.000 A 
ENDROOT
BRANCH   1   7
ATOM      7  C   UNL     1      44.301   4.862  10.433  0.00  0.00    +0.000 C 
BRANCH   7   8
ATOM      8  N   UNL     1      45.117   4.543   9.262  0.00  0.00    +0.000 NA
ATOM      9  H   UNL     1      45.088   5.334   8.619  0.00  0.00    +0.000 HD
BRANCH   8  11
ATOM     10  C   UNL     1      44.140   2.254   9.473  0.00  0.00    +0.000 C 
ATOM     11  C   UNL     1      44.664   3.348   8.533  0.00  0.00    +0.000 C 
BRANCH  11  12
ATOM     12  C   UNL     1      45.808   2.809   7.679  0.00  0.00    +0.000 A 
ATOM     13  C   UNL     1      46.424   1.589   8.001  0.00  0.00    +0.000 A 
ATOM     14  C   UNL     1      47.458   1.081   7.209  0.00  0.00    +0.000 A 
ATOM     15  C   UNL     1      47.891   1.783   6.086  0.00  0.00    +0.000 A 
ATOM     16  C   UNL     1      47.293   2.996   5.755  0.00  0.00    +0.000 A 
ATOM     17  C   UNL     1      46.259   3.505   6.544  0.00  0.00    +0.000 A 
ENDBRANCH  11  12
ENDBRANCH   8  11
ENDBRANCH   7   8
ENDBRANCH   1   7
BRANCH   4  18
ATOM     18  C   UNL     1      47.538   4.435  15.284  0.00  0.00    +0.000 C 
BRANCH  18  19
ATOM     19  N   UNL     1      47.700   5.714  15.926  0.00  0.00    +0.000 N 
ATOM     20  C   UNL     1      48.693   5.938  16.843  0.00  0.00    +0.000 C 
ATOM     21  O   UNL     1      49.525   5.082  17.129  0.00  0.00    +0.000 OA
ATOM     22  H   UNL     1      46.901   6.337  15.894  0.00  0.00    +0.000 HD
BRANCH  20  23
ATOM     23  C   UNL     1      48.748   7.289  17.415  0.00  0.00    +0.000 A 
ATOM     24  C   UNL     1      48.809   7.454  18.793  0.00  0.00    +0.000 A 
ATOM     25  S   UNL     1      48.959   9.082  19.279  0.00  0.00    +0.000 S 
ATOM     26  C   UNL     1      48.890   9.631  17.667  0.00  0.00    +0.000 A 
ATOM     27  N   UNL     1      48.962  10.955  17.376  0.00  0.00    +0.000 NA
ATOM     28  C   UNL     1      48.868  11.227  16.115  0.00  0.00    +0.000 A 
ATOM     29  N   UNL     1      48.704  10.295  15.124  0.00  0.00    +0.000 N 
ATOM     30  C   UNL     1      48.647   8.946  15.372  0.00  0.00    +0.000 A 
ATOM     31  O   UNL     1      48.523   8.137  14.458  0.00  0.00    +0.000 OA
ATOM     32  C   UNL     1      48.757   8.582  16.772  0.00  0.00    +0.000 A 
ATOM     33  H   UNL     1      48.635  10.574  14.157  0.00  0.00    +0.000 HD
ENDBRANCH  20  23
ENDBRANCH  18  19
ENDBRANCH   4  18
TORSDOF 7
ENDMDL
MODEL 9
REMARK VINA RESULT:    -6.900      3.904      5.245
REMARK INTER + INTRA:         -11.184
REMARK INTER:                 -10.060
REMARK INTRA:                  -1.124
REMARK UNBOUND:                -1.461
REMARK  Name = 
REMARK  8 active torsions:
REMARK  status: ('A' for Active; 'I' for Inactive)
REMARK    1  A    between atoms: C_1  and  C_2
REMARK    2  A    between atoms: C_2  and  N_3
REMARK    3  A    between atoms: C_2  and  C_25
REMARK    4  A    between atoms: N_3  and  C_4
REMARK    5  A    between atoms: C_4  and  C_5
REMARK    6  A    between atoms: C_8  and  C_9
REMARK    7  A    between atoms: C_9  and  N_10
REMARK    8  A    between atoms: C_11  and  C_13
REMARK                            x       y       z     vdW  Elec       q    Type
REMARK                         _______ _______ _______ _____ _____    ______ ____
ROOT
ATOM      1  C   UNL     1      45.645   5.562  11.711  0.00  0.00    +0.000 A 
ATOM      2  C   UNL     1      46.203   6.807  11.386  0.00  0.00    +0.000 A 
ATOM      3  C   UNL     1      47.232   7.353  12.163  0.00  0.00    +0.000 A 
ATOM      4  C   UNL     1      47.726   6.664  13.278  0.00  0.00    +0.000 A 
ATOM      5  C   UNL     1      47.129   5.450  13.637  0.00  0.00    +0.000 A 
ATOM      6  C   UNL     1      46.109   4.901  12.857  0.00  0.00    +0.000 A 
ENDROOT
BRANCH   1   7
ATOM      7  C   UNL     1      44.564   4.935  10.857  0.00  0.00    +0.000 C 
BRANCH   7   8
ATOM      8  N   UNL     1      45.015   4.733   9.481  0.00  0.00    +0.000 NA
ATOM      9  H   UNL     1      44.629   5.476   8.898  0.00  0.00    +0.000 HD
BRANCH   8  11
ATOM     10  C   UNL     1      44.164   2.438   9.981  0.00  0.00    +0.000 C 
ATOM     11  C   UNL     1      44.600   3.443   8.906  0.00  0.00    +0.000 C 
BRANCH  11  12
ATOM     12  C   UNL     1      45.742   2.867   8.073  0.00  0.00    +0.000 A 
ATOM     13  C   UNL     1      46.448   3.680   7.173  0.00  0.00    +0.000 A 
ATOM     14  C   UNL     1      47.509   3.162   6.424  0.00  0.00    +0.000 A 
ATOM     15  C   UNL     1      47.877   1.825   6.563  0.00  0.00    +0.000 A 
ATOM     16  C   UNL     1      47.184   1.004   7.448  0.00  0.00    +0.000 A 
ATOM     17  C   UNL     1      46.126   1.520   8.198  0.00  0.00    +0.000 A 
ENDBRANCH  11  12
ENDBRANCH   8  11
ENDBRANCH   7   8
ENDBRANCH   1   7
BRANCH   4  18
ATOM     18  C   UNL     1      48.853   7.227  14.105  0.00  0.00    +0.000 C 
BRANCH  18  19
ATOM     19  N   UNL     1      50.054   7.344  13.320  0.00  0.00    +0.000 N 
ATOM     20  C   UNL     1      50.443   8.539  12.772  0.00  0.00    +0.000 C 
ATOM     21  O   UNL     1      49.820   9.579  12.962  0.00  0.00    +0.000 OA
ATOM     22  H   UNL     1      50.438   6.480  12.953  0.00  0.00    +0.000 HD
BRANCH  20  23
ATOM     23  C   UNL     1      51.692   8.518  12.000  0.00  0.00    +0.000 A 
ATOM     24  C   UNL     1      51.654   8.677  10.621  0.00  0.00    +0.000 A 
ATOM     25  S   UNL     1      53.198   8.717   9.896  0.00  0.00    +0.000 S 
ATOM     26  C   UNL     1      53.971   8.466  11.394  0.00  0.00    +0.000 A 
ATOM     27  N   UNL     1      55.324   8.393  11.477  0.00  0.00    +0.000 NA
ATOM     28  C   UNL     1      55.771   8.172  12.671  0.00  0.00    +0.000 A 
ATOM     29  N   UNL     1      54.986   8.011  13.783  0.00  0.00    +0.000 N 
ATOM     30  C   UNL     1      53.616   8.098  13.747  0.00  0.00    +0.000 A 
ATOM     31  O   UNL     1      52.945   7.973  14.766  0.00  0.00    +0.000 OA
ATOM     32  C   UNL     1      53.060   8.356  12.432  0.00  0.00    +0.000 A 
ATOM     33  H   UNL     1      55.398   7.838  14.687  0.00  0.00    +0.000 HD
ENDBRANCH  20  23
ENDBRANCH  18  19
ENDBRANCH   4  18
TORSDOF 7
ENDMDL
