MODEL 1
REMARK VINA RESULT:    -8.627      0.000      0.000
REMARK INTER + INTRA:         -12.038
REMARK INTER:                 -11.148
REMARK INTRA:                  -0.890
REMARK UNBOUND:                -0.890
REMARK  Name = 
REMARK  7 active torsions:
REMARK  status: ('A' for Active; 'I' for Inactive)
REMARK    1  A    between atoms: C_1  and  C_2
REMARK    2  A    between atoms: C_2  and  C_3
REMARK    3  A    between atoms: C_2  and  C_4
REMARK    4  A    between atoms: C_2  and  C_18
REMARK    5  A    between atoms: C_5  and  C_6
REMARK    6  A    between atoms: C_10  and  C_11
REMARK    7  A    between atoms: C_21  and  C_22
REMARK                            x       y       z     vdW  Elec       q    Type
REMARK                         _______ _______ _______ _____ _____    ______ ____
ROOT
ATOM      1  C   UNL     1      43.395   2.867  11.601  0.00  0.00    +0.000 C 
ATOM      2  C   UNL     1      44.265   3.973  10.954  0.00  0.00    +0.000 C 
ATOM      3  C   UNL     1      43.307   5.135  10.604  0.00  0.00    +0.000 C 
ENDROOT
BRANCH   2   4
ATOM      4  C   UNL     1      44.999   3.495   9.690  0.00  0.00    +0.000 A 
ATOM      5  C   UNL     1      45.280   2.143   9.439  0.00  0.00    +0.000 A 
ATOM      6  C   UNL     1      46.007   1.764   8.314  0.00  0.00    +0.000 A 
ATOM      7  C   UNL     1      46.439   2.753   7.448  0.00  0.00    +0.000 A 
ATOM      8  N   UNL     1      46.184   4.077   7.627  0.00  0.00    +0.000 NA
ATOM      9  C   UNL     1      45.476   4.407   8.739  0.00  0.00    +0.000 A 
BRANCH   7  10
ATOM     10  C   UNL     1      47.248   2.366   6.252  0.00  0.00    +0.000 C 
ATOM     11  N   UNL     1      47.165   3.216   5.178  0.00  0.00    +0.000 N 
ATOM     12  O   UNL     1      47.952   1.364   6.220  0.00  0.00    +0.000 OA
ATOM     13  H   UNL     1      46.580   4.041   5.241  0.00  0.00    +0.000 HD
ATOM     14  H   UNL     1      47.697   3.015   4.346  0.00  0.00    +0.000 HD
ENDBRANCH   7  10
ENDBRANCH   2   4
BRANCH   2  15
ATOM     15  C   UNL     1      45.265   4.461  12.003  0.00  0.00    +0.000 C 
ATOM     16  C   UNL     1      45.958   5.609  11.915  0.00  0.00    +0.000 C 
BRANCH  16  17
ATOM     17  C   UNL     1      46.902   6.018  12.947  0.00  0.00    +0.000 A 
ATOM     18  C   UNL     1      47.701   7.144  12.794  0.00  0.00    +0.000 A 
ATOM     19  N   UNL     1      48.583   7.571  13.723  0.00  0.00    +0.000 NA
ATOM     20  C   UNL     1      48.671   6.832  14.857  0.00  0.00    +0.000 A 
ATOM     21  C   UNL     1      47.937   5.672  15.127  0.00  0.00    +0.000 A 
ATOM     22  C   UNL     1      47.035   5.279  14.125  0.00  0.00    +0.000 A 
BRANCH  21  23
ATOM     23  C   UNL     1      48.113   4.887  16.366  0.00  0.00    +0.000 A 
ATOM     24  C   UNL     1      47.365   3.719  16.609  0.00  0.00    +0.000 A 
ATOM     25  C   UNL     1      47.581   2.937  17.748  0.00  0.00    +0.000 A 
ATOM     26  C   UNL     1      48.543   3.314  18.680  0.00  0.00    +0.000 A 
ATOM     27  C   UNL     1      49.278   4.479  18.480  0.00  0.00    +0.000 A 
ATOM     28  C   UNL     1      49.063   5.255  17.337  0.00  0.00    +0.000 A 
ENDBRANCH  21  23
ENDBRANCH  16  17
ENDBRANCH   2  15
TORSDOF 5
ENDMDL
MODEL 2
REMARK VINA RESULT:    -8.158      1.664      3.579
REMARK INTER + INTRA:         -11.432
REMARK INTER:                 -10.401
REMARK INTRA:                  -1.032
REMARK UNBOUND:                -0.890
REMARK  Name = 
REMARK  7 active torsions:
REMARK  status: ('A' for Active; 'I' for Inactive)
REMARK    1  A    between atoms: C_1  and  C_2
REMARK    2  A    between atoms: C_2  and  C_3
REMARK    3  A    between atoms: C_2  and  C_4
REMARK    4  A    between atoms: C_2  and  C_18
REMARK    5  A    between atoms: C_5  and  C_6
REMARK    6  A    between atoms: C_10  and  C_11
REMARK    7  A    between atoms: C_21  and  C_22
REMARK                            x       y       z     vdW  Elec       q    Type
REMARK                         _______ _______ _______ _____ _____    ______ ____
ROOT
ATOM      1  C   UNL     1      43.476   2.982  11.845  0.00  0.00    +0.000 C 
ATOM      2  C   UNL     1      44.189   4.119  11.070  0.00  0.00    +0.000 C 
ATOM      3  C   UNL     1      43.092   5.133  10.672  0.00  0.00    +0.000 C 
ENDROOT
BRANCH   2   4
ATOM      4  C   UNL     1      44.924   3.617   9.815  0.00  0.00    +0.000 A 
ATOM      5  C   UNL     1      45.120   2.256   9.542  0.00  0.00    +0.000 A 
ATOM      6  C   UNL     1      45.851   1.851   8.429  0.00  0.00    +0.000 A 
ATOM      7  C   UNL     1      46.373   2.826   7.597  0.00  0.00    +0.000 A 
ATOM      8  N   UNL     1      46.203   4.160   7.799  0.00  0.00    +0.000 NA
ATOM      9  C   UNL     1      45.488   4.514   8.898  0.00  0.00    +0.000 A 
BRANCH   7  10
ATOM     10  C   UNL     1      47.188   2.409   6.414  0.00  0.00    +0.000 C 
ATOM     11  N   UNL     1      47.069   3.202   5.301  0.00  0.00    +0.000 N 
ATOM     12  O   UNL     1      47.926   1.432   6.425  0.00  0.00    +0.000 OA
ATOM     13  H   UNL     1      46.456   4.009   5.329  0.00  0.00    +0.000 HD
ATOM     14  H   UNL     1      47.601   2.980   4.476  0.00  0.00    +0.000 HD
ENDBRANCH   7  10
ENDBRANCH   2   4
BRANCH   2  15
ATOM     15  C   UNL     1      45.165   4.802  12.027  0.00  0.00    +0.000 C 
ATOM     16  C   UNL     1      46.006   4.150  12.849  0.00  0.00    +0.000 C 
BRANCH  16  17
ATOM     17  C   UNL     1      46.911   4.858  13.744  0.00  0.00    +0.000 A 
ATOM     18  C   UNL     1      47.170   4.397  15.028  0.00  0.00    +0.000 A 
ATOM     19  N   UNL     1      48.006   5.010  15.892  0.00  0.00    +0.000 NA
ATOM     20  C   UNL     1      48.609   6.142  15.449  0.00  0.00    +0.000 A 
ATOM     21  C   UNL     1      48.421   6.719  14.189  0.00  0.00    +0.000 A 
ATOM     22  C   UNL     1      47.542   6.035  13.334  0.00  0.00    +0.000 A 
BRANCH  21  23
ATOM     23  C   UNL     1      49.075   7.981  13.784  0.00  0.00    +0.000 A 
ATOM     24  C   UNL     1      49.575   8.164  12.480  0.00  0.00    +0.000 A 
ATOM     25  C   UNL     1      50.130   9.382  12.076  0.00  0.00    +0.000 A 
ATOM     26  C   UNL     1      50.213  10.443  12.973  0.00  0.00    +0.000 A 
ATOM     27  C   UNL     1      49.753  10.281  14.276  0.00  0.00    +0.000 A 
ATOM     28  C   UNL     1      49.194   9.063  14.675  0.00  0.00    +0.000 A 
ENDBRANCH  21  23
ENDBRANCH  16  17
ENDBRANCH   2  15
TORSDOF 5
ENDMDL
MODEL 3
REMARK VINA RESULT:    -7.925      3.531      8.729
REMARK INTER + INTRA:         -11.132
REMARK INTER:                 -10.230
REMARK INTRA:                  -0.902
REMARK UNBOUND:                -0.890
REMARK  Name = 
REMARK  7 active torsions:
REMARK  status: ('A' for Active; 'I' for Inactive)
REMARK    1  A    between atoms: C_1  and  C_2
REMARK    2  A    between atoms: C_2  and  C_3
REMARK    3  A    between atoms: C_2  and  C_4
REMARK    4  A    between atoms: C_2  and  C_18
REMARK    5  A    between atoms: C_5  and  C_6
REMARK    6  A    between atoms: C_10  and  C_11
REMARK    7  A    between atoms: C_21  and  C_22
REMARK                            x       y       z     vdW  Elec       q    Type
REMARK                         _______ _______ _______ _____ _____    ______ ____
ROOT
ATOM      1  C   UNL     1      48.147   8.433  11.726  0.00  0.00    +0.000 C 
ATOM      2  C   UNL     1      47.169   7.720  12.695  0.00  0.00    +0.000 C 
ATOM      3  C   UNL     1      46.005   8.707  12.947  0.00  0.00    +0.000 C 
ENDROOT
BRANCH   2   4
ATOM      4  C   UNL     1      47.828   7.329  14.029  0.00  0.00    +0.000 A 
ATOM      5  C   UNL     1      48.471   8.258  14.860  0.00  0.00    +0.000 A 
ATOM      6  C   UNL     1      49.113   7.845  16.025  0.00  0.00    +0.000 A 
ATOM      7  C   UNL     1      49.092   6.499  16.344  0.00  0.00    +0.000 A 
ATOM      8  N   UNL     1      48.471   5.554  15.589  0.00  0.00    +0.000 NA
ATOM      9  C   UNL     1      47.862   5.995  14.458  0.00  0.00    +0.000 A 
BRANCH   7  10
ATOM     10  C   UNL     1      49.803   6.035  17.575  0.00  0.00    +0.000 C 
ATOM     11  N   UNL     1      50.378   4.792  17.497  0.00  0.00    +0.000 N 
ATOM     12  O   UNL     1      49.885   6.713  18.592  0.00  0.00    +0.000 OA
ATOM     13  H   UNL     1      50.299   4.262  16.637  0.00  0.00    +0.000 HD
ATOM     14  H   UNL     1      50.881   4.429  18.290  0.00  0.00    +0.000 HD
ENDBRANCH   7  10
ENDBRANCH   2   4
BRANCH   2  15
ATOM     15  C   UNL     1      46.619   6.484  11.985  0.00  0.00    +0.000 C 
ATOM     16  C   UNL     1      45.318   6.151  11.937  0.00  0.00    +0.000 C 
BRANCH  16  17
ATOM     17  C   UNL     1      44.855   4.954  11.247  0.00  0.00    +0.000 A 
ATOM     18  C   UNL     1      43.746   4.245  11.690  0.00  0.00    +0.000 A 
ATOM     19  N   UNL     1      43.271   3.137  11.082  0.00  0.00    +0.000 NA
ATOM     20  C   UNL     1      43.942   2.718   9.979  0.00  0.00    +0.000 A 
ATOM     21  C   UNL     1      45.079   3.331   9.442  0.00  0.00    +0.000 A 
ATOM     22  C   UNL     1      45.524   4.480  10.116  0.00  0.00    +0.000 A 
BRANCH  21  23
ATOM     23  C   UNL     1      45.789   2.798   8.262  0.00  0.00    +0.000 A 
ATOM     24  C   UNL     1      46.070   3.608   7.144  0.00  0.00    +0.000 A 
ATOM     25  C   UNL     1      46.804   3.123   6.057  0.00  0.00    +0.000 A 
ATOM     26  C   UNL     1      47.264   1.810   6.056  0.00  0.00    +0.000 A 
ATOM     27  C   UNL     1      46.977   0.979   7.135  0.00  0.00    +0.000 A 
ATOM     28  C   UNL     1      46.247   1.468   8.222  0.00  0.00    +0.000 A 
ENDBRANCH  21  23
ENDBRANCH  16  17
ENDBRANCH   2  15
TORSDOF 5
ENDMDL
MODEL 4
REMARK VINA RESULT:    -7.782      3.405      8.694
REMARK INTER + INTRA:         -10.947
REMARK INTER:                 -10.018
REMARK INTRA:                  -0.929
REMARK UNBOUND:                -0.890
REMARK  Name = 
REMARK  7 active torsions:
REMARK  status: ('A' for Active; 'I' for Inactive)
REMARK    1  A    between atoms: C_1  and  C_2
REMARK    2  A    between atoms: C_2  and  C_3
REMARK    3  A    between atoms: C_2  and  C_4
REMARK    4  A    between atoms: C_2  and  C_18
REMARK    5  A    between atoms: C_5  and  C_6
REMARK    6  A    between atoms: C_10  and  C_11
REMARK    7  A    between atoms: C_21  and  C_22
REMARK                            x       y       z     vdW  Elec       q    Type
REMARK                         _______ _______ _______ _____ _____    ______ ____
ROOT
ATOM      1  C   UNL     1      49.489   7.576  12.824  0.00  0.00    +0.000 C 
ATOM      2  C   UNL     1      48.163   7.288  13.573  0.00  0.00    +0.000 C 
ATOM      3  C   UNL     1      47.491   8.659  13.816  0.00  0.00    +0.000 C 
ENDROOT
BRANCH   2   4
ATOM      4  C   UNL     1      48.377   6.560  14.911  0.00  0.00    +0.000 A 
ATOM      5  C   UNL     1      49.127   7.107  15.962  0.00  0.00    +0.000 A 
ATOM      6  C   UNL     1      49.351   6.382  17.130  0.00  0.00    +0.000 A 
ATOM      7  C   UNL     1      48.808   5.113  17.228  0.00  0.00    +0.000 A 
ATOM      8  N   UNL     1      48.058   4.535  16.251  0.00  0.00    +0.000 NA
ATOM      9  C   UNL     1      47.867   5.273  15.127  0.00  0.00    +0.000 A 
BRANCH   7  10
ATOM     10  C   UNL     1      49.065   4.309  18.462  0.00  0.00    +0.000 C 
ATOM     11  N   UNL     1      48.110   3.374  18.772  0.00  0.00    +0.000 N 
ATOM     12  O   UNL     1      50.063   4.455  19.157  0.00  0.00    +0.000 OA
ATOM     13  H   UNL     1      47.301   3.272  18.170  0.00  0.00    +0.000 HD
ATOM     14  H   UNL     1      48.232   2.792  19.585  0.00  0.00    +0.000 HD
ENDBRANCH   7  10
ENDBRANCH   2   4
BRANCH   2  15
ATOM     15  C   UNL     1      47.270   6.461  12.649  0.00  0.00    +0.000 C 
ATOM     16  C   UNL     1      46.001   6.776  12.336  0.00  0.00    +0.000 C 
BRANCH  16  17
ATOM     17  C   UNL     1      45.197   5.944  11.452  0.00  0.00    +0.000 A 
ATOM     18  C   UNL     1      43.809   5.944  11.518  0.00  0.00    +0.000 A 
ATOM     19  N   UNL     1      43.019   5.200  10.716  0.00  0.00    +0.000 NA
ATOM     20  C   UNL     1      43.649   4.414   9.807  0.00  0.00    +0.000 A 
ATOM     21  C   UNL     1      45.035   4.310   9.650  0.00  0.00    +0.000 A 
ATOM     22  C   UNL     1      45.805   5.110  10.510  0.00  0.00    +0.000 A 
BRANCH  21  23
ATOM     23  C   UNL     1      45.660   3.400   8.667  0.00  0.00    +0.000 A 
ATOM     24  C   UNL     1      46.323   3.893   7.527  0.00  0.00    +0.000 A 
ATOM     25  C   UNL     1      46.976   3.037   6.634  0.00  0.00    +0.000 A 
ATOM     26  C   UNL     1      46.968   1.663   6.855  0.00  0.00    +0.000 A 
ATOM     27  C   UNL     1      46.296   1.146   7.958  0.00  0.00    +0.000 A 
ATOM     28  C   UNL     1      45.649   2.006   8.851  0.00  0.00    +0.000 A 
ENDBRANCH  21  23
ENDBRANCH  16  17
ENDBRANCH   2  15
TORSDOF 5
ENDMDL
MODEL 5
REMARK VINA RESULT:    -7.681      4.239      8.080
REMARK INTER + INTRA:         -10.817
REMARK INTER:                  -9.867
REMARK INTRA:                  -0.949
REMARK UNBOUND:                -0.890
REMARK  Name = 
REMARK  7 active torsions:
REMARK  status: ('A' for Active; 'I' for Inactive)
REMARK    1  A    between atoms: C_1  and  C_2
REMARK    2  A    between atoms: C_2  and  C_3
REMARK    3  A    between atoms: C_2  and  C_4
REMARK    4  A    between atoms: C_2  and  C_18
REMARK    5  A    between atoms: C_5  and  C_6
REMARK    6  A    between atoms: C_10  and  C_11
REMARK    7  A    between atoms: C_21  and  C_22
REMARK                            x       y       z     vdW  Elec       q    Type
REMARK                         _______ _______ _______ _____ _____    ______ ____
ROOT
ATOM      1  C   UNL     1      46.306   9.628  12.040  0.00  0.00    +0.000 C 
ATOM      2  C   UNL     1      47.273   8.467  12.384  0.00  0.00    +0.000 C 
ATOM      3  C   UNL     1      47.321   8.381  13.928  0.00  0.00    +0.000 C 
ENDROOT
BRANCH   2   4
ATOM      4  C   UNL     1      48.689   8.681  11.824  0.00  0.00    +0.000 A 
ATOM      5  C   UNL     1      49.604   7.633  11.648  0.00  0.00    +0.000 A 
ATOM      6  C   UNL     1      50.898   7.884  11.202  0.00  0.00    +0.000 A 
ATOM      7  C   UNL     1      51.255   9.193  10.929  0.00  0.00    +0.000 A 
ATOM      8  N   UNL     1      50.410  10.250  11.064  0.00  0.00    +0.000 NA
ATOM      9  C   UNL     1      49.158   9.964  11.506  0.00  0.00    +0.000 A 
BRANCH   7  10
ATOM     10  C   UNL     1      52.651   9.485  10.479  0.00  0.00    +0.000 C 
ATOM     11  N   UNL     1      53.433   8.388  10.221  0.00  0.00    +0.000 N 
ATOM     12  O   UNL     1      53.081  10.623  10.336  0.00  0.00    +0.000 OA
ATOM     13  H   UNL     1      53.043   7.460  10.341  0.00  0.00    +0.000 HD
ATOM     14  H   UNL     1      54.380   8.518   9.903  0.00  0.00    +0.000 HD
ENDBRANCH   7  10
ENDBRANCH   2   4
BRANCH   2  15
ATOM     15  C   UNL     1      46.669   7.173  11.839  0.00  0.00    +0.000 C 
ATOM     16  C   UNL     1      45.369   7.007  11.543  0.00  0.00    +0.000 C 
BRANCH  16  17
ATOM     17  C   UNL     1      44.852   5.746  11.030  0.00  0.00    +0.000 A 
ATOM     18  C   UNL     1      43.691   5.177  11.538  0.00  0.00    +0.000 A 
ATOM     19  N   UNL     1      43.165   4.016  11.092  0.00  0.00    +0.000 NA
ATOM     20  C   UNL     1      43.837   3.394  10.091  0.00  0.00    +0.000 A 
ATOM     21  C   UNL     1      45.022   3.852   9.505  0.00  0.00    +0.000 A 
ATOM     22  C   UNL     1      45.519   5.064  10.009  0.00  0.00    +0.000 A 
BRANCH  21  23
ATOM     23  C   UNL     1      45.729   3.102   8.446  0.00  0.00    +0.000 A 
ATOM     24  C   UNL     1      46.236   3.748   7.301  0.00  0.00    +0.000 A 
ATOM     25  C   UNL     1      46.967   3.051   6.334  0.00  0.00    +0.000 A 
ATOM     26  C   UNL     1      47.195   1.686   6.481  0.00  0.00    +0.000 A 
ATOM     27  C   UNL     1      46.680   1.017   7.587  0.00  0.00    +0.000 A 
ATOM     28  C   UNL     1      45.955   1.718   8.555  0.00  0.00    +0.000 A 
ENDBRANCH  21  23
ENDBRANCH  16  17
ENDBRANCH   2  15
TORSDOF 5
ENDMDL
MODEL 6
REMARK VINA RESULT:    -7.445      3.001      4.569
REMARK INTER + INTRA:         -10.512
REMARK INTER:                  -9.963
REMARK INTRA:                  -0.548
REMARK UNBOUND:                -0.890
REMARK  Name = 
REMARK  7 active torsions:
REMARK  status: ('A' for Active; 'I' for Inactive)
REMARK    1  A    between atoms: C_1  and  C_2
REMARK    2  A    between atoms: C_2  and  C_3
REMARK    3  A    between atoms: C_2  and  C_4
REMARK    4  A    between atoms: C_2  and  C_18
REMARK    5  A    between atoms: C_5  and  C_6
REMARK    6  A    between atoms: C_10  and  C_11
REMARK    7  A    between atoms: C_21  and  C_22
REMARK                            x       y       z     vdW  Elec       q    Type
REMARK                         _______ _______ _______ _____ _____    ______ ____
ROOT
ATOM      1  C   UNL     1      43.985   3.205  12.021  0.00  0.00    +0.000 C 
ATOM      2  C   UNL     1      44.481   4.278  11.020  0.00  0.00    +0.000 C 
ATOM      3  C   UNL     1      43.250   5.139  10.654  0.00  0.00    +0.000 C 
ENDROOT
BRANCH   2   4
ATOM      4  C   UNL     1      45.097   3.671   9.748  0.00  0.00    +0.000 A 
ATOM      5  C   UNL     1      45.249   2.289   9.562  0.00  0.00    +0.000 A 
ATOM      6  C   UNL     1      45.875   1.788   8.424  0.00  0.00    +0.000 A 
ATOM      7  C   UNL     1      46.335   2.688   7.479  0.00  0.00    +0.000 A 
ATOM      8  N   UNL     1      46.202   4.037   7.593  0.00  0.00    +0.000 NA
ATOM      9  C   UNL     1      45.591   4.486   8.720  0.00  0.00    +0.000 A 
BRANCH   7  10
ATOM     10  C   UNL     1      47.037   2.169   6.265  0.00  0.00    +0.000 C 
ATOM     11  N   UNL     1      47.196   3.067   5.240  0.00  0.00    +0.000 N 
ATOM     12  O   UNL     1      47.458   1.022   6.179  0.00  0.00    +0.000 OA
ATOM     13  H   UNL     1      46.843   4.011   5.348  0.00  0.00    +0.000 HD
ATOM     14  H   UNL     1      47.672   2.780   4.400  0.00  0.00    +0.000 HD
ENDBRANCH   7  10
ENDBRANCH   2   4
BRANCH   2  15
ATOM     15  C   UNL     1      45.500   5.160  11.741  0.00  0.00    +0.000 C 
ATOM     16  C   UNL     1      45.997   6.307  11.247  0.00  0.00    +0.000 C 
BRANCH  16  17
ATOM     17  C   UNL     1      46.972   7.103  11.981  0.00  0.00    +0.000 A 
ATOM     18  C   UNL     1      46.717   7.552  13.270  0.00  0.00    +0.000 A 
ATOM     19  N   UNL     1      47.588   8.284  13.997  0.00  0.00    +0.000 NA
ATOM     20  C   UNL     1      48.770   8.583  13.401  0.00  0.00    +0.000 A 
ATOM     21  C   UNL     1      49.141   8.207  12.106  0.00  0.00    +0.000 A 
ATOM     22  C   UNL     1      48.195   7.446  11.401  0.00  0.00    +0.000 A 
BRANCH  21  23
ATOM     23  C   UNL     1      50.429   8.603  11.499  0.00  0.00    +0.000 A 
ATOM     24  C   UNL     1      51.277   7.658  10.889  0.00  0.00    +0.000 A 
ATOM     25  C   UNL     1      52.461   8.042  10.252  0.00  0.00    +0.000 A 
ATOM     26  C   UNL     1      52.833   9.383  10.222  0.00  0.00    +0.000 A 
ATOM     27  C   UNL     1      52.028  10.335  10.841  0.00  0.00    +0.000 A 
ATOM     28  C   UNL     1      50.842   9.948  11.472  0.00  0.00    +0.000 A 
ENDBRANCH  21  23
ENDBRANCH  16  17
ENDBRANCH   2  15
TORSDOF 5
ENDMDL
MODEL 7
REMARK VINA RESULT:    -7.072      3.376      5.115
REMARK INTER + INTRA:         -10.029
REMARK INTER:                  -9.051
REMARK INTRA:                  -0.979
REMARK UNBOUND:                -0.890
REMARK  Name = 
REMARK  7 active torsions:
REMARK  status: ('A' for Active; 'I' for Inactive)
REMARK    1  A    between atoms: C_1  and  C_2
REMARK    2  A    between atoms: C_2  and  C_3
REMARK    3  A    between atoms: C_2  and  C_4
REMARK    4  A    between atoms: C_2  and  C_18
REMARK    5  A    between atoms: C_5  and  C_6
REMARK    6  A    between atoms: C_10  and  C_11
REMARK    7  A    between atoms: C_21  and  C_22
REMARK                            x       y       z     vdW  Elec       q    Type
REMARK                         _______ _______ _______ _____ _____    ______ ____
ROOT
ATOM      1  C   UNL     1      47.130   8.639  13.497  0.00  0.00    +0.000 C 
ATOM      2  C   UNL     1      47.841   7.311  13.135  0.00  0.00    +0.000 C 
ATOM      3  C   UNL     1      48.846   7.646  12.008  0.00  0.00    +0.000 C 
ENDROOT
BRANCH   2   4
ATOM      4  C   UNL     1      46.866   6.218  12.664  0.00  0.00    +0.000 A 
ATOM      5  C   UNL     1      46.224   6.258  11.417  0.00  0.00    +0.000 A 
ATOM      6  C   UNL     1      45.297   5.282  11.063  0.00  0.00    +0.000 A 
ATOM      7  C   UNL     1      45.031   4.270  11.968  0.00  0.00    +0.000 A 
ATOM      8  N   UNL     1      45.633   4.167  13.184  0.00  0.00    +0.000 NA
ATOM      9  C   UNL     1      46.527   5.141  13.494  0.00  0.00    +0.000 A 
BRANCH   7  10
ATOM     10  C   UNL     1      44.014   3.231  11.616  0.00  0.00    +0.000 C 
ATOM     11  N   UNL     1      43.775   2.283  12.578  0.00  0.00    +0.000 N 
ATOM     12  O   UNL     1      43.417   3.219  10.546  0.00  0.00    +0.000 OA
ATOM     13  H   UNL     1      44.280   2.328  13.455  0.00  0.00    +0.000 HD
ATOM     14  H   UNL     1      43.093   1.563  12.405  0.00  0.00    +0.000 HD
ENDBRANCH   7  10
ENDBRANCH   2   4
BRANCH   2  15
ATOM     15  C   UNL     1      48.620   6.842  14.364  0.00  0.00    +0.000 C 
ATOM     16  C   UNL     1      48.622   7.476  15.549  0.00  0.00    +0.000 C 
BRANCH  16  17
ATOM     17  C   UNL     1      49.390   6.982  16.684  0.00  0.00    +0.000 A 
ATOM     18  C   UNL     1      49.640   7.780  17.793  0.00  0.00    +0.000 A 
ATOM     19  N   UNL     1      50.337   7.368  18.873  0.00  0.00    +0.000 NA
ATOM     20  C   UNL     1      50.808   6.096  18.839  0.00  0.00    +0.000 A 
ATOM     21  C   UNL     1      50.640   5.199  17.779  0.00  0.00    +0.000 A 
ATOM     22  C   UNL     1      49.906   5.684  16.685  0.00  0.00    +0.000 A 
BRANCH  21  23
ATOM     23  C   UNL     1      51.218   3.839  17.786  0.00  0.00    +0.000 A 
ATOM     24  C   UNL     1      50.466   2.718  17.383  0.00  0.00    +0.000 A 
ATOM     25  C   UNL     1      51.034   1.442  17.322  0.00  0.00    +0.000 A 
ATOM     26  C   UNL     1      52.366   1.253  17.677  0.00  0.00    +0.000 A 
ATOM     27  C   UNL     1      53.125   2.338  18.106  0.00  0.00    +0.000 A 
ATOM     28  C   UNL     1      52.556   3.614  18.161  0.00  0.00    +0.000 A 
ENDBRANCH  21  23
ENDBRANCH  16  17
ENDBRANCH   2  15
TORSDOF 5
ENDMDL
MODEL 8
REMARK VINA RESULT:    -6.818      4.735      7.166
REMARK INTER + INTRA:          -9.701
REMARK INTER:                  -8.841
REMARK INTRA:                  -0.860
REMARK UNBOUND:                -0.890
REMARK  Name = 
REMARK  7 active torsions:
REMARK  status: ('A' for Active; 'I' for Inactive)
REMARK    1  A    between atoms: C_1  and  C_2
REMARK    2  A    between atoms: C_2  and  C_3
REMARK    3  A    between atoms: C_2  and  C_4
REMARK    4  A    between atoms: C_2  and  C_18
REMARK    5  A    between atoms: C_5  and  C_6
REMARK    6  A    between atoms: C_10  and  C_11
REMARK    7  A    between atoms: C_21  and  C_22
REMARK                            x       y       z     vdW  Elec       q    Type
REMARK                         _______ _______ _______ _____ _____    ______ ____
ROOT
ATOM      1  C   UNL     1      48.081   6.771  14.299  0.00  0.00    +0.000 C 
ATOM      2  C   UNL     1      47.419   7.138  12.948  0.00  0.00    +0.000 C 
ATOM      3  C   UNL     1      46.537   8.380  13.215  0.00  0.00    +0.000 C 
ENDROOT
BRANCH   2   4
ATOM      4  C   UNL     1      46.563   5.997  12.371  0.00  0.00    +0.000 A 
ATOM      5  C   UNL     1      46.014   6.036  11.081  0.00  0.00    +0.000 A 
ATOM      6  C   UNL     1      45.189   5.011  10.627  0.00  0.00    +0.000 A 
ATOM      7  C   UNL     1      44.931   3.951  11.479  0.00  0.00    +0.000 A 
ATOM      8  N   UNL     1      45.446   3.848  12.733  0.00  0.00    +0.000 NA
ATOM      9  C   UNL     1      46.242   4.870  13.140  0.00  0.00    +0.000 A 
BRANCH   7  10
ATOM     10  C   UNL     1      44.021   2.857  11.019  0.00  0.00    +0.000 C 
ATOM     11  N   UNL     1      44.450   2.147   9.927  0.00  0.00    +0.000 N 
ATOM     12  O   UNL     1      42.963   2.592  11.576  0.00  0.00    +0.000 OA
ATOM     13  H   UNL     1      45.335   2.387   9.495  0.00  0.00    +0.000 HD
ATOM     14  H   UNL     1      43.887   1.389   9.576  0.00  0.00    +0.000 HD
ENDBRANCH   7  10
ENDBRANCH   2   4
BRANCH   2  15
ATOM     15  C   UNL     1      48.527   7.525  11.969  0.00  0.00    +0.000 C 
ATOM     16  C   UNL     1      49.743   7.968  12.334  0.00  0.00    +0.000 C 
BRANCH  16  17
ATOM     17  C   UNL     1      50.758   8.326  11.352  0.00  0.00    +0.000 A 
ATOM     18  C   UNL     1      51.080   9.652  11.093  0.00  0.00    +0.000 A 
ATOM     19  N   UNL     1      52.018  10.037  10.202  0.00  0.00    +0.000 NA
ATOM     20  C   UNL     1      52.660   9.045   9.535  0.00  0.00    +0.000 A 
ATOM     21  C   UNL     1      52.418   7.677   9.690  0.00  0.00    +0.000 A 
ATOM     22  C   UNL     1      51.434   7.338  10.633  0.00  0.00    +0.000 A 
BRANCH  21  23
ATOM     23  C   UNL     1      53.124   6.647   8.899  0.00  0.00    +0.000 A 
ATOM     24  C   UNL     1      54.240   5.961   9.414  0.00  0.00    +0.000 A 
ATOM     25  C   UNL     1      54.865   4.938   8.694  0.00  0.00    +0.000 A 
ATOM     26  C   UNL     1      54.394   4.586   7.433  0.00  0.00    +0.000 A 
ATOM     27  C   UNL     1      53.310   5.266   6.887  0.00  0.00    +0.000 A 
ATOM     28  C   UNL     1      52.685   6.285   7.612  0.00  0.00    +0.000 A 
ENDBRANCH  21  23
ENDBRANCH  16  17
ENDBRANCH   2  15
TORSDOF 5
ENDMDL
MODEL 9
REMARK VINA RESULT:    -6.797      3.936      8.452
REMARK INTER + INTRA:          -9.674
REMARK INTER:                  -8.665
REMARK INTRA:                  -1.010
REMARK UNBOUND:                -0.890
REMARK  Name = 
REMARK  7 active torsions:
REMARK  status: ('A' for Active; 'I' for Inactive)
REMARK    1  A    between atoms: C_1  and  C_2
REMARK    2  A    between atoms: C_2  and  C_3
REMARK    3  A    between atoms: C_2  and  C_4
REMARK    4  A    between atoms: C_2  and  C_18
REMARK    5  A    between atoms: C_5  and  C_6
REMARK    6  A    between atoms: C_10  and  C_11
REMARK    7  A    between atoms: C_21  and  C_22
REMARK                            x       y       z     vdW  Elec       q    Type
REMARK                         _______ _______ _______ _____ _____    ______ ____
ROOT
ATOM      1  C   UNL     1      49.918   6.889  18.004  0.00  0.00    +0.000 C 
ATOM      2  C   UNL     1      49.148   5.604  17.609  0.00  0.00    +0.000 C 
ATOM      3  C   UNL     1      48.037   5.415  18.668  0.00  0.00    +0.000 C 
ENDROOT
BRANCH   2   4
ATOM      4  C   UNL     1      50.048   4.357  17.560  0.00  0.00    +0.000 A 
ATOM      5  C   UNL     1      49.559   3.078  17.258  0.00  0.00    +0.000 A 
ATOM      6  C   UNL     1      50.399   1.968  17.293  0.00  0.00    +0.000 A 
ATOM      7  C   UNL     1      51.728   2.162  17.626  0.00  0.00    +0.000 A 
ATOM      8  N   UNL     1      52.265   3.378  17.912  0.00  0.00    +0.000 NA
ATOM      9  C   UNL     1      51.412   4.435  17.872  0.00  0.00    +0.000 A 
BRANCH   7  10
ATOM     10  C   UNL     1      52.637   0.976  17.699  0.00  0.00    +0.000 C 
ATOM     11  N   UNL     1      52.139  -0.114  18.366  0.00  0.00    +0.000 N 
ATOM     12  O   UNL     1      53.752   0.960  17.192  0.00  0.00    +0.000 OA
ATOM     13  H   UNL     1      51.209  -0.070  18.765  0.00  0.00    +0.000 HD
ATOM     14  H   UNL     1      52.699  -0.948  18.439  0.00  0.00    +0.000 HD
ENDBRANCH   7  10
ENDBRANCH   2   4
BRANCH   2  15
ATOM     15  C   UNL     1      48.493   5.846  16.249  0.00  0.00    +0.000 C 
ATOM     16  C   UNL     1      49.035   6.585  15.266  0.00  0.00    +0.000 C 
BRANCH  16  17
ATOM     17  C   UNL     1      48.358   6.784  13.991  0.00  0.00    +0.000 A 
ATOM     18  C   UNL     1      48.773   7.759  13.093  0.00  0.00    +0.000 A 
ATOM     19  N   UNL     1      48.187   7.977  11.897  0.00  0.00    +0.000 NA
ATOM     20  C   UNL     1      47.132   7.183  11.587  0.00  0.00    +0.000 A 
ATOM     21  C   UNL     1      46.606   6.180  12.408  0.00  0.00    +0.000 A 
ATOM     22  C   UNL     1      47.258   5.998  13.638  0.00  0.00    +0.000 A 
BRANCH  21  23
ATOM     23  C   UNL     1      45.424   5.378  12.028  0.00  0.00    +0.000 A 
ATOM     24  C   UNL     1      45.345   4.002  12.317  0.00  0.00    +0.000 A 
ATOM     25  C   UNL     1      44.198   3.258  12.023  0.00  0.00    +0.000 A 
ATOM     26  C   UNL     1      43.106   3.872  11.417  0.00  0.00    +0.000 A 
ATOM     27  C   UNL     1      43.167   5.224  11.095  0.00  0.00    +0.000 A 
ATOM     28  C   UNL     1      44.313   5.966  11.396  0.00  0.00    +0.000 A 
ENDBRANCH  21  23
ENDBRANCH  16  17
ENDBRANCH   2  15
TORSDOF 5
ENDMDL
