MODEL 1
REMARK VINA RESULT:    -8.749      0.000      0.000
REMARK INTER + INTRA:         -11.911
REMARK INTER:                 -11.306
REMARK INTRA:                  -0.605
REMARK UNBOUND:                -0.605
REMARK  Name = 
REMARK  5 active torsions:
REMARK  status: ('A' for Active; 'I' for Inactive)
REMARK    1  A    between atoms: C_2  and  C_4
REMARK    2  A    between atoms: C_7  and  N_8
REMARK    3  A    between atoms: N_8  and  C_9
REMARK    4  A    between atoms: C_9  and  C_10
REMARK    5  A    between atoms: C_14  and  C_15
REMARK                            x       y       z     vdW  Elec       q    Type
REMARK                         _______ _______ _______ _____ _____    ______ ____
ROOT
ATOM      1  C   UNL     1      43.466   4.491  11.066  0.00  0.00    +0.000 C 
ENDROOT
BRANCH   1   2
ATOM      2  C   UNL     1      44.714   4.790  11.857  0.00  0.00    +0.000 A 
ATOM      3  C   UNL     1      45.158   3.954  12.867  0.00  0.00    +0.000 A 
ATOM      4  N   UNL     1      46.247   4.208  13.624  0.00  0.00    +0.000 NA
ATOM      5  C   UNL     1      46.918   5.359  13.363  0.00  0.00    +0.000 A 
ATOM      6  C   UNL     1      46.582   6.286  12.374  0.00  0.00    +0.000 A 
ATOM      7  C   UNL     1      45.446   5.964  11.619  0.00  0.00    +0.000 A 
BRANCH   6   8
ATOM      8  C   UNL     1      47.361   7.522  12.137  0.00  0.00    +0.000 A 
ATOM      9  C   UNL     1      46.783   8.798  12.288  0.00  0.00    +0.000 A 
ATOM     10  C   UNL     1      47.518   9.971  12.061  0.00  0.00    +0.000 A 
ATOM     11  C   UNL     1      48.854   9.891  11.688  0.00  0.00    +0.000 A 
ATOM     12  C   UNL     1      49.441   8.645  11.542  0.00  0.00    +0.000 A 
ATOM     13  F   UNL     1      50.731   8.561  11.188  0.00  0.00    +0.000 F 
ATOM     14  C   UNL     1      48.714   7.475  11.755  0.00  0.00    +0.000 A 
ENDBRANCH   6   8
ENDBRANCH   1   2
BRANCH   1  15
ATOM     15  N   UNL     1      43.709   4.837   9.673  0.00  0.00    +0.000 N 
ATOM     16  H   UNL     1      43.955   5.813   9.551  0.00  0.00    +0.000 HD
BRANCH  15  20
ATOM     17  C   UNL     1      46.334   2.280   7.830  0.00  0.00    +0.000 A 
ATOM     18  C   UNL     1      46.350   3.634   7.541  0.00  0.00    +0.000 A 
ATOM     19  N   UNL     1      45.470   4.509   8.097  0.00  0.00    +0.000 NA
ATOM     20  C   UNL     1      44.568   3.996   8.961  0.00  0.00    +0.000 A 
ATOM     21  C   UNL     1      44.566   2.619   9.231  0.00  0.00    +0.000 A 
ATOM     22  N   UNL     1      45.426   1.726   8.679  0.00  0.00    +0.000 NA
BRANCH  17  24
ATOM     23  N   UNL     1      48.380   2.003   6.570  0.00  0.00    +0.000 N 
ATOM     24  C   UNL     1      47.351   1.380   7.223  0.00  0.00    +0.000 C 
ATOM     25  O   UNL     1      47.275   0.160   7.298  0.00  0.00    +0.000 OA
ATOM     26  H   UNL     1      49.094   1.449   6.120  0.00  0.00    +0.000 HD
ATOM     27  H   UNL     1      48.405   3.016   6.514  0.00  0.00    +0.000 HD
ENDBRANCH  17  24
ENDBRANCH  15  20
ENDBRANCH   1  15
TORSDOF 5
ENDMDL
MODEL 2
REMARK VINA RESULT:    -8.668      3.930      7.246
REMARK INTER + INTRA:         -11.806
REMARK INTER:                 -11.379
REMARK INTRA:                  -0.427
REMARK UNBOUND:                -0.605
REMARK  Name = 
REMARK  5 active torsions:
REMARK  status: ('A' for Active; 'I' for Inactive)
REMARK    1  A    between atoms: C_2  and  C_4
REMARK    2  A    between atoms: C_7  and  N_8
REMARK    3  A    between atoms: N_8  and  C_9
REMARK    4  A    between atoms: C_9  and  C_10
REMARK    5  A    between atoms: C_14  and  C_15
REMARK                            x       y       z     vdW  Elec       q    Type
REMARK                         _______ _______ _______ _____ _____    ______ ____
ROOT
ATOM      1  C   UNL     1      46.057   7.048  11.886  0.00  0.00    +0.000 C 
ENDROOT
BRANCH   1   2
ATOM      2  C   UNL     1      45.245   6.069  11.078  0.00  0.00    +0.000 A 
ATOM      3  C   UNL     1      43.878   5.932  11.251  0.00  0.00    +0.000 A 
ATOM      4  N   UNL     1      43.124   5.040  10.576  0.00  0.00    +0.000 NA
ATOM      5  C   UNL     1      43.771   4.238   9.691  0.00  0.00    +0.000 A 
ATOM      6  C   UNL     1      45.140   4.272   9.417  0.00  0.00    +0.000 A 
ATOM      7  C   UNL     1      45.868   5.223  10.146  0.00  0.00    +0.000 A 
BRANCH   6   8
ATOM      8  C   UNL     1      45.783   3.372   8.434  0.00  0.00    +0.000 A 
ATOM      9  C   UNL     1      46.366   3.869   7.251  0.00  0.00    +0.000 A 
ATOM     10  C   UNL     1      46.973   3.019   6.316  0.00  0.00    +0.000 A 
ATOM     11  C   UNL     1      47.020   1.650   6.552  0.00  0.00    +0.000 A 
ATOM     12  C   UNL     1      46.459   1.144   7.713  0.00  0.00    +0.000 A 
ATOM     13  F   UNL     1      46.507  -0.174   7.948  0.00  0.00    +0.000 F 
ATOM     14  C   UNL     1      45.845   1.983   8.642  0.00  0.00    +0.000 A 
ENDBRANCH   6   8
ENDBRANCH   1   2
BRANCH   1  15
ATOM     15  N   UNL     1      47.339   6.435  12.202  0.00  0.00    +0.000 N 
ATOM     16  H   UNL     1      48.119   7.069  12.059  0.00  0.00    +0.000 HD
BRANCH  15  20
ATOM     17  C   UNL     1      47.334   4.551  15.846  0.00  0.00    +0.000 A 
ATOM     18  C   UNL     1      48.207   5.596  15.595  0.00  0.00    +0.000 A 
ATOM     19  N   UNL     1      48.271   6.219  14.388  0.00  0.00    +0.000 NA
ATOM     20  C   UNL     1      47.431   5.775  13.430  0.00  0.00    +0.000 A 
ATOM     21  C   UNL     1      46.560   4.709  13.705  0.00  0.00    +0.000 A 
ATOM     22  N   UNL     1      46.488   4.064  14.898  0.00  0.00    +0.000 NA
BRANCH  17  24
ATOM     23  N   UNL     1      48.005   4.577  18.169  0.00  0.00    +0.000 N 
ATOM     24  C   UNL     1      47.280   3.938  17.200  0.00  0.00    +0.000 C 
ATOM     25  O   UNL     1      46.633   2.926  17.437  0.00  0.00    +0.000 OA
ATOM     26  H   UNL     1      48.026   4.202  19.106  0.00  0.00    +0.000 HD
ATOM     27  H   UNL     1      48.542   5.406  17.937  0.00  0.00    +0.000 HD
ENDBRANCH  17  24
ENDBRANCH  15  20
ENDBRANCH   1  15
TORSDOF 5
ENDMDL
MODEL 3
REMARK VINA RESULT:    -8.534      2.788      3.883
REMARK INTER + INTRA:         -11.633
REMARK INTER:                 -11.069
REMARK INTRA:                  -0.565
REMARK UNBOUND:                -0.605
REMARK  Name = 
REMARK  5 active torsions:
REMARK  status: ('A' for Active; 'I' for Inactive)
REMARK    1  A    between atoms: C_2  and  C_4
REMARK    2  A    between atoms: C_7  and  N_8
REMARK    3  A    between atoms: N_8  and  C_9
REMARK    4  A    between atoms: C_9  and  C_10
REMARK    5  A    between atoms: C_14  and  C_15
REMARK                            x       y       z     vdW  Elec       q    Type
REMARK                         _______ _______ _______ _____ _____    ______ ____
ROOT
ATOM      1  C   UNL     1      44.010   4.778  11.313  0.00  0.00    +0.000 C 
ENDROOT
BRANCH   1   2
ATOM      2  C   UNL     1      45.239   5.439  11.882  0.00  0.00    +0.000 A 
ATOM      3  C   UNL     1      45.938   6.411  11.185  0.00  0.00    +0.000 A 
ATOM      4  N   UNL     1      47.064   6.996  11.643  0.00  0.00    +0.000 NA
ATOM      5  C   UNL     1      47.519   6.583  12.854  0.00  0.00    +0.000 A 
ATOM      6  C   UNL     1      46.913   5.618  13.661  0.00  0.00    +0.000 A 
ATOM      7  C   UNL     1      45.745   5.051  13.133  0.00  0.00    +0.000 A 
BRANCH   6   8
ATOM      8  C   UNL     1      47.459   5.216  14.977  0.00  0.00    +0.000 A 
ATOM      9  C   UNL     1      48.490   5.946  15.601  0.00  0.00    +0.000 A 
ATOM     10  C   UNL     1      49.011   5.566  16.846  0.00  0.00    +0.000 A 
ATOM     11  C   UNL     1      48.502   4.450  17.500  0.00  0.00    +0.000 A 
ATOM     12  C   UNL     1      47.483   3.724  16.904  0.00  0.00    +0.000 A 
ATOM     13  F   UNL     1      46.985   2.651  17.532  0.00  0.00    +0.000 F 
ATOM     14  C   UNL     1      46.968   4.090  15.662  0.00  0.00    +0.000 A 
ENDBRANCH   6   8
ENDBRANCH   1   2
BRANCH   1  15
ATOM     15  N   UNL     1      44.025   4.940   9.867  0.00  0.00    +0.000 N 
ATOM     16  H   UNL     1      44.279   5.881   9.584  0.00  0.00    +0.000 HD
BRANCH  15  20
ATOM     17  C   UNL     1      46.219   2.046   7.960  0.00  0.00    +0.000 A 
ATOM     18  C   UNL     1      46.220   3.351   7.495  0.00  0.00    +0.000 A 
ATOM     19  N   UNL     1      45.474   4.331   8.072  0.00  0.00    +0.000 NA
ATOM     20  C   UNL     1      44.725   3.976   9.137  0.00  0.00    +0.000 A 
ATOM     21  C   UNL     1      44.734   2.646   9.585  0.00  0.00    +0.000 A 
ATOM     22  N   UNL     1      45.460   1.649   9.017  0.00  0.00    +0.000 NA
BRANCH  17  24
ATOM     23  N   UNL     1      46.790  -0.276   7.598  0.00  0.00    +0.000 N 
ATOM     24  C   UNL     1      47.090   1.028   7.314  0.00  0.00    +0.000 C 
ATOM     25  O   UNL     1      48.020   1.334   6.578  0.00  0.00    +0.000 OA
ATOM     26  H   UNL     1      47.355  -1.016   7.206  0.00  0.00    +0.000 HD
ATOM     27  H   UNL     1      46.022  -0.495   8.224  0.00  0.00    +0.000 HD
ENDBRANCH  17  24
ENDBRANCH  15  20
ENDBRANCH   1  15
TORSDOF 5
ENDMDL
MODEL 4
REMARK VINA RESULT:    -8.448      3.853      6.784
REMARK INTER + INTRA:         -11.522
REMARK INTER:                 -10.833
REMARK INTRA:                  -0.689
REMARK UNBOUND:                -0.605
REMARK  Name = 
REMARK  5 active torsions:
REMARK  status: ('A' for Active; 'I' for Inactive)
REMARK    1  A    between atoms: C_2  and  C_4
REMARK    2  A    between atoms: C_7  and  N_8
REMARK    3  A    between atoms: N_8  and  C_9
REMARK    4  A    between atoms: C_9  and  C_10
REMARK    5  A    between atoms: C_14  and  C_15
REMARK                            x       y       z     vdW  Elec       q    Type
REMARK                         _______ _______ _______ _____ _____    ______ ____
ROOT
ATOM      1  C   UNL     1      43.630   6.425  11.385  0.00  0.00    +0.000 C 
ENDROOT
BRANCH   1   2
ATOM      2  C   UNL     1      43.724   4.965  11.024  0.00  0.00    +0.000 A 
ATOM      3  C   UNL     1      43.048   3.989  11.736  0.00  0.00    +0.000 A 
ATOM      4  N   UNL     1      43.139   2.669  11.469  0.00  0.00    +0.000 NA
ATOM      5  C   UNL     1      43.954   2.307  10.444  0.00  0.00    +0.000 A 
ATOM      6  C   UNL     1      44.689   3.186   9.645  0.00  0.00    +0.000 A 
ATOM      7  C   UNL     1      44.548   4.542   9.968  0.00  0.00    +0.000 A 
BRANCH   6   8
ATOM      8  C   UNL     1      45.556   2.726   8.537  0.00  0.00    +0.000 A 
ATOM      9  C   UNL     1      46.025   3.615   7.550  0.00  0.00    +0.000 A 
ATOM     10  C   UNL     1      46.845   3.182   6.498  0.00  0.00    +0.000 A 
ATOM     11  C   UNL     1      47.222   1.846   6.418  0.00  0.00    +0.000 A 
ATOM     12  C   UNL     1      46.777   0.959   7.384  0.00  0.00    +0.000 A 
ATOM     13  F   UNL     1      47.143  -0.328   7.315  0.00  0.00    +0.000 F 
ATOM     14  C   UNL     1      45.954   1.381   8.427  0.00  0.00    +0.000 A 
ENDBRANCH   6   8
ENDBRANCH   1   2
BRANCH   1  15
ATOM     15  N   UNL     1      44.178   6.607  12.721  0.00  0.00    +0.000 N 
ATOM     16  H   UNL     1      43.876   5.885  13.367  0.00  0.00    +0.000 HD
BRANCH  15  20
ATOM     17  C   UNL     1      48.210   7.157  13.234  0.00  0.00    +0.000 A 
ATOM     18  C   UNL     1      47.386   8.229  12.931  0.00  0.00    +0.000 A 
ATOM     19  N   UNL     1      46.052   8.083  12.711  0.00  0.00    +0.000 NA
ATOM     20  C   UNL     1      45.554   6.833  12.807  0.00  0.00    +0.000 A 
ATOM     21  C   UNL     1      46.410   5.762  13.108  0.00  0.00    +0.000 A 
ATOM     22  N   UNL     1      47.745   5.881  13.318  0.00  0.00    +0.000 NA
BRANCH  17  24
ATOM     23  N   UNL     1      50.457   7.489  12.404  0.00  0.00    +0.000 N 
ATOM     24  C   UNL     1      49.654   7.387  13.507  0.00  0.00    +0.000 C 
ATOM     25  O   UNL     1      50.100   7.475  14.644  0.00  0.00    +0.000 OA
ATOM     26  H   UNL     1      51.451   7.627  12.521  0.00  0.00    +0.000 HD
ATOM     27  H   UNL     1      50.058   7.397  11.476  0.00  0.00    +0.000 HD
ENDBRANCH  17  24
ENDBRANCH  15  20
ENDBRANCH   1  15
TORSDOF 5
ENDMDL
MODEL 5
REMARK VINA RESULT:    -8.160      4.027      7.272
REMARK INTER + INTRA:         -11.150
REMARK INTER:                 -10.596
REMARK INTRA:                  -0.554
REMARK UNBOUND:                -0.605
REMARK  Name = 
REMARK  5 active torsions:
REMARK  status: ('A' for Active; 'I' for Inactive)
REMARK    1  A    between atoms: C_2  and  C_4
REMARK    2  A    between atoms: C_7  and  N_8
REMARK    3  A    between atoms: N_8  and  C_9
REMARK    4  A    between atoms: C_9  and  C_10
REMARK    5  A    between atoms: C_14  and  C_15
REMARK                            x       y       z     vdW  Elec       q    Type
REMARK                         _______ _______ _______ _____ _____    ______ ____
ROOT
ATOM      1  C   UNL     1      44.856   6.724  11.941  0.00  0.00    +0.000 C 
ENDROOT
BRANCH   1   2
ATOM      2  C   UNL     1      44.463   5.391  11.360  0.00  0.00    +0.000 A 
ATOM      3  C   UNL     1      43.406   4.654  11.866  0.00  0.00    +0.000 A 
ATOM      4  N   UNL     1      43.050   3.439  11.399  0.00  0.00    +0.000 NA
ATOM      5  C   UNL     1      43.794   2.932  10.381  0.00  0.00    +0.000 A 
ATOM      6  C   UNL     1      44.880   3.569   9.777  0.00  0.00    +0.000 A 
ATOM      7  C   UNL     1      45.197   4.829  10.303  0.00  0.00    +0.000 A 
BRANCH   6   8
ATOM      8  C   UNL     1      45.646   2.963   8.665  0.00  0.00    +0.000 A 
ATOM      9  C   UNL     1      46.138   3.742   7.599  0.00  0.00    +0.000 A 
ATOM     10  C   UNL     1      46.862   3.171   6.542  0.00  0.00    +0.000 A 
ATOM     11  C   UNL     1      47.119   1.805   6.537  0.00  0.00    +0.000 A 
ATOM     12  C   UNL     1      46.650   1.024   7.581  0.00  0.00    +0.000 A 
ATOM     13  F   UNL     1      46.900  -0.292   7.584  0.00  0.00    +0.000 F 
ATOM     14  C   UNL     1      45.921   1.584   8.629  0.00  0.00    +0.000 A 
ENDBRANCH   6   8
ENDBRANCH   1   2
BRANCH   1  15
ATOM     15  N   UNL     1      46.294   6.892  11.783  0.00  0.00    +0.000 N 
ATOM     16  H   UNL     1      46.534   7.757  11.308  0.00  0.00    +0.000 HD
BRANCH  15  20
ATOM     17  C   UNL     1      48.355   6.231  15.267  0.00  0.00    +0.000 A 
ATOM     18  C   UNL     1      48.374   7.478  14.663  0.00  0.00    +0.000 A 
ATOM     19  N   UNL     1      47.739   7.728  13.487  0.00  0.00    +0.000 NA
ATOM     20  C   UNL     1      47.075   6.697  12.924  0.00  0.00    +0.000 A 
ATOM     21  C   UNL     1      47.078   5.440  13.550  0.00  0.00    +0.000 A 
ATOM     22  N   UNL     1      47.714   5.165  14.717  0.00  0.00    +0.000 NA
BRANCH  17  24
ATOM     23  N   UNL     1      48.324   6.433  17.676  0.00  0.00    +0.000 N 
ATOM     24  C   UNL     1      49.032   6.031  16.576  0.00  0.00    +0.000 C 
ATOM     25  O   UNL     1      50.151   5.543  16.668  0.00  0.00    +0.000 OA
ATOM     26  H   UNL     1      48.734   6.342  18.595  0.00  0.00    +0.000 HD
ATOM     27  H   UNL     1      47.404   6.847  17.564  0.00  0.00    +0.000 HD
ENDBRANCH  17  24
ENDBRANCH  15  20
ENDBRANCH   1  15
TORSDOF 5
ENDMDL
MODEL 6
REMARK VINA RESULT:    -8.001      4.207      7.320
REMARK INTER + INTRA:         -10.945
REMARK INTER:                 -10.369
REMARK INTRA:                  -0.576
REMARK UNBOUND:                -0.605
REMARK  Name = 
REMARK  5 active torsions:
REMARK  status: ('A' for Active; 'I' for Inactive)
REMARK    1  A    between atoms: C_2  and  C_4
REMARK    2  A    between atoms: C_7  and  N_8
REMARK    3  A    between atoms: N_8  and  C_9
REMARK    4  A    between atoms: C_9  and  C_10
REMARK    5  A    between atoms: C_14  and  C_15
REMARK                            x       y       z     vdW  Elec       q    Type
REMARK                         _______ _______ _______ _____ _____    ______ ____
ROOT
ATOM      1  C   UNL     1      44.765   5.971  12.592  0.00  0.00    +0.000 C 
ENDROOT
BRANCH   1   2
ATOM      2  C   UNL     1      44.420   4.735  11.802  0.00  0.00    +0.000 A 
ATOM      3  C   UNL     1      43.429   3.857  12.210  0.00  0.00    +0.000 A 
ATOM      4  N   UNL     1      43.120   2.720  11.552  0.00  0.00    +0.000 NA
ATOM      5  C   UNL     1      43.843   2.443  10.436  0.00  0.00    +0.000 A 
ATOM      6  C   UNL     1      44.864   3.240   9.914  0.00  0.00    +0.000 A 
ATOM      7  C   UNL     1      45.135   4.409  10.639  0.00  0.00    +0.000 A 
BRANCH   6   8
ATOM      8  C   UNL     1      45.612   2.882   8.687  0.00  0.00    +0.000 A 
ATOM      9  C   UNL     1      45.978   3.857   7.737  0.00  0.00    +0.000 A 
ATOM     10  C   UNL     1      46.683   3.520   6.573  0.00  0.00    +0.000 A 
ATOM     11  C   UNL     1      47.048   2.199   6.340  0.00  0.00    +0.000 A 
ATOM     12  C   UNL     1      46.703   1.229   7.267  0.00  0.00    +0.000 A 
ATOM     13  F   UNL     1      47.057  -0.044   7.051  0.00  0.00    +0.000 F 
ATOM     14  C   UNL     1      45.993   1.555   8.421  0.00  0.00    +0.000 A 
ENDBRANCH   6   8
ENDBRANCH   1   2
BRANCH   1  15
ATOM     15  N   UNL     1      46.214   6.075  12.679  0.00  0.00    +0.000 N 
ATOM     16  H   UNL     1      46.555   6.992  12.411  0.00  0.00    +0.000 HD
BRANCH  15  20
ATOM     17  C   UNL     1      48.181   4.740  16.022  0.00  0.00    +0.000 A 
ATOM     18  C   UNL     1      47.016   4.123  15.597  0.00  0.00    +0.000 A 
ATOM     19  N   UNL     1      46.310   4.560  14.520  0.00  0.00    +0.000 NA
ATOM     20  C   UNL     1      46.802   5.634  13.867  0.00  0.00    +0.000 A 
ATOM     21  C   UNL     1      47.980   6.247  14.321  0.00  0.00    +0.000 A 
ATOM     22  N   UNL     1      48.693   5.836  15.401  0.00  0.00    +0.000 NA
BRANCH  17  24
ATOM     23  N   UNL     1      48.195   3.448  18.067  0.00  0.00    +0.000 N 
ATOM     24  C   UNL     1      48.931   4.188  17.182  0.00  0.00    +0.000 C 
ATOM     25  O   UNL     1      50.130   4.383  17.340  0.00  0.00    +0.000 OA
ATOM     26  H   UNL     1      48.641   3.061  18.886  0.00  0.00    +0.000 HD
ATOM     27  H   UNL     1      47.201   3.318  17.914  0.00  0.00    +0.000 HD
ENDBRANCH  17  24
ENDBRANCH  15  20
ENDBRANCH   1  15
TORSDOF 5
ENDMDL
MODEL 7
REMARK VINA RESULT:    -6.822      4.186      7.557
REMARK INTER + INTRA:          -9.421
REMARK INTER:                  -8.831
REMARK INTRA:                  -0.590
REMARK UNBOUND:                -0.605
REMARK  Name = 
REMARK  5 active torsions:
REMARK  status: ('A' for Active; 'I' for Inactive)
REMARK    1  A    between atoms: C_2  and  C_4
REMARK    2  A    between atoms: C_7  and  N_8
REMARK    3  A    between atoms: N_8  and  C_9
REMARK    4  A    between atoms: C_9  and  C_10
REMARK    5  A    between atoms: C_14  and  C_15
REMARK                            x       y       z     vdW  Elec       q    Type
REMARK                         _______ _______ _______ _____ _____    ______ ____
ROOT
ATOM      1  C   UNL     1      48.237   7.958  12.538  0.00  0.00    +0.000 C 
ENDROOT
BRANCH   1   2
ATOM      2  C   UNL     1      46.862   7.526  12.098  0.00  0.00    +0.000 A 
ATOM      3  C   UNL     1      45.720   8.201  12.493  0.00  0.00    +0.000 A 
ATOM      4  N   UNL     1      44.471   7.821  12.153  0.00  0.00    +0.000 NA
ATOM      5  C   UNL     1      44.358   6.704  11.388  0.00  0.00    +0.000 A 
ATOM      6  C   UNL     1      45.423   5.933  10.918  0.00  0.00    +0.000 A 
ATOM      7  C   UNL     1      46.695   6.382  11.300  0.00  0.00    +0.000 A 
BRANCH   6   8
ATOM      8  C   UNL     1      45.232   4.728  10.081  0.00  0.00    +0.000 A 
ATOM      9  C   UNL     1      44.618   3.566  10.591  0.00  0.00    +0.000 A 
ATOM     10  C   UNL     1      44.438   2.422   9.801  0.00  0.00    +0.000 A 
ATOM     11  C   UNL     1      44.860   2.420   8.477  0.00  0.00    +0.000 A 
ATOM     12  C   UNL     1      45.458   3.555   7.956  0.00  0.00    +0.000 A 
ATOM     13  F   UNL     1      45.861   3.561   6.679  0.00  0.00    +0.000 F 
ATOM     14  C   UNL     1      45.650   4.693   8.739  0.00  0.00    +0.000 A 
ENDBRANCH   6   8
ENDBRANCH   1   2
BRANCH   1  15
ATOM     15  N   UNL     1      48.939   6.799  13.067  0.00  0.00    +0.000 N 
ATOM     16  H   UNL     1      49.948   6.908  13.037  0.00  0.00    +0.000 HD
BRANCH  15  20
ATOM     17  C   UNL     1      47.950   5.384  16.788  0.00  0.00    +0.000 A 
ATOM     18  C   UNL     1      47.543   4.711  15.648  0.00  0.00    +0.000 A 
ATOM     19  N   UNL     1      47.813   5.169  14.396  0.00  0.00    +0.000 NA
ATOM     20  C   UNL     1      48.510   6.321  14.308  0.00  0.00    +0.000 A 
ATOM     21  C   UNL     1      48.905   6.988  15.477  0.00  0.00    +0.000 A 
ATOM     22  N   UNL     1      48.636   6.557  16.736  0.00  0.00    +0.000 NA
BRANCH  17  24
ATOM     23  N   UNL     1      46.696   5.452  18.855  0.00  0.00    +0.000 N 
ATOM     24  C   UNL     1      47.662   4.809  18.130  0.00  0.00    +0.000 C 
ATOM     25  O   UNL     1      48.253   3.828  18.563  0.00  0.00    +0.000 OA
ATOM     26  H   UNL     1      46.466   5.124  19.782  0.00  0.00    +0.000 HD
ATOM     27  H   UNL     1      46.236   6.272  18.473  0.00  0.00    +0.000 HD
ENDBRANCH  17  24
ENDBRANCH  15  20
ENDBRANCH   1  15
TORSDOF 5
ENDMDL
MODEL 8
REMARK VINA RESULT:    -6.677      4.813      8.069
REMARK INTER + INTRA:          -9.233
REMARK INTER:                  -8.602
REMARK INTRA:                  -0.632
REMARK UNBOUND:                -0.605
REMARK  Name = 
REMARK  5 active torsions:
REMARK  status: ('A' for Active; 'I' for Inactive)
REMARK    1  A    between atoms: C_2  and  C_4
REMARK    2  A    between atoms: C_7  and  N_8
REMARK    3  A    between atoms: N_8  and  C_9
REMARK    4  A    between atoms: C_9  and  C_10
REMARK    5  A    between atoms: C_14  and  C_15
REMARK                            x       y       z     vdW  Elec       q    Type
REMARK                         _______ _______ _______ _____ _____    ______ ____
ROOT
ATOM      1  C   UNL     1      47.832   8.049  14.048  0.00  0.00    +0.000 C 
ENDROOT
BRANCH   1   2
ATOM      2  C   UNL     1      46.709   7.967  13.046  0.00  0.00    +0.000 A 
ATOM      3  C   UNL     1      45.903   9.055  12.758  0.00  0.00    +0.000 A 
ATOM      4  N   UNL     1      44.864   9.009  11.898  0.00  0.00    +0.000 NA
ATOM      5  C   UNL     1      44.613   7.813  11.304  0.00  0.00    +0.000 A 
ATOM      6  C   UNL     1      45.348   6.642  11.501  0.00  0.00    +0.000 A 
ATOM      7  C   UNL     1      46.416   6.754  12.401  0.00  0.00    +0.000 A 
BRANCH   6   8
ATOM      8  C   UNL     1      45.025   5.369  10.817  0.00  0.00    +0.000 A 
ATOM      9  C   UNL     1      45.491   5.094   9.515  0.00  0.00    +0.000 A 
ATOM     10  C   UNL     1      45.184   3.891   8.863  0.00  0.00    +0.000 A 
ATOM     11  C   UNL     1      44.412   2.931   9.506  0.00  0.00    +0.000 A 
ATOM     12  C   UNL     1      43.951   3.181  10.788  0.00  0.00    +0.000 A 
ATOM     13  F   UNL     1      43.211   2.257  11.415  0.00  0.00    +0.000 F 
ATOM     14  C   UNL     1      44.243   4.379  11.438  0.00  0.00    +0.000 A 
ENDBRANCH   6   8
ENDBRANCH   1   2
BRANCH   1  15
ATOM     15  N   UNL     1      48.469   6.743  14.138  0.00  0.00    +0.000 N 
ATOM     16  H   UNL     1      49.386   6.728  13.705  0.00  0.00    +0.000 HD
BRANCH  15  20
ATOM     17  C   UNL     1      48.791   4.985  17.830  0.00  0.00    +0.000 A 
ATOM     18  C   UNL     1      48.110   4.350  16.804  0.00  0.00    +0.000 A 
ATOM     19  N   UNL     1      47.944   4.916  15.579  0.00  0.00    +0.000 NA
ATOM     20  C   UNL     1      48.482   6.140  15.398  0.00  0.00    +0.000 A 
ATOM     21  C   UNL     1      49.161   6.768  16.454  0.00  0.00    +0.000 A 
ATOM     22  N   UNL     1      49.328   6.227  17.688  0.00  0.00    +0.000 NA
BRANCH  17  24
ATOM     23  N   UNL     1      48.229   3.165  19.320  0.00  0.00    +0.000 N 
ATOM     24  C   UNL     1      48.978   4.295  19.134  0.00  0.00    +0.000 C 
ATOM     25  O   UNL     1      49.748   4.711  19.991  0.00  0.00    +0.000 OA
ATOM     26  H   UNL     1      48.295   2.660  20.192  0.00  0.00    +0.000 HD
ATOM     27  H   UNL     1      47.589   2.856  18.595  0.00  0.00    +0.000 HD
ENDBRANCH  17  24
ENDBRANCH  15  20
ENDBRANCH   1  15
TORSDOF 5
ENDMDL
MODEL 9
REMARK VINA RESULT:    -6.427      4.270      6.154
REMARK INTER + INTRA:          -8.911
REMARK INTER:                  -8.236
REMARK INTRA:                  -0.675
REMARK UNBOUND:                -0.605
REMARK  Name = 
REMARK  5 active torsions:
REMARK  status: ('A' for Active; 'I' for Inactive)
REMARK    1  A    between atoms: C_2  and  C_4
REMARK    2  A    between atoms: C_7  and  N_8
REMARK    3  A    between atoms: N_8  and  C_9
REMARK    4  A    between atoms: C_9  and  C_10
REMARK    5  A    between atoms: C_14  and  C_15
REMARK                            x       y       z     vdW  Elec       q    Type
REMARK                         _______ _______ _______ _____ _____    ______ ____
ROOT
ATOM      1  C   UNL     1      47.824   7.561  12.663  0.00  0.00    +0.000 C 
ENDROOT
BRANCH   1   2
ATOM      2  C   UNL     1      48.840   7.433  13.768  0.00  0.00    +0.000 A 
ATOM      3  C   UNL     1      50.084   8.037  13.694  0.00  0.00    +0.000 A 
ATOM      4  N   UNL     1      51.034   7.912  14.644  0.00  0.00    +0.000 NA
ATOM      5  C   UNL     1      50.728   7.137  15.717  0.00  0.00    +0.000 A 
ATOM      6  C   UNL     1      49.515   6.476  15.919  0.00  0.00    +0.000 A 
ATOM      7  C   UNL     1      48.567   6.648  14.901  0.00  0.00    +0.000 A 
BRANCH   6   8
ATOM      8  C   UNL     1      49.243   5.649  17.117  0.00  0.00    +0.000 A 
ATOM      9  C   UNL     1      49.743   6.004  18.386  0.00  0.00    +0.000 A 
ATOM     10  C   UNL     1      49.489   5.221  19.521  0.00  0.00    +0.000 A 
ATOM     11  C   UNL     1      48.719   4.069  19.412  0.00  0.00    +0.000 A 
ATOM     12  C   UNL     1      48.213   3.709  18.173  0.00  0.00    +0.000 A 
ATOM     13  F   UNL     1      47.465   2.603  18.064  0.00  0.00    +0.000 F 
ATOM     14  C   UNL     1      48.470   4.477  17.039  0.00  0.00    +0.000 A 
ENDBRANCH   6   8
ENDBRANCH   1   2
BRANCH   1  15
ATOM     15  N   UNL     1      46.501   7.325  13.222  0.00  0.00    +0.000 N 
ATOM     16  H   UNL     1      45.946   8.174  13.279  0.00  0.00    +0.000 HD
BRANCH  15  20
ATOM     17  C   UNL     1      44.566   4.049  11.689  0.00  0.00    +0.000 A 
ATOM     18  C   UNL     1      44.835   5.147  10.888  0.00  0.00    +0.000 A 
ATOM     19  N   UNL     1      45.436   6.269  11.367  0.00  0.00    +0.000 NA
ATOM     20  C   UNL     1      45.770   6.268  12.674  0.00  0.00    +0.000 A 
ATOM     21  C   UNL     1      45.480   5.148  13.468  0.00  0.00    +0.000 A 
ATOM     22  N   UNL     1      44.870   4.023  13.015  0.00  0.00    +0.000 NA
BRANCH  17  24
ATOM     23  N   UNL     1      44.573   2.328   9.991  0.00  0.00    +0.000 N 
ATOM     24  C   UNL     1      43.946   2.833  11.097  0.00  0.00    +0.000 C 
ATOM     25  O   UNL     1      42.938   2.318  11.565  0.00  0.00    +0.000 OA
ATOM     26  H   UNL     1      44.192   1.514   9.530  0.00  0.00    +0.000 HD
ATOM     27  H   UNL     1      45.398   2.788   9.621  0.00  0.00    +0.000 HD
ENDBRANCH  17  24
ENDBRANCH  15  20
ENDBRANCH   1  15
TORSDOF 5
ENDMDL
