MODEL 1
REMARK VINA RESULT:    -8.404      0.000      0.000
REMARK INTER + INTRA:         -11.451
REMARK INTER:                 -10.861
REMARK INTRA:                  -0.590
REMARK UNBOUND:                -0.590
REMARK  Name = 
REMARK  5 active torsions:
REMARK  status: ('A' for Active; 'I' for Inactive)
REMARK    1  A    between atoms: C_2  and  C_18
REMARK    2  A    between atoms: N_3  and  C_4
REMARK    3  A    between atoms: C_4  and  C_5
REMARK    4  A    between atoms: C_8  and  C_9
REMARK    5  A    between atoms: C_9  and  C_10
REMARK                            x       y       z     vdW  Elec       q    Type
REMARK                         _______ _______ _______ _____ _____    ______ ____
ROOT
ATOM      1  O   UNL     1      46.942   3.219  14.048  0.00  0.00    +0.000 OA
ATOM      2  C   UNL     1      46.794   4.417  14.268  0.00  0.00    +0.000 C 
ATOM      3  N   UNL     1      45.685   5.139  13.893  0.00  0.00    +0.000 N 
ATOM      4  H   UNL     1      45.564   6.062  14.287  0.00  0.00    +0.000 HD
ENDROOT
BRANCH   2   5
ATOM      5  C   UNL     1      47.663   5.191  15.144  0.00  0.00    +0.000 A 
ATOM      6  C   UNL     1      48.274   6.362  14.745  0.00  0.00    +0.000 A 
ATOM      7  S   UNL     1      49.611   6.754  15.752  0.00  0.00    +0.000 S 
ATOM      8  C   UNL     1      49.289   5.438  16.787  0.00  0.00    +0.000 A 
ATOM      9  N   UNL     1      50.129   5.072  17.791  0.00  0.00    +0.000 NA
ATOM     10  C   UNL     1      49.701   4.079  18.503  0.00  0.00    +0.000 A 
ATOM     11  N   UNL     1      48.488   3.455  18.337  0.00  0.00    +0.000 N 
ATOM     12  C   UNL     1      47.596   3.810  17.354  0.00  0.00    +0.000 A 
ATOM     13  O   UNL     1      46.478   3.313  17.280  0.00  0.00    +0.000 OA
ATOM     14  C   UNL     1      48.106   4.819  16.450  0.00  0.00    +0.000 A 
ATOM     15  H   UNL     1      48.172   2.748  18.985  0.00  0.00    +0.000 HD
ENDBRANCH   2   5
BRANCH   3  16
ATOM     16  C   UNL     1      44.495   4.515  13.388  0.00  0.00    +0.000 C 
BRANCH  16  17
ATOM     17  C   UNL     1      44.613   4.283  11.902  0.00  0.00    +0.000 A 
ATOM     18  C   UNL     1      44.078   3.129  11.319  0.00  0.00    +0.000 A 
ATOM     19  C   UNL     1      44.156   2.928   9.937  0.00  0.00    +0.000 A 
ATOM     20  C   UNL     1      44.793   3.866   9.113  0.00  0.00    +0.000 A 
ATOM     21  C   UNL     1      45.374   4.995   9.703  0.00  0.00    +0.000 A 
ATOM     22  C   UNL     1      45.291   5.199  11.085  0.00  0.00    +0.000 A 
BRANCH  20  23
ATOM     23  C   UNL     1      44.815   3.684   7.611  0.00  0.00    +0.000 C 
BRANCH  23  24
ATOM     24  C   UNL     1      46.022   2.949   7.113  0.00  0.00    +0.000 A 
ATOM     25  C   UNL     1      46.711   3.329   5.978  0.00  0.00    +0.000 A 
ATOM     26  N   UNL     1      47.794   2.682   5.501  0.00  0.00    +0.000 NA
ATOM     27  C   UNL     1      48.181   1.604   6.200  0.00  0.00    +0.000 A 
ATOM     28  N   UNL     1      47.596   1.135   7.311  0.00  0.00    +0.000 NA
ATOM     29  C   UNL     1      46.518   1.822   7.739  0.00  0.00    +0.000 A 
ENDBRANCH  23  24
ENDBRANCH  20  23
ENDBRANCH  16  17
ENDBRANCH   3  16
TORSDOF 5
ENDMDL
MODEL 2
REMARK VINA RESULT:    -7.801      1.751      2.787
REMARK INTER + INTRA:         -10.671
REMARK INTER:                  -9.864
REMARK INTRA:                  -0.807
REMARK UNBOUND:                -0.590
REMARK  Name = 
REMARK  5 active torsions:
REMARK  status: ('A' for Active; 'I' for Inactive)
REMARK    1  A    between atoms: C_2  and  C_18
REMARK    2  A    between atoms: N_3  and  C_4
REMARK    3  A    between atoms: C_4  and  C_5
REMARK    4  A    between atoms: C_8  and  C_9
REMARK    5  A    between atoms: C_9  and  C_10
REMARK                            x       y       z     vdW  Elec       q    Type
REMARK                         _______ _______ _______ _____ _____    ______ ____
ROOT
ATOM      1  O   UNL     1      47.160   3.467  14.714  0.00  0.00    +0.000 OA
ATOM      2  C   UNL     1      47.136   4.688  14.591  0.00  0.00    +0.000 C 
ATOM      3  N   UNL     1      46.122   5.381  13.972  0.00  0.00    +0.000 N 
ATOM      4  H   UNL     1      46.091   6.384  14.092  0.00  0.00    +0.000 HD
ENDROOT
BRANCH   2   5
ATOM      5  C   UNL     1      48.059   5.587  15.271  0.00  0.00    +0.000 A 
ATOM      6  C   UNL     1      48.430   5.420  16.589  0.00  0.00    +0.000 A 
ATOM      7  S   UNL     1      49.072   6.868  17.255  0.00  0.00    +0.000 S 
ATOM      8  C   UNL     1      48.973   7.669  15.753  0.00  0.00    +0.000 A 
ATOM      9  N   UNL     1      49.218   8.999  15.613  0.00  0.00    +0.000 NA
ATOM     10  C   UNL     1      49.141   9.425  14.394  0.00  0.00    +0.000 A 
ATOM     11  N   UNL     1      48.894   8.635  13.295  0.00  0.00    +0.000 N 
ATOM     12  C   UNL     1      48.669   7.283  13.387  0.00  0.00    +0.000 A 
ATOM     13  O   UNL     1      48.550   6.575  12.394  0.00  0.00    +0.000 OA
ATOM     14  C   UNL     1      48.604   6.800  14.751  0.00  0.00    +0.000 A 
ATOM     15  H   UNL     1      48.940   9.013  12.361  0.00  0.00    +0.000 HD
ENDBRANCH   2   5
BRANCH   3  16
ATOM     16  C   UNL     1      44.886   4.759  13.590  0.00  0.00    +0.000 C 
BRANCH  16  17
ATOM     17  C   UNL     1      44.887   4.453  12.112  0.00  0.00    +0.000 A 
ATOM     18  C   UNL     1      44.423   3.219  11.643  0.00  0.00    +0.000 A 
ATOM     19  C   UNL     1      44.390   2.946  10.272  0.00  0.00    +0.000 A 
ATOM     20  C   UNL     1      44.843   3.893   9.342  0.00  0.00    +0.000 A 
ATOM     21  C   UNL     1      45.355   5.108   9.816  0.00  0.00    +0.000 A 
ATOM     22  C   UNL     1      45.383   5.383  11.187  0.00  0.00    +0.000 A 
BRANCH  20  23
ATOM     23  C   UNL     1      44.742   3.627   7.857  0.00  0.00    +0.000 C 
BRANCH  23  24
ATOM     24  C   UNL     1      45.933   2.913   7.292  0.00  0.00    +0.000 A 
ATOM     25  C   UNL     1      46.622   3.372   6.187  0.00  0.00    +0.000 A 
ATOM     26  N   UNL     1      47.690   2.747   5.651  0.00  0.00    +0.000 NA
ATOM     27  C   UNL     1      48.061   1.609   6.258  0.00  0.00    +0.000 A 
ATOM     28  N   UNL     1      47.474   1.061   7.331  0.00  0.00    +0.000 NA
ATOM     29  C   UNL     1      46.411   1.731   7.821  0.00  0.00    +0.000 A 
ENDBRANCH  23  24
ENDBRANCH  20  23
ENDBRANCH  16  17
ENDBRANCH   3  16
TORSDOF 5
ENDMDL
MODEL 3
REMARK VINA RESULT:    -7.752      3.003      8.646
REMARK INTER + INTRA:         -10.608
REMARK INTER:                  -9.760
REMARK INTRA:                  -0.848
REMARK UNBOUND:                -0.590
REMARK  Name = 
REMARK  5 active torsions:
REMARK  status: ('A' for Active; 'I' for Inactive)
REMARK    1  A    between atoms: C_2  and  C_18
REMARK    2  A    between atoms: N_3  and  C_4
REMARK    3  A    between atoms: C_4  and  C_5
REMARK    4  A    between atoms: C_8  and  C_9
REMARK    5  A    between atoms: C_9  and  C_10
REMARK                            x       y       z     vdW  Elec       q    Type
REMARK                         _______ _______ _______ _____ _____    ______ ____
ROOT
ATOM      1  O   UNL     1      45.051   7.363  11.387  0.00  0.00    +0.000 OA
ATOM      2  C   UNL     1      45.466   6.211  11.459  0.00  0.00    +0.000 C 
ATOM      3  N   UNL     1      46.652   5.854  12.058  0.00  0.00    +0.000 N 
ATOM      4  H   UNL     1      46.814   4.873  12.243  0.00  0.00    +0.000 HD
ENDROOT
BRANCH   2   5
ATOM      5  C   UNL     1      44.667   5.041  11.119  0.00  0.00    +0.000 A 
ATOM      6  C   UNL     1      43.648   4.573  11.924  0.00  0.00    +0.000 A 
ATOM      7  S   UNL     1      43.256   2.940  11.563  0.00  0.00    +0.000 S 
ATOM      8  C   UNL     1      44.350   2.907  10.256  0.00  0.00    +0.000 A 
ATOM      9  N   UNL     1      44.647   1.767   9.576  0.00  0.00    +0.000 NA
ATOM     10  C   UNL     1      45.461   1.940   8.585  0.00  0.00    +0.000 A 
ATOM     11  N   UNL     1      45.965   3.153   8.180  0.00  0.00    +0.000 N 
ATOM     12  C   UNL     1      45.670   4.332   8.820  0.00  0.00    +0.000 A 
ATOM     13  O   UNL     1      46.044   5.418   8.388  0.00  0.00    +0.000 OA
ATOM     14  C   UNL     1      44.878   4.156  10.019  0.00  0.00    +0.000 A 
ATOM     15  H   UNL     1      46.522   3.233   7.342  0.00  0.00    +0.000 HD
ENDBRANCH   2   5
BRANCH   3  16
ATOM     16  C   UNL     1      47.424   6.774  12.844  0.00  0.00    +0.000 C 
BRANCH  16  17
ATOM     17  C   UNL     1      47.765   6.164  14.182  0.00  0.00    +0.000 A 
ATOM     18  C   UNL     1      47.127   4.995  14.612  0.00  0.00    +0.000 A 
ATOM     19  C   UNL     1      47.465   4.409  15.836  0.00  0.00    +0.000 A 
ATOM     20  C   UNL     1      48.432   4.993  16.666  0.00  0.00    +0.000 A 
ATOM     21  C   UNL     1      49.033   6.191  16.258  0.00  0.00    +0.000 A 
ATOM     22  C   UNL     1      48.698   6.774  15.031  0.00  0.00    +0.000 A 
BRANCH  20  23
ATOM     23  C   UNL     1      48.849   4.322  17.955  0.00  0.00    +0.000 C 
BRANCH  23  24
ATOM     24  C   UNL     1      50.016   3.393  17.800  0.00  0.00    +0.000 A 
ATOM     25  C   UNL     1      51.289   3.719  18.221  0.00  0.00    +0.000 A 
ATOM     26  N   UNL     1      52.359   2.908  18.087  0.00  0.00    +0.000 NA
ATOM     27  C   UNL     1      52.122   1.729  17.491  0.00  0.00    +0.000 A 
ATOM     28  N   UNL     1      50.936   1.300  17.038  0.00  0.00    +0.000 NA
ATOM     29  C   UNL     1      49.905   2.154  17.200  0.00  0.00    +0.000 A 
ENDBRANCH  23  24
ENDBRANCH  20  23
ENDBRANCH  16  17
ENDBRANCH   3  16
TORSDOF 5
ENDMDL
MODEL 4
REMARK VINA RESULT:    -7.641      2.077      3.252
REMARK INTER + INTRA:         -10.465
REMARK INTER:                  -9.567
REMARK INTRA:                  -0.897
REMARK UNBOUND:                -0.590
REMARK  Name = 
REMARK  5 active torsions:
REMARK  status: ('A' for Active; 'I' for Inactive)
REMARK    1  A    between atoms: C_2  and  C_18
REMARK    2  A    between atoms: N_3  and  C_4
REMARK    3  A    between atoms: C_4  and  C_5
REMARK    4  A    between atoms: C_8  and  C_9
REMARK    5  A    between atoms: C_9  and  C_10
REMARK                            x       y       z     vdW  Elec       q    Type
REMARK                         _______ _______ _______ _____ _____    ______ ____
ROOT
ATOM      1  O   UNL     1      48.470   8.272  16.717  0.00  0.00    +0.000 OA
ATOM      2  C   UNL     1      48.725   7.137  16.327  0.00  0.00    +0.000 C 
ATOM      3  N   UNL     1      48.366   6.646  15.093  0.00  0.00    +0.000 N 
ATOM      4  H   UNL     1      48.786   5.779  14.786  0.00  0.00    +0.000 HD
ENDROOT
BRANCH   2   5
ATOM      5  C   UNL     1      49.628   6.228  17.020  0.00  0.00    +0.000 A 
ATOM      6  C   UNL     1      50.862   6.620  17.498  0.00  0.00    +0.000 A 
ATOM      7  S   UNL     1      51.892   5.273  17.775  0.00  0.00    +0.000 S 
ATOM      8  C   UNL     1      50.649   4.172  17.384  0.00  0.00    +0.000 A 
ATOM      9  N   UNL     1      50.865   2.835  17.264  0.00  0.00    +0.000 NA
ATOM     10  C   UNL     1      49.799   2.148  17.008  0.00  0.00    +0.000 A 
ATOM     11  N   UNL     1      48.529   2.669  16.913  0.00  0.00    +0.000 N 
ATOM     12  C   UNL     1      48.261   4.008  17.055  0.00  0.00    +0.000 A 
ATOM     13  O   UNL     1      47.116   4.445  17.069  0.00  0.00    +0.000 OA
ATOM     14  C   UNL     1      49.451   4.822  17.198  0.00  0.00    +0.000 A 
ATOM     15  H   UNL     1      47.726   2.067  16.805  0.00  0.00    +0.000 HD
ENDBRANCH   2   5
BRANCH   3  16
ATOM     16  C   UNL     1      47.837   7.485  14.056  0.00  0.00    +0.000 C 
BRANCH  16  17
ATOM     17  C   UNL     1      46.872   6.709  13.194  0.00  0.00    +0.000 A 
ATOM     18  C   UNL     1      46.095   7.364  12.232  0.00  0.00    +0.000 A 
ATOM     19  C   UNL     1      45.225   6.642  11.408  0.00  0.00    +0.000 A 
ATOM     20  C   UNL     1      45.097   5.253  11.546  0.00  0.00    +0.000 A 
ATOM     21  C   UNL     1      45.836   4.605  12.544  0.00  0.00    +0.000 A 
ATOM     22  C   UNL     1      46.710   5.327  13.364  0.00  0.00    +0.000 A 
BRANCH  20  23
ATOM     23  C   UNL     1      44.210   4.463  10.609  0.00  0.00    +0.000 C 
BRANCH  23  24
ATOM     24  C   UNL     1      44.959   3.781   9.505  0.00  0.00    +0.000 A 
ATOM     25  C   UNL     1      45.103   2.409   9.437  0.00  0.00    +0.000 A 
ATOM     26  N   UNL     1      45.778   1.768   8.461  0.00  0.00    +0.000 NA
ATOM     27  C   UNL     1      46.336   2.555   7.528  0.00  0.00    +0.000 A 
ATOM     28  N   UNL     1      46.270   3.893   7.485  0.00  0.00    +0.000 NA
ATOM     29  C   UNL     1      45.582   4.477   8.488  0.00  0.00    +0.000 A 
ENDBRANCH  23  24
ENDBRANCH  20  23
ENDBRANCH  16  17
ENDBRANCH   3  16
TORSDOF 5
ENDMDL
MODEL 5
REMARK VINA RESULT:    -7.579      1.857      2.581
REMARK INTER + INTRA:         -10.384
REMARK INTER:                 -10.254
REMARK INTRA:                  -0.130
REMARK UNBOUND:                -0.590
REMARK  Name = 
REMARK  5 active torsions:
REMARK  status: ('A' for Active; 'I' for Inactive)
REMARK    1  A    between atoms: C_2  and  C_18
REMARK    2  A    between atoms: N_3  and  C_4
REMARK    3  A    between atoms: C_4  and  C_5
REMARK    4  A    between atoms: C_8  and  C_9
REMARK    5  A    between atoms: C_9  and  C_10
REMARK                            x       y       z     vdW  Elec       q    Type
REMARK                         _______ _______ _______ _____ _____    ______ ____
ROOT
ATOM      1  O   UNL     1      47.664   6.432  12.549  0.00  0.00    +0.000 OA
ATOM      2  C   UNL     1      46.994   6.122  13.530  0.00  0.00    +0.000 C 
ATOM      3  N   UNL     1      45.625   6.229  13.594  0.00  0.00    +0.000 N 
ATOM      4  H   UNL     1      45.148   5.770  14.358  0.00  0.00    +0.000 HD
ENDROOT
BRANCH   2   5
ATOM      5  C   UNL     1      47.527   5.397  14.675  0.00  0.00    +0.000 A 
ATOM      6  C   UNL     1      47.165   4.098  14.971  0.00  0.00    +0.000 A 
ATOM      7  S   UNL     1      47.513   3.701  16.607  0.00  0.00    +0.000 S 
ATOM      8  C   UNL     1      48.260   5.211  16.873  0.00  0.00    +0.000 A 
ATOM      9  N   UNL     1      48.663   5.623  18.104  0.00  0.00    +0.000 NA
ATOM     10  C   UNL     1      49.252   6.775  18.110  0.00  0.00    +0.000 A 
ATOM     11  N   UNL     1      49.521   7.529  16.992  0.00  0.00    +0.000 N 
ATOM     12  C   UNL     1      49.157   7.139  15.726  0.00  0.00    +0.000 A 
ATOM     13  O   UNL     1      49.491   7.770  14.730  0.00  0.00    +0.000 OA
ATOM     14  C   UNL     1      48.369   5.924  15.701  0.00  0.00    +0.000 A 
ATOM     15  H   UNL     1      50.067   8.376  17.053  0.00  0.00    +0.000 HD
ENDBRANCH   2   5
BRANCH   3  16
ATOM     16  C   UNL     1      44.821   6.520  12.441  0.00  0.00    +0.000 C 
BRANCH  16  17
ATOM     17  C   UNL     1      44.801   5.338  11.503  0.00  0.00    +0.000 A 
ATOM     18  C   UNL     1      45.299   5.457  10.201  0.00  0.00    +0.000 A 
ATOM     19  C   UNL     1      45.313   4.355   9.340  0.00  0.00    +0.000 A 
ATOM     20  C   UNL     1      44.807   3.116   9.757  0.00  0.00    +0.000 A 
ATOM     21  C   UNL     1      44.261   3.011  11.043  0.00  0.00    +0.000 A 
ATOM     22  C   UNL     1      44.252   4.112  11.905  0.00  0.00    +0.000 A 
BRANCH  20  23
ATOM     23  C   UNL     1      44.887   1.906   8.853  0.00  0.00    +0.000 C 
BRANCH  23  24
ATOM     24  C   UNL     1      45.934   2.021   7.786  0.00  0.00    +0.000 A 
ATOM     25  C   UNL     1      46.992   1.140   7.681  0.00  0.00    +0.000 A 
ATOM     26  N   UNL     1      47.953   1.224   6.738  0.00  0.00    +0.000 NA
ATOM     27  C   UNL     1      47.835   2.249   5.880  0.00  0.00    +0.000 A 
ATOM     28  N   UNL     1      46.860   3.168   5.880  0.00  0.00    +0.000 NA
ATOM     29  C   UNL     1      45.929   3.033   6.846  0.00  0.00    +0.000 A 
ENDBRANCH  23  24
ENDBRANCH  20  23
ENDBRANCH  16  17
ENDBRANCH   3  16
TORSDOF 5
ENDMDL
MODEL 6
REMARK VINA RESULT:    -7.392      3.231      4.823
REMARK INTER + INTRA:         -10.143
REMARK INTER:                  -8.850
REMARK INTRA:                  -1.293
REMARK UNBOUND:                -0.590
REMARK  Name = 
REMARK  5 active torsions:
REMARK  status: ('A' for Active; 'I' for Inactive)
REMARK    1  A    between atoms: C_2  and  C_18
REMARK    2  A    between atoms: N_3  and  C_4
REMARK    3  A    between atoms: C_4  and  C_5
REMARK    4  A    between atoms: C_8  and  C_9
REMARK    5  A    between atoms: C_9  and  C_10
REMARK                            x       y       z     vdW  Elec       q    Type
REMARK                         _______ _______ _______ _____ _____    ______ ____
ROOT
ATOM      1  O   UNL     1      51.051   6.676  15.592  0.00  0.00    +0.000 OA
ATOM      2  C   UNL     1      50.007   7.026  16.132  0.00  0.00    +0.000 C 
ATOM      3  N   UNL     1      49.150   7.970  15.615  0.00  0.00    +0.000 N 
ATOM      4  H   UNL     1      48.228   8.049  16.024  0.00  0.00    +0.000 HD
ENDROOT
BRANCH   2   5
ATOM      5  C   UNL     1      49.419   6.341  17.275  0.00  0.00    +0.000 A 
ATOM      6  C   UNL     1      49.716   6.676  18.580  0.00  0.00    +0.000 A 
ATOM      7  S   UNL     1      49.318   5.405  19.667  0.00  0.00    +0.000 S 
ATOM      8  C   UNL     1      48.635   4.472  18.413  0.00  0.00    +0.000 A 
ATOM      9  N   UNL     1      48.226   3.188  18.594  0.00  0.00    +0.000 NA
ATOM     10  C   UNL     1      47.690   2.652  17.545  0.00  0.00    +0.000 A 
ATOM     11  N   UNL     1      47.478   3.297  16.350  0.00  0.00    +0.000 N 
ATOM     12  C   UNL     1      47.849   4.602  16.132  0.00  0.00    +0.000 A 
ATOM     13  O   UNL     1      47.563   5.195  15.098  0.00  0.00    +0.000 OA
ATOM     14  C   UNL     1      48.581   5.185  17.237  0.00  0.00    +0.000 A 
ATOM     15  H   UNL     1      46.969   2.852  15.600  0.00  0.00    +0.000 HD
ENDBRANCH   2   5
BRANCH   3  16
ATOM     16  C   UNL     1      49.289   8.490  14.285  0.00  0.00    +0.000 C 
BRANCH  16  17
ATOM     17  C   UNL     1      48.112   8.081  13.434  0.00  0.00    +0.000 A 
ATOM     18  C   UNL     1      48.272   7.149  12.403  0.00  0.00    +0.000 A 
ATOM     19  C   UNL     1      47.176   6.741  11.636  0.00  0.00    +0.000 A 
ATOM     20  C   UNL     1      45.902   7.276  11.868  0.00  0.00    +0.000 A 
ATOM     21  C   UNL     1      45.752   8.247  12.867  0.00  0.00    +0.000 A 
ATOM     22  C   UNL     1      46.847   8.651  13.638  0.00  0.00    +0.000 A 
BRANCH  20  23
ATOM     23  C   UNL     1      44.704   6.784  11.087  0.00  0.00    +0.000 C 
BRANCH  23  24
ATOM     24  C   UNL     1      44.271   5.398  11.459  0.00  0.00    +0.000 A 
ATOM     25  C   UNL     1      43.857   4.469  10.526  0.00  0.00    +0.000 A 
ATOM     26  N   UNL     1      43.454   3.219  10.832  0.00  0.00    +0.000 NA
ATOM     27  C   UNL     1      43.464   2.910  12.137  0.00  0.00    +0.000 A 
ATOM     28  N   UNL     1      43.840   3.721  13.136  0.00  0.00    +0.000 NA
ATOM     29  C   UNL     1      44.232   4.958  12.768  0.00  0.00    +0.000 A 
ENDBRANCH  23  24
ENDBRANCH  20  23
ENDBRANCH  16  17
ENDBRANCH   3  16
TORSDOF 5
ENDMDL
MODEL 7
REMARK VINA RESULT:    -7.151      3.334      4.767
REMARK INTER + INTRA:          -9.831
REMARK INTER:                  -8.826
REMARK INTRA:                  -1.005
REMARK UNBOUND:                -0.590
REMARK  Name = 
REMARK  5 active torsions:
REMARK  status: ('A' for Active; 'I' for Inactive)
REMARK    1  A    between atoms: C_2  and  C_18
REMARK    2  A    between atoms: N_3  and  C_4
REMARK    3  A    between atoms: C_4  and  C_5
REMARK    4  A    between atoms: C_8  and  C_9
REMARK    5  A    between atoms: C_9  and  C_10
REMARK                            x       y       z     vdW  Elec       q    Type
REMARK                         _______ _______ _______ _____ _____    ______ ____
ROOT
ATOM      1  O   UNL     1      48.678   8.037  16.585  0.00  0.00    +0.000 OA
ATOM      2  C   UNL     1      49.477   7.263  16.066  0.00  0.00    +0.000 C 
ATOM      3  N   UNL     1      49.797   7.269  14.729  0.00  0.00    +0.000 N 
ATOM      4  H   UNL     1      50.602   6.733  14.431  0.00  0.00    +0.000 HD
ENDROOT
BRANCH   2   5
ATOM      5  C   UNL     1      50.356   6.381  16.822  0.00  0.00    +0.000 A 
ATOM      6  C   UNL     1      51.655   6.718  17.142  0.00  0.00    +0.000 A 
ATOM      7  S   UNL     1      52.587   5.331  17.546  0.00  0.00    +0.000 S 
ATOM      8  C   UNL     1      51.226   4.311  17.419  0.00  0.00    +0.000 A 
ATOM      9  N   UNL     1      51.316   2.956  17.489  0.00  0.00    +0.000 NA
ATOM     10  C   UNL     1      50.177   2.346  17.419  0.00  0.00    +0.000 A 
ATOM     11  N   UNL     1      48.953   2.968  17.340  0.00  0.00    +0.000 N 
ATOM     12  C   UNL     1      48.813   4.334  17.295  0.00  0.00    +0.000 A 
ATOM     13  O   UNL     1      47.714   4.877  17.326  0.00  0.00    +0.000 OA
ATOM     14  C   UNL     1      50.075   5.041  17.225  0.00  0.00    +0.000 A 
ATOM     15  H   UNL     1      48.095   2.438  17.384  0.00  0.00    +0.000 HD
ENDBRANCH   2   5
BRANCH   3  16
ATOM     16  C   UNL     1      49.384   8.320  13.842  0.00  0.00    +0.000 C 
BRANCH  16  17
ATOM     17  C   UNL     1      48.072   7.968  13.186  0.00  0.00    +0.000 A 
ATOM     18  C   UNL     1      48.013   6.975  12.202  0.00  0.00    +0.000 A 
ATOM     19  C   UNL     1      46.793   6.623  11.617  0.00  0.00    +0.000 A 
ATOM     20  C   UNL     1      45.608   7.276  11.987  0.00  0.00    +0.000 A 
ATOM     21  C   UNL     1      45.676   8.305  12.934  0.00  0.00    +0.000 A 
ATOM     22  C   UNL     1      46.896   8.653  13.523  0.00  0.00    +0.000 A 
BRANCH  20  23
ATOM     23  C   UNL     1      44.279   6.848  11.407  0.00  0.00    +0.000 C 
BRANCH  23  24
ATOM     24  C   UNL     1      43.975   5.393  11.608  0.00  0.00    +0.000 A 
ATOM     25  C   UNL     1      43.775   4.521  10.557  0.00  0.00    +0.000 A 
ATOM     26  N   UNL     1      43.492   3.210  10.708  0.00  0.00    +0.000 NA
ATOM     27  C   UNL     1      43.399   2.779  11.975  0.00  0.00    +0.000 A 
ATOM     28  N   UNL     1      43.569   3.525  13.076  0.00  0.00    +0.000 NA
ATOM     29  C   UNL     1      43.849   4.827  12.861  0.00  0.00    +0.000 A 
ENDBRANCH  23  24
ENDBRANCH  20  23
ENDBRANCH  16  17
ENDBRANCH   3  16
TORSDOF 5
ENDMDL
MODEL 8
REMARK VINA RESULT:    -7.109      2.385      3.659
REMARK INTER + INTRA:          -9.777
REMARK INTER:                  -9.128
REMARK INTRA:                  -0.649
REMARK UNBOUND:                -0.590
REMARK  Name = 
REMARK  5 active torsions:
REMARK  status: ('A' for Active; 'I' for Inactive)
REMARK    1  A    between atoms: C_2  and  C_18
REMARK    2  A    between atoms: N_3  and  C_4
REMARK    3  A    between atoms: C_4  and  C_5
REMARK    4  A    between atoms: C_8  and  C_9
REMARK    5  A    between atoms: C_9  and  C_10
REMARK                            x       y       z     vdW  Elec       q    Type
REMARK                         _______ _______ _______ _____ _____    ______ ____
ROOT
ATOM      1  O   UNL     1      50.493   6.164  16.166  0.00  0.00    +0.000 OA
ATOM      2  C   UNL     1      49.455   6.805  16.296  0.00  0.00    +0.000 C 
ATOM      3  N   UNL     1      48.759   7.366  15.251  0.00  0.00    +0.000 N 
ATOM      4  H   UNL     1      47.822   7.702  15.431  0.00  0.00    +0.000 HD
ENDROOT
BRANCH   2   5
ATOM      5  C   UNL     1      48.701   6.877  17.540  0.00  0.00    +0.000 A 
ATOM      6  C   UNL     1      48.237   8.067  18.064  0.00  0.00    +0.000 A 
ATOM      7  S   UNL     1      47.870   7.921  19.737  0.00  0.00    +0.000 S 
ATOM      8  C   UNL     1      48.206   6.249  19.722  0.00  0.00    +0.000 A 
ATOM      9  N   UNL     1      48.244   5.499  20.855  0.00  0.00    +0.000 NA
ATOM     10  C   UNL     1      48.468   4.241  20.649  0.00  0.00    +0.000 A 
ATOM     11  N   UNL     1      48.605   3.657  19.412  0.00  0.00    +0.000 N 
ATOM     12  C   UNL     1      48.545   4.371  18.241  0.00  0.00    +0.000 A 
ATOM     13  O   UNL     1      48.568   3.825  17.143  0.00  0.00    +0.000 OA
ATOM     14  C   UNL     1      48.441   5.802  18.442  0.00  0.00    +0.000 A 
ATOM     15  H   UNL     1      48.684   2.655  19.315  0.00  0.00    +0.000 HD
ENDBRANCH   2   5
BRANCH   3  16
ATOM     16  C   UNL     1      49.066   7.078  13.879  0.00  0.00    +0.000 C 
BRANCH  16  17
ATOM     17  C   UNL     1      47.852   6.528  13.173  0.00  0.00    +0.000 A 
ATOM     18  C   UNL     1      47.364   7.143  12.015  0.00  0.00    +0.000 A 
ATOM     19  C   UNL     1      46.259   6.615  11.340  0.00  0.00    +0.000 A 
ATOM     20  C   UNL     1      45.605   5.473  11.822  0.00  0.00    +0.000 A 
ATOM     21  C   UNL     1      46.063   4.887  13.009  0.00  0.00    +0.000 A 
ATOM     22  C   UNL     1      47.170   5.413  13.681  0.00  0.00    +0.000 A 
BRANCH  20  23
ATOM     23  C   UNL     1      44.455   4.860  11.053  0.00  0.00    +0.000 C 
BRANCH  23  24
ATOM     24  C   UNL     1      44.890   4.022   9.888  0.00  0.00    +0.000 A 
ATOM     25  C   UNL     1      44.870   2.642   9.914  0.00  0.00    +0.000 A 
ATOM     26  N   UNL     1      45.263   1.862   8.885  0.00  0.00    +0.000 NA
ATOM     27  C   UNL     1      45.701   2.514   7.798  0.00  0.00    +0.000 A 
ATOM     28  N   UNL     1      45.771   3.845   7.652  0.00  0.00    +0.000 NA
ATOM     29  C   UNL     1      45.366   4.571   8.713  0.00  0.00    +0.000 A 
ENDBRANCH  23  24
ENDBRANCH  20  23
ENDBRANCH  16  17
ENDBRANCH   3  16
TORSDOF 5
ENDMDL
MODEL 9
REMARK VINA RESULT:    -7.051      3.143      4.037
REMARK INTER + INTRA:          -9.702
REMARK INTER:                  -9.001
REMARK INTRA:                  -0.702
REMARK UNBOUND:                -0.590
REMARK  Name = 
REMARK  5 active torsions:
REMARK  status: ('A' for Active; 'I' for Inactive)
REMARK    1  A    between atoms: C_2  and  C_18
REMARK    2  A    between atoms: N_3  and  C_4
REMARK    3  A    between atoms: C_4  and  C_5
REMARK    4  A    between atoms: C_8  and  C_9
REMARK    5  A    between atoms: C_9  and  C_10
REMARK                            x       y       z     vdW  Elec       q    Type
REMARK                         _______ _______ _______ _____ _____    ______ ____
ROOT
ATOM      1  O   UNL     1      46.726   8.546  13.796  0.00  0.00    +0.000 OA
ATOM      2  C   UNL     1      47.678   7.797  13.608  0.00  0.00    +0.000 C 
ATOM      3  N   UNL     1      47.619   6.429  13.733  0.00  0.00    +0.000 N 
ATOM      4  H   UNL     1      48.391   5.885  13.370  0.00  0.00    +0.000 HD
ENDROOT
BRANCH   2   5
ATOM      5  C   UNL     1      48.939   8.224  13.017  0.00  0.00    +0.000 A 
ATOM      6  C   UNL     1      49.203   8.123  11.666  0.00  0.00    +0.000 A 
ATOM      7  S   UNL     1      50.889   8.193  11.343  0.00  0.00    +0.000 S 
ATOM      8  C   UNL     1      51.248   8.488  12.984  0.00  0.00    +0.000 A 
ATOM      9  N   UNL     1      52.520   8.507  13.465  0.00  0.00    +0.000 NA
ATOM     10  C   UNL     1      52.604   8.793  14.725  0.00  0.00    +0.000 A 
ATOM     11  N   UNL     1      51.539   9.112  15.535  0.00  0.00    +0.000 N 
ATOM     12  C   UNL     1      50.242   9.132  15.085  0.00  0.00    +0.000 A 
ATOM     13  O   UNL     1      49.315   9.515  15.789  0.00  0.00    +0.000 OA
ATOM     14  C   UNL     1      50.098   8.677  13.717  0.00  0.00    +0.000 A 
ATOM     15  H   UNL     1      51.682   9.417  16.486  0.00  0.00    +0.000 HD
ENDBRANCH   2   5
BRANCH   3  16
ATOM     16  C   UNL     1      46.380   5.723  13.894  0.00  0.00    +0.000 C 
BRANCH  16  17
ATOM     17  C   UNL     1      45.878   5.231  12.559  0.00  0.00    +0.000 A 
ATOM     18  C   UNL     1      46.024   6.019  11.412  0.00  0.00    +0.000 A 
ATOM     19  C   UNL     1      45.590   5.552  10.168  0.00  0.00    +0.000 A 
ATOM     20  C   UNL     1      44.980   4.296  10.048  0.00  0.00    +0.000 A 
ATOM     21  C   UNL     1      44.788   3.529  11.205  0.00  0.00    +0.000 A 
ATOM     22  C   UNL     1      45.226   3.995  12.449  0.00  0.00    +0.000 A 
BRANCH  20  23
ATOM     23  C   UNL     1      44.575   3.760   8.693  0.00  0.00    +0.000 C 
BRANCH  23  24
ATOM     24  C   UNL     1      45.605   2.867   8.068  0.00  0.00    +0.000 A 
ATOM     25  C   UNL     1      45.757   1.542   8.422  0.00  0.00    +0.000 A 
ATOM     26  N   UNL     1      46.679   0.718   7.883  0.00  0.00    +0.000 NA
ATOM     27  C   UNL     1      47.481   1.269   6.959  0.00  0.00    +0.000 A 
ATOM     28  N   UNL     1      47.435   2.540   6.534  0.00  0.00    +0.000 NA
ATOM     29  C   UNL     1      46.493   3.315   7.109  0.00  0.00    +0.000 A 
ENDBRANCH  23  24
ENDBRANCH  20  23
ENDBRANCH  16  17
ENDBRANCH   3  16
TORSDOF 5
ENDMDL
