MODEL 1
REMARK VINA RESULT:    -8.393      0.000      0.000
REMARK INTER + INTRA:         -13.923
REMARK INTER:                 -12.318
REMARK INTRA:                  -1.605
REMARK UNBOUND:                -1.605
REMARK  Name = 
REMARK  9 active torsions:
REMARK  status: ('A' for Active; 'I' for Inactive)
REMARK    1  A    between atoms: C_1  and  O_2
REMARK    2  A    between atoms: O_2  and  C_3
REMARK    3  A    between atoms: C_10  and  C_11
REMARK    4  A    between atoms: N_13  and  C_14
REMARK    5  A    between atoms: C_14  and  C_15
REMARK    6  A    between atoms: C_18  and  N_19
REMARK    7  A    between atoms: N_19  and  C_20
REMARK    8  A    between atoms: C_20  and  C_21
REMARK    9  A    between atoms: C_21  and  C_22
REMARK                            x       y       z     vdW  Elec       q    Type
REMARK                         _______ _______ _______ _____ _____    ______ ____
ROOT
ATOM      1  C   UNL     1      47.118   8.165  13.374  0.00  0.00    +0.000 C 
ENDROOT
BRANCH   1   2
ATOM      2  C   UNL     1      46.205   7.339  12.504  0.00  0.00    +0.000 A 
ATOM      3  C   UNL     1      46.695   6.704  11.359  0.00  0.00    +0.000 A 
ATOM      4  C   UNL     1      45.881   5.834  10.620  0.00  0.00    +0.000 A 
ATOM      5  C   UNL     1      44.567   5.566  11.014  0.00  0.00    +0.000 A 
ATOM      6  C   UNL     1      44.054   6.274  12.104  0.00  0.00    +0.000 A 
ATOM      7  C   UNL     1      44.859   7.153  12.841  0.00  0.00    +0.000 A 
BRANCH   5   8
ATOM      8  N   UNL     1      43.742   4.616  10.402  0.00  0.00    +0.000 N 
ATOM      9  H   UNL     1      42.758   4.869  10.464  0.00  0.00    +0.000 HD
BRANCH   8  10
ATOM     10  C   UNL     1      44.133   4.058   9.104  0.00  0.00    +0.000 C 
BRANCH  10  11
ATOM     11  C   UNL     1      44.695   2.645   9.291  0.00  0.00    +0.000 C 
BRANCH  11  12
ATOM     12  C   UNL     1      45.765   2.329   8.288  0.00  0.00    +0.000 A 
ATOM     13  C   UNL     1      46.221   3.313   7.415  0.00  0.00    +0.000 A 
ATOM     14  C   UNL     1      47.183   2.973   6.471  0.00  0.00    +0.000 A 
ATOM     15  C   UNL     1      47.655   1.669   6.418  0.00  0.00    +0.000 A 
ATOM     16  C   UNL     1      47.143   0.749   7.318  0.00  0.00    +0.000 A 
ATOM     17  N   UNL     1      46.213   1.050   8.248  0.00  0.00    +0.000 NA
ENDBRANCH  11  12
ENDBRANCH  10  11
ENDBRANCH   8  10
ENDBRANCH   5   8
ENDBRANCH   1   2
BRANCH   1  20
ATOM     18  C   UNL     1      48.764   6.827  14.607  0.00  0.00    +0.000 C 
ATOM     19  O   UNL     1      49.578   6.904  13.692  0.00  0.00    +0.000 OA
ATOM     20  N   UNL     1      47.546   7.461  14.556  0.00  0.00    +0.000 N 
ATOM     21  H   UNL     1      46.847   7.266  15.265  0.00  0.00    +0.000 HD
BRANCH  18  29
ATOM     22  C   UNL     1      47.239   4.226  16.168  0.00  0.00    +0.000 A 
ATOM     23  N   UNL     1      46.804   3.259  17.001  0.00  0.00    +0.000 NA
ATOM     24  C   UNL     1      47.493   3.037  18.123  0.00  0.00    +0.000 A 
ATOM     25  N   UNL     1      48.591   3.670  18.530  0.00  0.00    +0.000 NA
ATOM     26  C   UNL     1      48.985   4.633  17.679  0.00  0.00    +0.000 A 
ATOM     27  S   UNL     1      50.382   5.539  18.011  0.00  0.00    +0.000 S 
ATOM     28  C   UNL     1      50.198   6.443  16.580  0.00  0.00    +0.000 A 
ATOM     29  C   UNL     1      49.070   6.099  15.848  0.00  0.00    +0.000 A 
ATOM     30  C   UNL     1      48.368   4.998  16.489  0.00  0.00    +0.000 A 
BRANCH  22  32
ATOM     31  C   UNL     1      47.032   3.627  13.913  0.00  0.00    +0.000 C 
ATOM     32  O   UNL     1      46.566   4.442  14.984  0.00  0.00    +0.000 OA
ENDBRANCH  22  32
ENDBRANCH  18  29
ENDBRANCH   1  20
TORSDOF 8
ENDMDL
MODEL 2
REMARK VINA RESULT:    -7.827      1.625      1.995
REMARK INTER + INTRA:         -13.092
REMARK INTER:                 -11.867
REMARK INTRA:                  -1.225
REMARK UNBOUND:                -1.605
REMARK  Name = 
REMARK  9 active torsions:
REMARK  status: ('A' for Active; 'I' for Inactive)
REMARK    1  A    between atoms: C_1  and  O_2
REMARK    2  A    between atoms: O_2  and  C_3
REMARK    3  A    between atoms: C_10  and  C_11
REMARK    4  A    between atoms: N_13  and  C_14
REMARK    5  A    between atoms: C_14  and  C_15
REMARK    6  A    between atoms: C_18  and  N_19
REMARK    7  A    between atoms: N_19  and  C_20
REMARK    8  A    between atoms: C_20  and  C_21
REMARK    9  A    between atoms: C_21  and  C_22
REMARK                            x       y       z     vdW  Elec       q    Type
REMARK                         _______ _______ _______ _____ _____    ______ ____
ROOT
ATOM      1  C   UNL     1      47.876   7.250  13.469  0.00  0.00    +0.000 C 
ENDROOT
BRANCH   1   2
ATOM      2  C   UNL     1      46.933   6.180  12.982  0.00  0.00    +0.000 A 
ATOM      3  C   UNL     1      46.273   6.317  11.757  0.00  0.00    +0.000 A 
ATOM      4  C   UNL     1      45.496   5.270  11.243  0.00  0.00    +0.000 A 
ATOM      5  C   UNL     1      45.373   4.058  11.928  0.00  0.00    +0.000 A 
ATOM      6  C   UNL     1      45.958   3.960  13.194  0.00  0.00    +0.000 A 
ATOM      7  C   UNL     1      46.727   5.008  13.719  0.00  0.00    +0.000 A 
BRANCH   5   8
ATOM      8  N   UNL     1      44.723   2.930  11.417  0.00  0.00    +0.000 N 
ATOM      9  H   UNL     1      44.141   2.474  12.118  0.00  0.00    +0.000 HD
BRANCH   8  10
ATOM     10  C   UNL     1      44.110   2.997  10.087  0.00  0.00    +0.000 C 
BRANCH  10  11
ATOM     11  C   UNL     1      44.508   1.767   9.266  0.00  0.00    +0.000 C 
BRANCH  11  12
ATOM     12  C   UNL     1      45.652   2.059   8.338  0.00  0.00    +0.000 A 
ATOM     13  C   UNL     1      45.797   3.326   7.780  0.00  0.00    +0.000 A 
ATOM     14  C   UNL     1      46.842   3.547   6.891  0.00  0.00    +0.000 A 
ATOM     15  C   UNL     1      47.704   2.505   6.579  0.00  0.00    +0.000 A 
ATOM     16  C   UNL     1      47.484   1.272   7.173  0.00  0.00    +0.000 A 
ATOM     17  N   UNL     1      46.482   1.029   8.042  0.00  0.00    +0.000 NA
ENDBRANCH  11  12
ENDBRANCH  10  11
ENDBRANCH   8  10
ENDBRANCH   5   8
ENDBRANCH   1   2
BRANCH   1  20
ATOM     18  C   UNL     1      49.129   7.095  15.573  0.00  0.00    +0.000 C 
ATOM     19  O   UNL     1      50.190   6.924  14.980  0.00  0.00    +0.000 OA
ATOM     20  N   UNL     1      47.947   7.315  14.907  0.00  0.00    +0.000 N 
ATOM     21  H   UNL     1      47.073   7.317  15.421  0.00  0.00    +0.000 HD
BRANCH  18  29
ATOM     22  C   UNL     1      48.899   4.659  17.926  0.00  0.00    +0.000 A 
ATOM     23  N   UNL     1      48.756   3.904  19.035  0.00  0.00    +0.000 NA
ATOM     24  C   UNL     1      48.691   4.526  20.215  0.00  0.00    +0.000 A 
ATOM     25  N   UNL     1      48.756   5.837  20.438  0.00  0.00    +0.000 NA
ATOM     26  C   UNL     1      48.887   6.553  19.308  0.00  0.00    +0.000 A 
ATOM     27  S   UNL     1      49.012   8.244  19.385  0.00  0.00    +0.000 S 
ATOM     28  C   UNL     1      49.145   8.364  17.692  0.00  0.00    +0.000 A 
ATOM     29  C   UNL     1      49.069   7.139  17.042  0.00  0.00    +0.000 A 
ATOM     30  C   UNL     1      48.947   6.060  18.010  0.00  0.00    +0.000 A 
BRANCH  22  32
ATOM     31  C   UNL     1      48.132   2.922  16.554  0.00  0.00    +0.000 C 
ATOM     32  O   UNL     1      49.010   4.035  16.702  0.00  0.00    +0.000 OA
ENDBRANCH  22  32
ENDBRANCH  18  29
ENDBRANCH   1  20
TORSDOF 8
ENDMDL
MODEL 3
REMARK VINA RESULT:    -7.643      2.428      3.130
REMARK INTER + INTRA:         -12.822
REMARK INTER:                 -11.516
REMARK INTRA:                  -1.306
REMARK UNBOUND:                -1.605
REMARK  Name = 
REMARK  9 active torsions:
REMARK  status: ('A' for Active; 'I' for Inactive)
REMARK    1  A    between atoms: C_1  and  O_2
REMARK    2  A    between atoms: O_2  and  C_3
REMARK    3  A    between atoms: C_10  and  C_11
REMARK    4  A    between atoms: N_13  and  C_14
REMARK    5  A    between atoms: C_14  and  C_15
REMARK    6  A    between atoms: C_18  and  N_19
REMARK    7  A    between atoms: N_19  and  C_20
REMARK    8  A    between atoms: C_20  and  C_21
REMARK    9  A    between atoms: C_21  and  C_22
REMARK                            x       y       z     vdW  Elec       q    Type
REMARK                         _______ _______ _______ _____ _____    ______ ____
ROOT
ATOM      1  C   UNL     1      48.285   6.902  13.931  0.00  0.00    +0.000 C 
ENDROOT
BRANCH   1   2
ATOM      2  C   UNL     1      47.255   6.149  13.129  0.00  0.00    +0.000 A 
ATOM      3  C   UNL     1      46.623   5.022  13.663  0.00  0.00    +0.000 A 
ATOM      4  C   UNL     1      45.576   4.395  12.972  0.00  0.00    +0.000 A 
ATOM      5  C   UNL     1      45.126   4.886  11.743  0.00  0.00    +0.000 A 
ATOM      6  C   UNL     1      45.822   5.955  11.172  0.00  0.00    +0.000 A 
ATOM      7  C   UNL     1      46.877   6.579  11.852  0.00  0.00    +0.000 A 
BRANCH   5   8
ATOM      8  N   UNL     1      44.008   4.393  11.062  0.00  0.00    +0.000 N 
ATOM      9  H   UNL     1      43.169   4.932  11.265  0.00  0.00    +0.000 HD
BRANCH   8  10
ATOM     10  C   UNL     1      44.141   4.005   9.655  0.00  0.00    +0.000 C 
BRANCH  10  11
ATOM     11  C   UNL     1      44.631   2.557   9.556  0.00  0.00    +0.000 C 
BRANCH  11  12
ATOM     12  C   UNL     1      45.624   2.375   8.446  0.00  0.00    +0.000 A 
ATOM     13  C   UNL     1      45.888   3.418   7.562  0.00  0.00    +0.000 A 
ATOM     14  C   UNL     1      46.781   3.199   6.520  0.00  0.00    +0.000 A 
ATOM     15  C   UNL     1      47.379   1.954   6.384  0.00  0.00    +0.000 A 
ATOM     16  C   UNL     1      47.055   0.968   7.302  0.00  0.00    +0.000 A 
ATOM     17  N   UNL     1      46.196   1.152   8.326  0.00  0.00    +0.000 NA
ENDBRANCH  11  12
ENDBRANCH  10  11
ENDBRANCH   8  10
ENDBRANCH   5   8
ENDBRANCH   1   2
BRANCH   1  20
ATOM     18  C   UNL     1      49.097   6.425  16.196  0.00  0.00    +0.000 C 
ATOM     19  O   UNL     1      50.248   6.270  15.800  0.00  0.00    +0.000 OA
ATOM     20  N   UNL     1      48.075   6.788  15.352  0.00  0.00    +0.000 N 
ATOM     21  H   UNL     1      47.117   6.774  15.685  0.00  0.00    +0.000 HD
BRANCH  18  29
ATOM     22  C   UNL     1      47.802   8.611  18.448  0.00  0.00    +0.000 A 
ATOM     23  N   UNL     1      47.358   9.283  19.531  0.00  0.00    +0.000 NA
ATOM     24  C   UNL     1      47.296   8.631  20.695  0.00  0.00    +0.000 A 
ATOM     25  N   UNL     1      47.625   7.361  20.924  0.00  0.00    +0.000 NA
ATOM     26  C   UNL     1      48.073   6.731  19.824  0.00  0.00    +0.000 A 
ATOM     27  S   UNL     1      48.519   5.095  19.906  0.00  0.00    +0.000 S 
ATOM     28  C   UNL     1      48.919   5.067  18.251  0.00  0.00    +0.000 A 
ATOM     29  C   UNL     1      48.751   6.293  17.620  0.00  0.00    +0.000 A 
ATOM     30  C   UNL     1      48.216   7.273  18.552  0.00  0.00    +0.000 A 
BRANCH  22  32
ATOM     31  C   UNL     1      48.806  10.293  17.164  0.00  0.00    +0.000 C 
ATOM     32  O   UNL     1      47.834   9.253  17.230  0.00  0.00    +0.000 OA
ENDBRANCH  22  32
ENDBRANCH  18  29
ENDBRANCH   1  20
TORSDOF 8
ENDMDL
MODEL 4
REMARK VINA RESULT:    -7.296      1.593      2.133
REMARK INTER + INTRA:         -12.313
REMARK INTER:                 -11.036
REMARK INTRA:                  -1.277
REMARK UNBOUND:                -1.605
REMARK  Name = 
REMARK  9 active torsions:
REMARK  status: ('A' for Active; 'I' for Inactive)
REMARK    1  A    between atoms: C_1  and  O_2
REMARK    2  A    between atoms: O_2  and  C_3
REMARK    3  A    between atoms: C_10  and  C_11
REMARK    4  A    between atoms: N_13  and  C_14
REMARK    5  A    between atoms: C_14  and  C_15
REMARK    6  A    between atoms: C_18  and  N_19
REMARK    7  A    between atoms: N_19  and  C_20
REMARK    8  A    between atoms: C_20  and  C_21
REMARK    9  A    between atoms: C_21  and  C_22
REMARK                            x       y       z     vdW  Elec       q    Type
REMARK                         _______ _______ _______ _____ _____    ______ ____
ROOT
ATOM      1  C   UNL     1      47.593   7.606  13.606  0.00  0.00    +0.000 C 
ENDROOT
BRANCH   1   2
ATOM      2  C   UNL     1      46.795   6.517  12.935  0.00  0.00    +0.000 A 
ATOM      3  C   UNL     1      46.428   5.367  13.639  0.00  0.00    +0.000 A 
ATOM      4  C   UNL     1      45.579   4.414  13.059  0.00  0.00    +0.000 A 
ATOM      5  C   UNL     1      45.066   4.593  11.771  0.00  0.00    +0.000 A 
ATOM      6  C   UNL     1      45.510   5.697  11.038  0.00  0.00    +0.000 A 
ATOM      7  C   UNL     1      46.367   6.648  11.609  0.00  0.00    +0.000 A 
BRANCH   5   8
ATOM      8  N   UNL     1      44.117   3.752  11.180  0.00  0.00    +0.000 N 
ATOM      9  H   UNL     1      43.184   3.906  11.555  0.00  0.00    +0.000 HD
BRANCH   8  10
ATOM     10  C   UNL     1      44.149   3.545   9.729  0.00  0.00    +0.000 C 
BRANCH  10  11
ATOM     11  C   UNL     1      44.707   2.155   9.411  0.00  0.00    +0.000 C 
BRANCH  11  12
ATOM     12  C   UNL     1      45.723   2.196   8.307  0.00  0.00    +0.000 A 
ATOM     13  C   UNL     1      45.855   3.335   7.518  0.00  0.00    +0.000 A 
ATOM     14  C   UNL     1      46.776   3.322   6.477  0.00  0.00    +0.000 A 
ATOM     15  C   UNL     1      47.530   2.179   6.248  0.00  0.00    +0.000 A 
ATOM     16  C   UNL     1      47.331   1.086   7.076  0.00  0.00    +0.000 A 
ATOM     17  N   UNL     1      46.448   1.071   8.096  0.00  0.00    +0.000 NA
ENDBRANCH  11  12
ENDBRANCH  10  11
ENDBRANCH   8  10
ENDBRANCH   5   8
ENDBRANCH   1   2
BRANCH   1  20
ATOM     18  C   UNL     1      49.129   7.721  15.516  0.00  0.00    +0.000 C 
ATOM     19  O   UNL     1      48.541   8.690  15.987  0.00  0.00    +0.000 OA
ATOM     20  N   UNL     1      48.700   7.091  14.372  0.00  0.00    +0.000 N 
ATOM     21  H   UNL     1      49.283   6.384  13.938  0.00  0.00    +0.000 HD
BRANCH  18  29
ATOM     22  C   UNL     1      49.663   4.684  16.935  0.00  0.00    +0.000 A 
ATOM     23  N   UNL     1      50.107   3.598  17.600  0.00  0.00    +0.000 NA
ATOM     24  C   UNL     1      51.346   3.628  18.100  0.00  0.00    +0.000 A 
ATOM     25  N   UNL     1      52.222   4.628  18.016  0.00  0.00    +0.000 NA
ATOM     26  C   UNL     1      51.736   5.694  17.357  0.00  0.00    +0.000 A 
ATOM     27  S   UNL     1      52.713   7.063  17.124  0.00  0.00    +0.000 S 
ATOM     28  C   UNL     1      51.473   7.868  16.279  0.00  0.00    +0.000 A 
ATOM     29  C   UNL     1      50.298   7.132  16.185  0.00  0.00    +0.000 A 
ATOM     30  C   UNL     1      50.470   5.825  16.801  0.00  0.00    +0.000 A 
BRANCH  22  32
ATOM     31  C   UNL     1      47.387   4.255  17.291  0.00  0.00    +0.000 C 
ATOM     32  O   UNL     1      48.404   4.657  16.376  0.00  0.00    +0.000 OA
ENDBRANCH  22  32
ENDBRANCH  18  29
ENDBRANCH   1  20
TORSDOF 8
ENDMDL
MODEL 5
REMARK VINA RESULT:    -7.109      2.030      3.394
REMARK INTER + INTRA:         -12.039
REMARK INTER:                 -10.731
REMARK INTRA:                  -1.308
REMARK UNBOUND:                -1.605
REMARK  Name = 
REMARK  9 active torsions:
REMARK  status: ('A' for Active; 'I' for Inactive)
REMARK    1  A    between atoms: C_1  and  O_2
REMARK    2  A    between atoms: O_2  and  C_3
REMARK    3  A    between atoms: C_10  and  C_11
REMARK    4  A    between atoms: N_13  and  C_14
REMARK    5  A    between atoms: C_14  and  C_15
REMARK    6  A    between atoms: C_18  and  N_19
REMARK    7  A    between atoms: N_19  and  C_20
REMARK    8  A    between atoms: C_20  and  C_21
REMARK    9  A    between atoms: C_21  and  C_22
REMARK                            x       y       z     vdW  Elec       q    Type
REMARK                         _______ _______ _______ _____ _____    ______ ____
ROOT
ATOM      1  C   UNL     1      47.259   3.794  14.689  0.00  0.00    +0.000 C 
ENDROOT
BRANCH   1   2
ATOM      2  C   UNL     1      46.300   4.174  13.589  0.00  0.00    +0.000 A 
ATOM      3  C   UNL     1      46.089   5.517  13.263  0.00  0.00    +0.000 A 
ATOM      4  C   UNL     1      45.298   5.869  12.160  0.00  0.00    +0.000 A 
ATOM      5  C   UNL     1      44.714   4.891  11.349  0.00  0.00    +0.000 A 
ATOM      6  C   UNL     1      44.853   3.555  11.734  0.00  0.00    +0.000 A 
ATOM      7  C   UNL     1      45.633   3.197  12.842  0.00  0.00    +0.000 A 
BRANCH   5   8
ATOM      8  N   UNL     1      44.023   5.164  10.165  0.00  0.00    +0.000 N 
ATOM      9  H   UNL     1      44.039   6.155   9.933  0.00  0.00    +0.000 HD
BRANCH   8  10
ATOM     10  C   UNL     1      44.204   4.280   9.009  0.00  0.00    +0.000 C 
BRANCH  10  11
ATOM     11  C   UNL     1      45.572   4.532   8.368  0.00  0.00    +0.000 C 
BRANCH  11  12
ATOM     12  C   UNL     1      46.182   3.270   7.833  0.00  0.00    +0.000 A 
ATOM     13  C   UNL     1      46.974   3.305   6.688  0.00  0.00    +0.000 A 
ATOM     14  C   UNL     1      47.487   2.110   6.195  0.00  0.00    +0.000 A 
ATOM     15  C   UNL     1      47.192   0.921   6.848  0.00  0.00    +0.000 A 
ATOM     16  C   UNL     1      46.390   0.974   7.977  0.00  0.00    +0.000 A 
ATOM     17  N   UNL     1      45.882   2.118   8.480  0.00  0.00    +0.000 NA
ENDBRANCH  11  12
ENDBRANCH  10  11
ENDBRANCH   8  10
ENDBRANCH   5   8
ENDBRANCH   1   2
BRANCH   1  20
ATOM     18  C   UNL     1      47.999   4.642  16.868  0.00  0.00    +0.000 C 
ATOM     19  O   UNL     1      48.328   3.520  17.243  0.00  0.00    +0.000 OA
ATOM     20  N   UNL     1      47.511   4.876  15.605  0.00  0.00    +0.000 N 
ATOM     21  H   UNL     1      47.124   5.785  15.376  0.00  0.00    +0.000 HD
BRANCH  18  29
ATOM     22  C   UNL     1      49.899   7.440  16.571  0.00  0.00    +0.000 A 
ATOM     23  N   UNL     1      50.583   8.593  16.722  0.00  0.00    +0.000 NA
ATOM     24  C   UNL     1      50.375   9.308  17.831  0.00  0.00    +0.000 A 
ATOM     25  N   UNL     1      49.550   9.015  18.833  0.00  0.00    +0.000 NA
ATOM     26  C   UNL     1      48.898   7.854  18.651  0.00  0.00    +0.000 A 
ATOM     27  S   UNL     1      47.779   7.318  19.810  0.00  0.00    +0.000 S 
ATOM     28  C   UNL     1      47.430   5.920  18.903  0.00  0.00    +0.000 A 
ATOM     29  C   UNL     1      48.169   5.821  17.732  0.00  0.00    +0.000 A 
ATOM     30  C   UNL     1      49.018   6.990  17.569  0.00  0.00    +0.000 A 
BRANCH  22  32
ATOM     31  C   UNL     1      49.650   7.401  14.242  0.00  0.00    +0.000 C 
ATOM     32  O   UNL     1      50.067   6.708  15.416  0.00  0.00    +0.000 OA
ENDBRANCH  22  32
ENDBRANCH  18  29
ENDBRANCH   1  20
TORSDOF 8
ENDMDL
MODEL 6
REMARK VINA RESULT:    -6.455      4.167      9.012
REMARK INTER + INTRA:         -11.080
REMARK INTER:                  -9.779
REMARK INTRA:                  -1.300
REMARK UNBOUND:                -1.605
REMARK  Name = 
REMARK  9 active torsions:
REMARK  status: ('A' for Active; 'I' for Inactive)
REMARK    1  A    between atoms: C_1  and  O_2
REMARK    2  A    between atoms: O_2  and  C_3
REMARK    3  A    between atoms: C_10  and  C_11
REMARK    4  A    between atoms: N_13  and  C_14
REMARK    5  A    between atoms: C_14  and  C_15
REMARK    6  A    between atoms: C_18  and  N_19
REMARK    7  A    between atoms: N_19  and  C_20
REMARK    8  A    between atoms: C_20  and  C_21
REMARK    9  A    between atoms: C_21  and  C_22
REMARK                            x       y       z     vdW  Elec       q    Type
REMARK                         _______ _______ _______ _____ _____    ______ ____
ROOT
ATOM      1  C   UNL     1      47.157   3.415  16.762  0.00  0.00    +0.000 C 
ENDROOT
BRANCH   1   2
ATOM      2  C   UNL     1      48.607   3.438  17.172  0.00  0.00    +0.000 A 
ATOM      3  C   UNL     1      49.128   4.524  17.883  0.00  0.00    +0.000 A 
ATOM      4  C   UNL     1      50.441   4.492  18.375  0.00  0.00    +0.000 A 
ATOM      5  C   UNL     1      51.257   3.373  18.184  0.00  0.00    +0.000 A 
ATOM      6  C   UNL     1      50.763   2.331  17.393  0.00  0.00    +0.000 A 
ATOM      7  C   UNL     1      49.456   2.362  16.889  0.00  0.00    +0.000 A 
BRANCH   5   8
ATOM      8  N   UNL     1      52.525   3.220  18.753  0.00  0.00    +0.000 N 
ATOM      9  H   UNL     1      52.671   2.278  19.112  0.00  0.00    +0.000 HD
BRANCH   8  10
ATOM     10  C   UNL     1      53.692   3.782  18.067  0.00  0.00    +0.000 C 
BRANCH  10  11
ATOM     11  C   UNL     1      54.944   2.973  18.417  0.00  0.00    +0.000 C 
BRANCH  11  12
ATOM     12  C   UNL     1      54.861   1.563  17.912  0.00  0.00    +0.000 A 
ATOM     13  C   UNL     1      55.292   1.251  16.625  0.00  0.00    +0.000 A 
ATOM     14  C   UNL     1      55.160  -0.057  16.176  0.00  0.00    +0.000 A 
ATOM     15  C   UNL     1      54.598  -1.012  17.012  0.00  0.00    +0.000 A 
ATOM     16  C   UNL     1      54.187  -0.617  18.275  0.00  0.00    +0.000 A 
ATOM     17  N   UNL     1      54.306   0.644  18.740  0.00  0.00    +0.000 NA
ENDBRANCH  11  12
ENDBRANCH  10  11
ENDBRANCH   8  10
ENDBRANCH   5   8
ENDBRANCH   1   2
BRANCH   1  20
ATOM     18  C   UNL     1      46.929   4.289  14.481  0.00  0.00    +0.000 C 
ATOM     19  O   UNL     1      47.222   3.204  13.988  0.00  0.00    +0.000 OA
ATOM     20  N   UNL     1      46.823   4.470  15.839  0.00  0.00    +0.000 N 
ATOM     21  H   UNL     1      46.714   5.406  16.216  0.00  0.00    +0.000 HD
BRANCH  18  29
ATOM     22  C   UNL     1      44.182   5.113  12.665  0.00  0.00    +0.000 A 
ATOM     23  N   UNL     1      43.256   5.639  11.837  0.00  0.00    +0.000 NA
ATOM     24  C   UNL     1      43.538   6.797  11.232  0.00  0.00    +0.000 A 
ATOM     25  N   UNL     1      44.651   7.517  11.354  0.00  0.00    +0.000 NA
ATOM     26  C   UNL     1      45.551   6.953  12.178  0.00  0.00    +0.000 A 
ATOM     27  S   UNL     1      47.027   7.733  12.483  0.00  0.00    +0.000 S 
ATOM     28  C   UNL     1      47.529   6.487  13.528  0.00  0.00    +0.000 A 
ATOM     29  C   UNL     1      46.609   5.453  13.641  0.00  0.00    +0.000 A 
ATOM     30  C   UNL     1      45.418   5.750  12.860  0.00  0.00    +0.000 A 
BRANCH  22  32
ATOM     31  C   UNL     1      43.638   2.844  12.458  0.00  0.00    +0.000 C 
ATOM     32  O   UNL     1      43.894   3.941  13.331  0.00  0.00    +0.000 OA
ENDBRANCH  22  32
ENDBRANCH  18  29
ENDBRANCH   1  20
TORSDOF 8
ENDMDL
MODEL 7
REMARK VINA RESULT:    -6.433      4.578      6.233
REMARK INTER + INTRA:         -11.047
REMARK INTER:                  -9.892
REMARK INTRA:                  -1.155
REMARK UNBOUND:                -1.605
REMARK  Name = 
REMARK  9 active torsions:
REMARK  status: ('A' for Active; 'I' for Inactive)
REMARK    1  A    between atoms: C_1  and  O_2
REMARK    2  A    between atoms: O_2  and  C_3
REMARK    3  A    between atoms: C_10  and  C_11
REMARK    4  A    between atoms: N_13  and  C_14
REMARK    5  A    between atoms: C_14  and  C_15
REMARK    6  A    between atoms: C_18  and  N_19
REMARK    7  A    between atoms: N_19  and  C_20
REMARK    8  A    between atoms: C_20  and  C_21
REMARK    9  A    between atoms: C_21  and  C_22
REMARK                            x       y       z     vdW  Elec       q    Type
REMARK                         _______ _______ _______ _____ _____    ______ ____
ROOT
ATOM      1  C   UNL     1      48.859   7.358  13.105  0.00  0.00    +0.000 C 
ENDROOT
BRANCH   1   2
ATOM      2  C   UNL     1      47.706   6.526  12.604  0.00  0.00    +0.000 A 
ATOM      3  C   UNL     1      47.148   5.527  13.407  0.00  0.00    +0.000 A 
ATOM      4  C   UNL     1      45.997   4.839  12.996  0.00  0.00    +0.000 A 
ATOM      5  C   UNL     1      45.369   5.142  11.784  0.00  0.00    +0.000 A 
ATOM      6  C   UNL     1      45.984   6.075  10.944  0.00  0.00    +0.000 A 
ATOM      7  C   UNL     1      47.140   6.758  11.345  0.00  0.00    +0.000 A 
BRANCH   5   8
ATOM      8  N   UNL     1      44.153   4.589  11.371  0.00  0.00    +0.000 N 
ATOM      9  H   UNL     1      43.356   5.121  11.714  0.00  0.00    +0.000 HD
BRANCH   8  10
ATOM     10  C   UNL     1      44.008   4.129   9.986  0.00  0.00    +0.000 C 
BRANCH  10  11
ATOM     11  C   UNL     1      44.557   2.706   9.849  0.00  0.00    +0.000 C 
BRANCH  11  12
ATOM     12  C   UNL     1      45.501   2.577   8.690  0.00  0.00    +0.000 A 
ATOM     13  C   UNL     1      45.735   3.663   7.852  0.00  0.00    +0.000 A 
ATOM     14  C   UNL     1      46.582   3.495   6.763  0.00  0.00    +0.000 A 
ATOM     15  C   UNL     1      47.163   2.255   6.536  0.00  0.00    +0.000 A 
ATOM     16  C   UNL     1      46.871   1.224   7.415  0.00  0.00    +0.000 A 
ATOM     17  N   UNL     1      46.057   1.358   8.482  0.00  0.00    +0.000 NA
ENDBRANCH  11  12
ENDBRANCH  10  11
ENDBRANCH   8  10
ENDBRANCH   5   8
ENDBRANCH   1   2
BRANCH   1  20
ATOM     18  C   UNL     1      50.799   8.503  12.134  0.00  0.00    +0.000 C 
ATOM     19  O   UNL     1      51.536   8.111  13.034  0.00  0.00    +0.000 OA
ATOM     20  N   UNL     1      49.476   8.137  12.062  0.00  0.00    +0.000 N 
ATOM     21  H   UNL     1      48.866   8.585  11.387  0.00  0.00    +0.000 HD
BRANCH  18  29
ATOM     22  C   UNL     1      52.798   7.825   9.475  0.00  0.00    +0.000 A 
ATOM     23  N   UNL     1      53.600   7.835   8.391  0.00  0.00    +0.000 NA
ATOM     24  C   UNL     1      53.769   8.990   7.743  0.00  0.00    +0.000 A 
ATOM     25  N   UNL     1      53.223  10.167   8.043  0.00  0.00    +0.000 NA
ATOM     26  C   UNL     1      52.441  10.117   9.135  0.00  0.00    +0.000 A 
ATOM     27  S   UNL     1      51.634  11.514   9.664  0.00  0.00    +0.000 S 
ATOM     28  C   UNL     1      50.924  10.674  10.964  0.00  0.00    +0.000 A 
ATOM     29  C   UNL     1      51.305   9.340  11.036  0.00  0.00    +0.000 A 
ATOM     30  C   UNL     1      52.183   9.005   9.926  0.00  0.00    +0.000 A 
BRANCH  22  32
ATOM     31  C   UNL     1      53.580   5.654   9.879  0.00  0.00    +0.000 C 
ATOM     32  O   UNL     1      52.577   6.634  10.133  0.00  0.00    +0.000 OA
ENDBRANCH  22  32
ENDBRANCH  18  29
ENDBRANCH   1  20
TORSDOF 8
ENDMDL
MODEL 8
REMARK VINA RESULT:    -6.362      3.621      8.504
REMARK INTER + INTRA:         -10.942
REMARK INTER:                  -9.532
REMARK INTRA:                  -1.410
REMARK UNBOUND:                -1.605
REMARK  Name = 
REMARK  9 active torsions:
REMARK  status: ('A' for Active; 'I' for Inactive)
REMARK    1  A    between atoms: C_1  and  O_2
REMARK    2  A    between atoms: O_2  and  C_3
REMARK    3  A    between atoms: C_10  and  C_11
REMARK    4  A    between atoms: N_13  and  C_14
REMARK    5  A    between atoms: C_14  and  C_15
REMARK    6  A    between atoms: C_18  and  N_19
REMARK    7  A    between atoms: N_19  and  C_20
REMARK    8  A    between atoms: C_20  and  C_21
REMARK    9  A    between atoms: C_21  and  C_22
REMARK                            x       y       z     vdW  Elec       q    Type
REMARK                         _______ _______ _______ _____ _____    ______ ____
ROOT
ATOM      1  C   UNL     1      47.196   3.315  16.887  0.00  0.00    +0.000 C 
ENDROOT
BRANCH   1   2
ATOM      2  C   UNL     1      48.650   3.266  17.281  0.00  0.00    +0.000 A 
ATOM      3  C   UNL     1      49.435   2.153  16.964  0.00  0.00    +0.000 A 
ATOM      4  C   UNL     1      50.815   2.157  17.214  0.00  0.00    +0.000 A 
ATOM      5  C   UNL     1      51.444   3.273  17.772  0.00  0.00    +0.000 A 
ATOM      6  C   UNL     1      50.640   4.345  18.172  0.00  0.00    +0.000 A 
ATOM      7  C   UNL     1      49.260   4.343  17.934  0.00  0.00    +0.000 A 
BRANCH   5   8
ATOM      8  N   UNL     1      52.828   3.397  17.930  0.00  0.00    +0.000 N 
ATOM      9  H   UNL     1      53.341   2.821  17.267  0.00  0.00    +0.000 HD
BRANCH   8  10
ATOM     10  C   UNL     1      53.410   4.726  18.139  0.00  0.00    +0.000 C 
BRANCH  10  11
ATOM     11  C   UNL     1      54.384   5.054  17.003  0.00  0.00    +0.000 C 
BRANCH  11  12
ATOM     12  C   UNL     1      53.875   6.164  16.130  0.00  0.00    +0.000 A 
ATOM     13  C   UNL     1      52.581   6.649  16.295  0.00  0.00    +0.000 A 
ATOM     14  C   UNL     1      52.129   7.648  15.440  0.00  0.00    +0.000 A 
ATOM     15  C   UNL     1      52.971   8.127  14.446  0.00  0.00    +0.000 A 
ATOM     16  C   UNL     1      54.242   7.584  14.346  0.00  0.00    +0.000 A 
ATOM     17  N   UNL     1      54.709   6.618  15.163  0.00  0.00    +0.000 NA
ENDBRANCH  11  12
ENDBRANCH  10  11
ENDBRANCH   8  10
ENDBRANCH   5   8
ENDBRANCH   1   2
BRANCH   1  20
ATOM     18  C   UNL     1      47.038   4.227  14.615  0.00  0.00    +0.000 C 
ATOM     19  O   UNL     1      47.321   3.144  14.113  0.00  0.00    +0.000 OA
ATOM     20  N   UNL     1      46.904   4.390  15.973  0.00  0.00    +0.000 N 
ATOM     21  H   UNL     1      46.804   5.322  16.361  0.00  0.00    +0.000 HD
BRANCH  18  29
ATOM     22  C   UNL     1      44.356   5.125  12.737  0.00  0.00    +0.000 A 
ATOM     23  N   UNL     1      43.463   5.679  11.892  0.00  0.00    +0.000 NA
ATOM     24  C   UNL     1      43.780   6.842  11.315  0.00  0.00    +0.000 A 
ATOM     25  N   UNL     1      44.900   7.542  11.479  0.00  0.00    +0.000 NA
ATOM     26  C   UNL     1      45.768   6.950  12.318  0.00  0.00    +0.000 A 
ATOM     27  S   UNL     1      47.247   7.701  12.677  0.00  0.00    +0.000 S 
ATOM     28  C   UNL     1      47.700   6.430  13.715  0.00  0.00    +0.000 A 
ATOM     29  C   UNL     1      46.760   5.410  13.785  0.00  0.00    +0.000 A 
ATOM     30  C   UNL     1      45.596   5.739  12.977  0.00  0.00    +0.000 A 
BRANCH  22  32
ATOM     31  C   UNL     1      43.738   2.880  12.477  0.00  0.00    +0.000 C 
ATOM     32  O   UNL     1      44.031   3.947  13.375  0.00  0.00    +0.000 OA
ENDBRANCH  22  32
ENDBRANCH  18  29
ENDBRANCH   1  20
TORSDOF 8
ENDMDL
MODEL 9
REMARK VINA RESULT:    -6.197      3.592      7.926
REMARK INTER + INTRA:         -10.700
REMARK INTER:                  -8.796
REMARK INTRA:                  -1.904
REMARK UNBOUND:                -1.605
REMARK  Name = 
REMARK  9 active torsions:
REMARK  status: ('A' for Active; 'I' for Inactive)
REMARK    1  A    between atoms: C_1  and  O_2
REMARK    2  A    between atoms: O_2  and  C_3
REMARK    3  A    between atoms: C_10  and  C_11
REMARK    4  A    between atoms: N_13  and  C_14
REMARK    5  A    between atoms: C_14  and  C_15
REMARK    6  A    between atoms: C_18  and  N_19
REMARK    7  A    between atoms: N_19  and  C_20
REMARK    8  A    between atoms: C_20  and  C_21
REMARK    9  A    between atoms: C_21  and  C_22
REMARK                            x       y       z     vdW  Elec       q    Type
REMARK                         _______ _______ _______ _____ _____    ______ ____
ROOT
ATOM      1  C   UNL     1      47.847   8.904  13.881  0.00  0.00    +0.000 C 
ENDROOT
BRANCH   1   2
ATOM      2  C   UNL     1      48.341   8.506  15.248  0.00  0.00    +0.000 A 
ATOM      3  C   UNL     1      48.134   9.342  16.350  0.00  0.00    +0.000 A 
ATOM      4  C   UNL     1      48.478   8.920  17.642  0.00  0.00    +0.000 A 
ATOM      5  C   UNL     1      49.020   7.651  17.866  0.00  0.00    +0.000 A 
ATOM      6  C   UNL     1      49.310   6.858  16.753  0.00  0.00    +0.000 A 
ATOM      7  C   UNL     1      48.979   7.278  15.458  0.00  0.00    +0.000 A 
BRANCH   5   8
ATOM      8  N   UNL     1      49.266   7.116  19.135  0.00  0.00    +0.000 N 
ATOM      9  H   UNL     1      49.712   7.790  19.754  0.00  0.00    +0.000 HD
BRANCH   8  10
ATOM     10  C   UNL     1      48.230   6.306  19.784  0.00  0.00    +0.000 C 
BRANCH  10  11
ATOM     11  C   UNL     1      48.819   4.964  20.229  0.00  0.00    +0.000 C 
BRANCH  11  12
ATOM     12  C   UNL     1      49.325   4.160  19.067  0.00  0.00    +0.000 A 
ATOM     13  C   UNL     1      48.450   3.371  18.326  0.00  0.00    +0.000 A 
ATOM     14  C   UNL     1      48.960   2.605  17.284  0.00  0.00    +0.000 A 
ATOM     15  C   UNL     1      50.322   2.642  17.016  0.00  0.00    +0.000 A 
ATOM     16  C   UNL     1      51.125   3.449  17.806  0.00  0.00    +0.000 A 
ATOM     17  N   UNL     1      50.657   4.205  18.821  0.00  0.00    +0.000 NA
ENDBRANCH  11  12
ENDBRANCH  10  11
ENDBRANCH   8  10
ENDBRANCH   5   8
ENDBRANCH   1   2
BRANCH   1  20
ATOM     18  C   UNL     1      46.732   7.252  12.451  0.00  0.00    +0.000 C 
ATOM     19  O   UNL     1      47.786   6.954  11.896  0.00  0.00    +0.000 OA
ATOM     20  N   UNL     1      46.678   8.166  13.476  0.00  0.00    +0.000 N 
ATOM     21  H   UNL     1      45.779   8.487  13.817  0.00  0.00    +0.000 HD
BRANCH  18  29
ATOM     22  C   UNL     1      45.633   4.058  12.792  0.00  0.00    +0.000 A 
ATOM     23  N   UNL     1      44.988   2.874  12.759  0.00  0.00    +0.000 NA
ATOM     24  C   UNL     1      43.768   2.835  12.216  0.00  0.00    +0.000 A 
ATOM     25  N   UNL     1      43.090   3.854  11.691  0.00  0.00    +0.000 NA
ATOM     26  C   UNL     1      43.771   5.012  11.732  0.00  0.00    +0.000 A 
ATOM     27  S   UNL     1      43.063   6.434  11.133  0.00  0.00    +0.000 S 
ATOM     28  C   UNL     1      44.442   7.350  11.532  0.00  0.00    +0.000 A 
ATOM     29  C   UNL     1      45.464   6.597  12.094  0.00  0.00    +0.000 A 
ATOM     30  C   UNL     1      45.048   5.210  12.241  0.00  0.00    +0.000 A 
BRANCH  22  32
ATOM     31  C   UNL     1      46.819   4.398  14.783  0.00  0.00    +0.000 C 
ATOM     32  O   UNL     1      46.874   4.127  13.385  0.00  0.00    +0.000 OA
ENDBRANCH  22  32
ENDBRANCH  18  29
ENDBRANCH   1  20
TORSDOF 8
ENDMDL
