MODEL 1
REMARK VINA RESULT:    -8.104      0.000      0.000
REMARK INTER + INTRA:         -11.540
REMARK INTER:                 -10.946
REMARK INTRA:                  -0.593
REMARK UNBOUND:                -0.593
REMARK  Name = 
REMARK  7 active torsions:
REMARK  status: ('A' for Active; 'I' for Inactive)
REMARK    1  A    between atoms: N_1  and  C_2
REMARK    2  A    between atoms: C_2  and  C_3
REMARK    3  A    between atoms: C_6  and  N_7
REMARK    4  A    between atoms: N_7  and  C_8
REMARK    5  A    between atoms: C_8  and  C_9
REMARK    6  A    between atoms: C_9  and  C_12
REMARK    7  A    between atoms: C_15  and  O_16
REMARK                            x       y       z     vdW  Elec       q    Type
REMARK                         _______ _______ _______ _____ _____    ______ ____
ROOT
ATOM      1  C   UNL     1      43.403   4.303  10.869  0.00  0.00    +0.000 C 
ENDROOT
BRANCH   1   2
ATOM      2  C   UNL     1      43.615   5.431  11.911  0.00  0.00    +0.000 C 
ATOM      3  F   UNL     1      43.072   6.578  11.389  0.00  0.00    +0.000 F 
ATOM      4  F   UNL     1      42.836   5.143  12.999  0.00  0.00    +0.000 F 
BRANCH   2   5
ATOM      5  C   UNL     1      45.068   5.629  12.302  0.00  0.00    +0.000 A 
ATOM      6  C   UNL     1      45.645   4.887  13.348  0.00  0.00    +0.000 A 
ATOM      7  C   UNL     1      46.984   5.079  13.710  0.00  0.00    +0.000 A 
ATOM      8  C   UNL     1      47.756   6.014  13.024  0.00  0.00    +0.000 A 
ATOM      9  C   UNL     1      47.193   6.753  11.988  0.00  0.00    +0.000 A 
ATOM     10  F   UNL     1      47.924   7.659  11.323  0.00  0.00    +0.000 F 
ATOM     11  C   UNL     1      45.862   6.569  11.627  0.00  0.00    +0.000 A 
BRANCH   8  12
ATOM     12  O   UNL     1      49.064   6.222  13.354  0.00  0.00    +0.000 OA
ATOM     13  H   UNL     1      49.537   5.376  13.342  0.00  0.00    +0.000 HD
ENDBRANCH   8  12
ENDBRANCH   2   5
ENDBRANCH   1   2
BRANCH   1  14
ATOM     14  N   UNL     1      43.776   4.704   9.496  0.00  0.00    +0.000 N 
ATOM     15  H   UNL     1      42.962   4.765   8.888  0.00  0.00    +0.000 HD
BRANCH  14  19
ATOM     16  C   UNL     1      46.506   2.153   7.751  0.00  0.00    +0.000 A 
ATOM     17  C   UNL     1      46.433   3.490   7.378  0.00  0.00    +0.000 A 
ATOM     18  N   UNL     1      45.548   4.367   7.922  0.00  0.00    +0.000 NA
ATOM     19  C   UNL     1      44.743   3.885   8.890  0.00  0.00    +0.000 A 
ATOM     20  C   UNL     1      44.839   2.542   9.271  0.00  0.00    +0.000 A 
ATOM     21  N   UNL     1      45.711   1.656   8.730  0.00  0.00    +0.000 NA
BRANCH  16  22
ATOM     22  C   UNL     1      47.498   1.216   7.107  0.00  0.00    +0.000 C 
BRANCH  22  23
ATOM     23  N   UNL     1      48.346   1.895   6.127  0.00  0.00    +0.000 NA
ATOM     24  H   UNL     1      48.760   2.714   6.569  0.00  0.00    +0.000 HD
ATOM     25  H   UNL     1      47.735   2.261   5.394  0.00  0.00    +0.000 HD
ENDBRANCH  22  23
ENDBRANCH  16  22
ENDBRANCH  14  19
ENDBRANCH   1  14
TORSDOF 7
ENDMDL
MODEL 2
REMARK VINA RESULT:    -8.081      1.035      1.476
REMARK INTER + INTRA:         -11.509
REMARK INTER:                 -10.917
REMARK INTRA:                  -0.592
REMARK UNBOUND:                -0.593
REMARK  Name = 
REMARK  7 active torsions:
REMARK  status: ('A' for Active; 'I' for Inactive)
REMARK    1  A    between atoms: N_1  and  C_2
REMARK    2  A    between atoms: C_2  and  C_3
REMARK    3  A    between atoms: C_6  and  N_7
REMARK    4  A    between atoms: N_7  and  C_8
REMARK    5  A    between atoms: C_8  and  C_9
REMARK    6  A    between atoms: C_9  and  C_12
REMARK    7  A    between atoms: C_15  and  O_16
REMARK                            x       y       z     vdW  Elec       q    Type
REMARK                         _______ _______ _______ _____ _____    ______ ____
ROOT
ATOM      1  C   UNL     1      43.423   4.375  10.907  0.00  0.00    +0.000 C 
ENDROOT
BRANCH   1   2
ATOM      2  C   UNL     1      43.621   5.555  11.893  0.00  0.00    +0.000 C 
ATOM      3  F   UNL     1      43.102   6.677  11.297  0.00  0.00    +0.000 F 
ATOM      4  F   UNL     1      42.811   5.332  12.974  0.00  0.00    +0.000 F 
BRANCH   2   5
ATOM      5  C   UNL     1      45.065   5.760  12.310  0.00  0.00    +0.000 A 
ATOM      6  C   UNL     1      45.908   6.635  11.600  0.00  0.00    +0.000 A 
ATOM      7  C   UNL     1      47.242   6.815  11.984  0.00  0.00    +0.000 A 
ATOM      8  C   UNL     1      47.742   6.121  13.084  0.00  0.00    +0.000 A 
ATOM      9  C   UNL     1      46.916   5.252  13.791  0.00  0.00    +0.000 A 
ATOM     10  F   UNL     1      47.387   4.576  14.848  0.00  0.00    +0.000 F 
ATOM     11  C   UNL     1      45.590   5.067  13.411  0.00  0.00    +0.000 A 
BRANCH   8  12
ATOM     12  O   UNL     1      49.038   6.276  13.482  0.00  0.00    +0.000 OA
ATOM     13  H   UNL     1      49.177   5.803  14.317  0.00  0.00    +0.000 HD
ENDBRANCH   8  12
ENDBRANCH   2   5
ENDBRANCH   1   2
BRANCH   1  14
ATOM     14  N   UNL     1      43.772   4.720   9.513  0.00  0.00    +0.000 N 
ATOM     15  H   UNL     1      42.949   4.745   8.914  0.00  0.00    +0.000 HD
BRANCH  14  19
ATOM     16  C   UNL     1      46.505   2.128   7.833  0.00  0.00    +0.000 A 
ATOM     17  C   UNL     1      46.443   3.460   7.440  0.00  0.00    +0.000 A 
ATOM     18  N   UNL     1      45.559   4.350   7.963  0.00  0.00    +0.000 NA
ATOM     19  C   UNL     1      44.740   3.887   8.928  0.00  0.00    +0.000 A 
ATOM     20  C   UNL     1      44.824   2.549   9.330  0.00  0.00    +0.000 A 
ATOM     21  N   UNL     1      45.696   1.649   8.810  0.00  0.00    +0.000 NA
BRANCH  16  22
ATOM     22  C   UNL     1      47.497   1.175   7.213  0.00  0.00    +0.000 C 
BRANCH  22  23
ATOM     23  N   UNL     1      48.387   1.843   6.263  0.00  0.00    +0.000 NA
ATOM     24  H   UNL     1      48.038   1.677   5.320  0.00  0.00    +0.000 HD
ATOM     25  H   UNL     1      49.292   1.370   6.306  0.00  0.00    +0.000 HD
ENDBRANCH  22  23
ENDBRANCH  16  22
ENDBRANCH  14  19
ENDBRANCH   1  14
TORSDOF 7
ENDMDL
MODEL 3
REMARK VINA RESULT:    -7.568      4.001      6.475
REMARK INTER + INTRA:         -10.816
REMARK INTER:                 -10.415
REMARK INTRA:                  -0.400
REMARK UNBOUND:                -0.593
REMARK  Name = 
REMARK  7 active torsions:
REMARK  status: ('A' for Active; 'I' for Inactive)
REMARK    1  A    between atoms: N_1  and  C_2
REMARK    2  A    between atoms: C_2  and  C_3
REMARK    3  A    between atoms: C_6  and  N_7
REMARK    4  A    between atoms: N_7  and  C_8
REMARK    5  A    between atoms: C_8  and  C_9
REMARK    6  A    between atoms: C_9  and  C_12
REMARK    7  A    between atoms: C_15  and  O_16
REMARK                            x       y       z     vdW  Elec       q    Type
REMARK                         _______ _______ _______ _____ _____    ______ ____
ROOT
ATOM      1  C   UNL     1      45.234   4.903  10.298  0.00  0.00    +0.000 C 
ENDROOT
BRANCH   1   2
ATOM      2  C   UNL     1      44.639   3.832   9.347  0.00  0.00    +0.000 C 
ATOM      3  F   UNL     1      44.038   2.878  10.129  0.00  0.00    +0.000 F 
ATOM      4  F   UNL     1      43.609   4.416   8.660  0.00  0.00    +0.000 F 
BRANCH   2   5
ATOM      5  C   UNL     1      45.662   3.221   8.408  0.00  0.00    +0.000 A 
ATOM      6  C   UNL     1      46.361   4.015   7.481  0.00  0.00    +0.000 A 
ATOM      7  C   UNL     1      47.299   3.445   6.611  0.00  0.00    +0.000 A 
ATOM      8  C   UNL     1      47.544   2.074   6.665  0.00  0.00    +0.000 A 
ATOM      9  C   UNL     1      46.856   1.281   7.578  0.00  0.00    +0.000 A 
ATOM     10  F   UNL     1      47.081  -0.039   7.636  0.00  0.00    +0.000 F 
ATOM     11  C   UNL     1      45.921   1.842   8.442  0.00  0.00    +0.000 A 
BRANCH   8  12
ATOM     12  O   UNL     1      48.452   1.490   5.830  0.00  0.00    +0.000 OA
ATOM     13  H   UNL     1      48.976   2.179   5.393  0.00  0.00    +0.000 HD
ENDBRANCH   8  12
ENDBRANCH   2   5
ENDBRANCH   1   2
BRANCH   1  14
ATOM     14  N   UNL     1      45.113   4.540  11.726  0.00  0.00    +0.000 N 
ATOM     15  H   UNL     1      44.170   4.701  12.076  0.00  0.00    +0.000 HD
BRANCH  14  19
ATOM     16  C   UNL     1      47.891   6.258  14.243  0.00  0.00    +0.000 A 
ATOM     17  C   UNL     1      47.282   6.997  13.236  0.00  0.00    +0.000 A 
ATOM     18  N   UNL     1      46.364   6.474  12.381  0.00  0.00    +0.000 NA
ATOM     19  C   UNL     1      46.032   5.182  12.573  0.00  0.00    +0.000 A 
ATOM     20  C   UNL     1      46.637   4.453  13.603  0.00  0.00    +0.000 A 
ATOM     21  N   UNL     1      47.561   4.961  14.457  0.00  0.00    +0.000 NA
BRANCH  16  22
ATOM     22  C   UNL     1      48.915   6.882  15.160  0.00  0.00    +0.000 C 
BRANCH  22  23
ATOM     23  N   UNL     1      50.217   7.037  14.511  0.00  0.00    +0.000 NA
ATOM     24  H   UNL     1      50.138   7.757  13.794  0.00  0.00    +0.000 HD
ATOM     25  H   UNL     1      50.414   6.170  14.006  0.00  0.00    +0.000 HD
ENDBRANCH  22  23
ENDBRANCH  16  22
ENDBRANCH  14  19
ENDBRANCH   1  14
TORSDOF 7
ENDMDL
MODEL 4
REMARK VINA RESULT:    -6.928      1.386      1.620
REMARK INTER + INTRA:          -9.951
REMARK INTER:                  -9.439
REMARK INTRA:                  -0.512
REMARK UNBOUND:                -0.593
REMARK  Name = 
REMARK  7 active torsions:
REMARK  status: ('A' for Active; 'I' for Inactive)
REMARK    1  A    between atoms: N_1  and  C_2
REMARK    2  A    between atoms: C_2  and  C_3
REMARK    3  A    between atoms: C_6  and  N_7
REMARK    4  A    between atoms: N_7  and  C_8
REMARK    5  A    between atoms: C_8  and  C_9
REMARK    6  A    between atoms: C_9  and  C_12
REMARK    7  A    between atoms: C_15  and  O_16
REMARK                            x       y       z     vdW  Elec       q    Type
REMARK                         _______ _______ _______ _____ _____    ______ ____
ROOT
ATOM      1  C   UNL     1      44.291   4.285  11.402  0.00  0.00    +0.000 C 
ENDROOT
BRANCH   1   2
ATOM      2  C   UNL     1      43.939   5.710  11.902  0.00  0.00    +0.000 C 
ATOM      3  F   UNL     1      42.959   6.203  11.078  0.00  0.00    +0.000 F 
ATOM      4  F   UNL     1      43.333   5.582  13.123  0.00  0.00    +0.000 F 
BRANCH   2   5
ATOM      5  C   UNL     1      45.136   6.641  11.967  0.00  0.00    +0.000 A 
ATOM      6  C   UNL     1      46.448   6.136  11.966  0.00  0.00    +0.000 A 
ATOM      7  C   UNL     1      47.549   6.999  12.034  0.00  0.00    +0.000 A 
ATOM      8  C   UNL     1      47.342   8.375  12.102  0.00  0.00    +0.000 A 
ATOM      9  C   UNL     1      46.047   8.883  12.106  0.00  0.00    +0.000 A 
ATOM     10  F   UNL     1      45.835  10.205  12.175  0.00  0.00    +0.000 F 
ATOM     11  C   UNL     1      44.950   8.030  12.042  0.00  0.00    +0.000 A 
BRANCH   8  12
ATOM     12  O   UNL     1      48.395   9.241  12.170  0.00  0.00    +0.000 OA
ATOM     13  H   UNL     1      49.019   8.936  12.846  0.00  0.00    +0.000 HD
ENDBRANCH   8  12
ENDBRANCH   2   5
ENDBRANCH   1   2
BRANCH   1  14
ATOM     14  N   UNL     1      43.805   4.016  10.032  0.00  0.00    +0.000 N 
ATOM     15  H   UNL     1      42.995   3.399  10.035  0.00  0.00    +0.000 HD
BRANCH  14  19
ATOM     16  C   UNL     1      46.575   2.323   7.488  0.00  0.00    +0.000 A 
ATOM     17  C   UNL     1      46.240   3.669   7.392  0.00  0.00    +0.000 A 
ATOM     18  N   UNL     1      45.332   4.269   8.205  0.00  0.00    +0.000 NA
ATOM     19  C   UNL     1      44.775   3.496   9.158  0.00  0.00    +0.000 A 
ATOM     20  C   UNL     1      45.134   2.148   9.259  0.00  0.00    +0.000 A 
ATOM     21  N   UNL     1      46.032   1.535   8.448  0.00  0.00    +0.000 NA
BRANCH  16  22
ATOM     22  C   UNL     1      47.581   1.699   6.553  0.00  0.00    +0.000 C 
BRANCH  22  23
ATOM     23  N   UNL     1      48.737   2.566   6.325  0.00  0.00    +0.000 NA
ATOM     24  H   UNL     1      48.591   3.440   6.828  0.00  0.00    +0.000 HD
ATOM     25  H   UNL     1      48.739   2.821   5.334  0.00  0.00    +0.000 HD
ENDBRANCH  22  23
ENDBRANCH  16  22
ENDBRANCH  14  19
ENDBRANCH   1  14
TORSDOF 7
ENDMDL
MODEL 5
REMARK VINA RESULT:    -6.900      4.140      6.480
REMARK INTER + INTRA:          -9.913
REMARK INTER:                  -9.387
REMARK INTRA:                  -0.526
REMARK UNBOUND:                -0.593
REMARK  Name = 
REMARK  7 active torsions:
REMARK  status: ('A' for Active; 'I' for Inactive)
REMARK    1  A    between atoms: N_1  and  C_2
REMARK    2  A    between atoms: C_2  and  C_3
REMARK    3  A    between atoms: C_6  and  N_7
REMARK    4  A    between atoms: N_7  and  C_8
REMARK    5  A    between atoms: C_8  and  C_9
REMARK    6  A    between atoms: C_9  and  C_12
REMARK    7  A    between atoms: C_15  and  O_16
REMARK                            x       y       z     vdW  Elec       q    Type
REMARK                         _______ _______ _______ _____ _____    ______ ____
ROOT
ATOM      1  C   UNL     1      46.172   7.150  12.791  0.00  0.00    +0.000 C 
ENDROOT
BRANCH   1   2
ATOM      2  C   UNL     1      45.593   6.697  11.426  0.00  0.00    +0.000 C 
ATOM      3  F   UNL     1      44.801   7.715  10.958  0.00  0.00    +0.000 F 
ATOM      4  F   UNL     1      46.633   6.631  10.537  0.00  0.00    +0.000 F 
BRANCH   2   5
ATOM      5  C   UNL     1      44.834   5.384  11.495  0.00  0.00    +0.000 A 
ATOM      6  C   UNL     1      44.043   5.063  12.612  0.00  0.00    +0.000 A 
ATOM      7  C   UNL     1      43.350   3.847  12.675  0.00  0.00    +0.000 A 
ATOM      8  C   UNL     1      43.445   2.945  11.618  0.00  0.00    +0.000 A 
ATOM      9  C   UNL     1      44.228   3.255  10.509  0.00  0.00    +0.000 A 
ATOM     10  F   UNL     1      44.330   2.393   9.487  0.00  0.00    +0.000 F 
ATOM     11  C   UNL     1      44.920   4.460  10.443  0.00  0.00    +0.000 A 
BRANCH   8  12
ATOM     12  O   UNL     1      42.782   1.753  11.650  0.00  0.00    +0.000 OA
ATOM     13  H   UNL     1      42.492   1.571  12.557  0.00  0.00    +0.000 HD
ENDBRANCH   8  12
ENDBRANCH   2   5
ENDBRANCH   1   2
BRANCH   1  14
ATOM     14  N   UNL     1      47.525   6.615  13.053  0.00  0.00    +0.000 N 
ATOM     15  H   UNL     1      47.877   6.078  12.262  0.00  0.00    +0.000 HD
BRANCH  14  19
ATOM     16  C   UNL     1      47.805   4.185  16.373  0.00  0.00    +0.000 A 
ATOM     17  C   UNL     1      48.468   5.405  16.319  0.00  0.00    +0.000 A 
ATOM     18  N   UNL     1      48.408   6.238  15.246  0.00  0.00    +0.000 NA
ATOM     19  C   UNL     1      47.632   5.839  14.219  0.00  0.00    +0.000 A 
ATOM     20  C   UNL     1      46.953   4.617  14.293  0.00  0.00    +0.000 A 
ATOM     21  N   UNL     1      47.012   3.775  15.354  0.00  0.00    +0.000 NA
BRANCH  16  22
ATOM     22  C   UNL     1      47.913   3.290  17.583  0.00  0.00    +0.000 C 
BRANCH  22  23
ATOM     23  N   UNL     1      46.665   2.579  17.858  0.00  0.00    +0.000 NA
ATOM     24  H   UNL     1      46.680   2.259  18.826  0.00  0.00    +0.000 HD
ATOM     25  H   UNL     1      46.665   1.727  17.291  0.00  0.00    +0.000 HD
ENDBRANCH  22  23
ENDBRANCH  16  22
ENDBRANCH  14  19
ENDBRANCH   1  14
TORSDOF 7
ENDMDL
MODEL 6
REMARK VINA RESULT:    -6.737      3.706      5.805
REMARK INTER + INTRA:          -9.693
REMARK INTER:                  -9.002
REMARK INTRA:                  -0.691
REMARK UNBOUND:                -0.593
REMARK  Name = 
REMARK  7 active torsions:
REMARK  status: ('A' for Active; 'I' for Inactive)
REMARK    1  A    between atoms: N_1  and  C_2
REMARK    2  A    between atoms: C_2  and  C_3
REMARK    3  A    between atoms: C_6  and  N_7
REMARK    4  A    between atoms: N_7  and  C_8
REMARK    5  A    between atoms: C_8  and  C_9
REMARK    6  A    between atoms: C_9  and  C_12
REMARK    7  A    between atoms: C_15  and  O_16
REMARK                            x       y       z     vdW  Elec       q    Type
REMARK                         _______ _______ _______ _____ _____    ______ ____
ROOT
ATOM      1  C   UNL     1      43.582   4.516  11.939  0.00  0.00    +0.000 C 
ENDROOT
BRANCH   1   2
ATOM      2  C   UNL     1      44.117   3.191  11.339  0.00  0.00    +0.000 C 
ATOM      3  F   UNL     1      44.905   2.597  12.293  0.00  0.00    +0.000 F 
ATOM      4  F   UNL     1      43.053   2.342  11.192  0.00  0.00    +0.000 F 
BRANCH   2   5
ATOM      5  C   UNL     1      44.867   3.377  10.032  0.00  0.00    +0.000 A 
ATOM      6  C   UNL     1      45.184   4.662   9.555  0.00  0.00    +0.000 A 
ATOM      7  C   UNL     1      45.869   4.829   8.345  0.00  0.00    +0.000 A 
ATOM      8  C   UNL     1      46.242   3.710   7.605  0.00  0.00    +0.000 A 
ATOM      9  C   UNL     1      45.931   2.435   8.069  0.00  0.00    +0.000 A 
ATOM     10  F   UNL     1      46.282   1.350   7.363  0.00  0.00    +0.000 F 
ATOM     11  C   UNL     1      45.248   2.263   9.268  0.00  0.00    +0.000 A 
BRANCH   8  12
ATOM     12  O   UNL     1      46.911   3.841   6.423  0.00  0.00    +0.000 OA
ATOM     13  H   UNL     1      47.838   3.588   6.547  0.00  0.00    +0.000 HD
ENDBRANCH   8  12
ENDBRANCH   2   5
ENDBRANCH   1   2
BRANCH   1  14
ATOM     14  N   UNL     1      44.161   4.828  13.263  0.00  0.00    +0.000 N 
ATOM     15  H   UNL     1      43.471   5.244  13.887  0.00  0.00    +0.000 HD
BRANCH  14  19
ATOM     16  C   UNL     1      47.608   7.087  13.128  0.00  0.00    +0.000 A 
ATOM     17  C   UNL     1      46.381   7.628  12.765  0.00  0.00    +0.000 A 
ATOM     18  N   UNL     1      45.220   6.922  12.791  0.00  0.00    +0.000 NA
ATOM     19  C   UNL     1      45.300   5.649  13.225  0.00  0.00    +0.000 A 
ATOM     20  C   UNL     1      46.538   5.120  13.607  0.00  0.00    +0.000 A 
ATOM     21  N   UNL     1      47.705   5.812  13.578  0.00  0.00    +0.000 NA
BRANCH  16  22
ATOM     22  C   UNL     1      48.873   7.908  13.072  0.00  0.00    +0.000 C 
BRANCH  22  23
ATOM     23  N   UNL     1      50.075   7.075  13.088  0.00  0.00    +0.000 NA
ATOM     24  H   UNL     1      50.784   7.539  13.654  0.00  0.00    +0.000 HD
ATOM     25  H   UNL     1      50.452   7.061  12.138  0.00  0.00    +0.000 HD
ENDBRANCH  22  23
ENDBRANCH  16  22
ENDBRANCH  14  19
ENDBRANCH   1  14
TORSDOF 7
ENDMDL
MODEL 7
REMARK VINA RESULT:    -6.513      4.942      7.482
REMARK INTER + INTRA:          -9.390
REMARK INTER:                  -8.956
REMARK INTRA:                  -0.434
REMARK UNBOUND:                -0.593
REMARK  Name = 
REMARK  7 active torsions:
REMARK  status: ('A' for Active; 'I' for Inactive)
REMARK    1  A    between atoms: N_1  and  C_2
REMARK    2  A    between atoms: C_2  and  C_3
REMARK    3  A    between atoms: C_6  and  N_7
REMARK    4  A    between atoms: N_7  and  C_8
REMARK    5  A    between atoms: C_8  and  C_9
REMARK    6  A    between atoms: C_9  and  C_12
REMARK    7  A    between atoms: C_15  and  O_16
REMARK                            x       y       z     vdW  Elec       q    Type
REMARK                         _______ _______ _______ _____ _____    ______ ____
ROOT
ATOM      1  C   UNL     1      46.501   5.087  13.570  0.00  0.00    +0.000 C 
ENDROOT
BRANCH   1   2
ATOM      2  C   UNL     1      45.118   5.047  12.871  0.00  0.00    +0.000 C 
ATOM      3  F   UNL     1      44.315   4.205  13.599  0.00  0.00    +0.000 F 
ATOM      4  F   UNL     1      44.545   6.282  13.014  0.00  0.00    +0.000 F 
BRANCH   2   5
ATOM      5  C   UNL     1      45.188   4.629  11.413  0.00  0.00    +0.000 A 
ATOM      6  C   UNL     1      45.635   5.523  10.424  0.00  0.00    +0.000 A 
ATOM      7  C   UNL     1      45.691   5.136   9.079  0.00  0.00    +0.000 A 
ATOM      8  C   UNL     1      45.300   3.849   8.716  0.00  0.00    +0.000 A 
ATOM      9  C   UNL     1      44.854   2.959   9.689  0.00  0.00    +0.000 A 
ATOM     10  F   UNL     1      44.471   1.719   9.351  0.00  0.00    +0.000 F 
ATOM     11  C   UNL     1      44.793   3.340  11.025  0.00  0.00    +0.000 A 
BRANCH   8  12
ATOM     12  O   UNL     1      45.343   3.443   7.414  0.00  0.00    +0.000 OA
ATOM     13  H   UNL     1      45.966   2.705   7.328  0.00  0.00    +0.000 HD
ENDBRANCH   8  12
ENDBRANCH   2   5
ENDBRANCH   1   2
BRANCH   1  14
ATOM     14  N   UNL     1      46.793   3.864  14.347  0.00  0.00    +0.000 N 
ATOM     15  H   UNL     1      45.997   3.228  14.361  0.00  0.00    +0.000 HD
BRANCH  14  19
ATOM     16  C   UNL     1      48.066   4.723  18.174  0.00  0.00    +0.000 A 
ATOM     17  C   UNL     1      47.242   3.634  17.919  0.00  0.00    +0.000 A 
ATOM     18  N   UNL     1      46.795   3.313  16.677  0.00  0.00    +0.000 NA
ATOM     19  C   UNL     1      47.220   4.096  15.665  0.00  0.00    +0.000 A 
ATOM     20  C   UNL     1      48.066   5.178  15.930  0.00  0.00    +0.000 A 
ATOM     21  N   UNL     1      48.511   5.513  17.166  0.00  0.00    +0.000 NA
BRANCH  16  22
ATOM     22  C   UNL     1      48.526   5.046  19.574  0.00  0.00    +0.000 C 
BRANCH  22  23
ATOM     23  N   UNL     1      48.458   3.883  20.460  0.00  0.00    +0.000 NA
ATOM     24  H   UNL     1      48.713   4.178  21.402  0.00  0.00    +0.000 HD
ATOM     25  H   UNL     1      49.193   3.234  20.171  0.00  0.00    +0.000 HD
ENDBRANCH  22  23
ENDBRANCH  16  22
ENDBRANCH  14  19
ENDBRANCH   1  14
TORSDOF 7
ENDMDL
MODEL 8
REMARK VINA RESULT:    -6.399      3.872      6.370
REMARK INTER + INTRA:          -9.237
REMARK INTER:                  -8.934
REMARK INTRA:                  -0.303
REMARK UNBOUND:                -0.593
REMARK  Name = 
REMARK  7 active torsions:
REMARK  status: ('A' for Active; 'I' for Inactive)
REMARK    1  A    between atoms: N_1  and  C_2
REMARK    2  A    between atoms: C_2  and  C_3
REMARK    3  A    between atoms: C_6  and  N_7
REMARK    4  A    between atoms: N_7  and  C_8
REMARK    5  A    between atoms: C_8  and  C_9
REMARK    6  A    between atoms: C_9  and  C_12
REMARK    7  A    between atoms: C_15  and  O_16
REMARK                            x       y       z     vdW  Elec       q    Type
REMARK                         _______ _______ _______ _____ _____    ______ ____
ROOT
ATOM      1  C   UNL     1      44.950   5.803  11.401  0.00  0.00    +0.000 C 
ENDROOT
BRANCH   1   2
ATOM      2  C   UNL     1      44.169   4.651  10.719  0.00  0.00    +0.000 C 
ATOM      3  F   UNL     1      43.801   3.766  11.701  0.00  0.00    +0.000 F 
ATOM      4  F   UNL     1      42.988   5.167  10.258  0.00  0.00    +0.000 F 
BRANCH   2   5
ATOM      5  C   UNL     1      44.948   3.964   9.612  0.00  0.00    +0.000 A 
ATOM      6  C   UNL     1      45.656   4.710   8.653  0.00  0.00    +0.000 A 
ATOM      7  C   UNL     1      46.366   4.072   7.629  0.00  0.00    +0.000 A 
ATOM      8  C   UNL     1      46.374   2.680   7.560  0.00  0.00    +0.000 A 
ATOM      9  C   UNL     1      45.675   1.934   8.504  0.00  0.00    +0.000 A 
ATOM     10  F   UNL     1      45.672   0.595   8.445  0.00  0.00    +0.000 F 
ATOM     11  C   UNL     1      44.965   2.564   9.521  0.00  0.00    +0.000 A 
BRANCH   8  12
ATOM     12  O   UNL     1      47.058   2.030   6.573  0.00  0.00    +0.000 OA
ATOM     13  H   UNL     1      47.448   2.681   5.970  0.00  0.00    +0.000 HD
ENDBRANCH   8  12
ENDBRANCH   2   5
ENDBRANCH   1   2
BRANCH   1  14
ATOM     14  N   UNL     1      46.379   5.489  11.612  0.00  0.00    +0.000 N 
ATOM     15  H   UNL     1      46.679   4.700  11.041  0.00  0.00    +0.000 HD
BRANCH  14  19
ATOM     16  C   UNL     1      47.441   4.604  15.497  0.00  0.00    +0.000 A 
ATOM     17  C   UNL     1      47.673   5.865  14.959  0.00  0.00    +0.000 A 
ATOM     18  N   UNL     1      47.343   6.201  13.684  0.00  0.00    +0.000 NA
ATOM     19  C   UNL     1      46.735   5.249  12.949  0.00  0.00    +0.000 A 
ATOM     20  C   UNL     1      46.489   3.990  13.508  0.00  0.00    +0.000 A 
ATOM     21  N   UNL     1      46.821   3.639  14.775  0.00  0.00    +0.000 NA
BRANCH  16  22
ATOM     22  C   UNL     1      47.837   4.275  16.915  0.00  0.00    +0.000 C 
BRANCH  22  23
ATOM     23  N   UNL     1      47.071   5.044  17.896  0.00  0.00    +0.000 NA
ATOM     24  H   UNL     1      47.102   4.554  18.789  0.00  0.00    +0.000 HD
ATOM     25  H   UNL     1      46.090   5.020  17.607  0.00  0.00    +0.000 HD
ENDBRANCH  22  23
ENDBRANCH  16  22
ENDBRANCH  14  19
ENDBRANCH   1  14
TORSDOF 7
ENDMDL
MODEL 9
REMARK VINA RESULT:    -6.225      4.889      6.367
REMARK INTER + INTRA:          -9.001
REMARK INTER:                  -8.599
REMARK INTRA:                  -0.402
REMARK UNBOUND:                -0.593
REMARK  Name = 
REMARK  7 active torsions:
REMARK  status: ('A' for Active; 'I' for Inactive)
REMARK    1  A    between atoms: N_1  and  C_2
REMARK    2  A    between atoms: C_2  and  C_3
REMARK    3  A    between atoms: C_6  and  N_7
REMARK    4  A    between atoms: N_7  and  C_8
REMARK    5  A    between atoms: C_8  and  C_9
REMARK    6  A    between atoms: C_9  and  C_12
REMARK    7  A    between atoms: C_15  and  O_16
REMARK                            x       y       z     vdW  Elec       q    Type
REMARK                         _______ _______ _______ _____ _____    ______ ____
ROOT
ATOM      1  C   UNL     1      47.247   3.557  15.420  0.00  0.00    +0.000 C 
ENDROOT
BRANCH   1   2
ATOM      2  C   UNL     1      47.547   3.645  16.938  0.00  0.00    +0.000 C 
ATOM      3  F   UNL     1      47.040   4.838  17.388  0.00  0.00    +0.000 F 
ATOM      4  F   UNL     1      46.794   2.689  17.566  0.00  0.00    +0.000 F 
BRANCH   2   5
ATOM      5  C   UNL     1      49.021   3.502  17.273  0.00  0.00    +0.000 A 
ATOM      6  C   UNL     1      49.752   4.581  17.802  0.00  0.00    +0.000 A 
ATOM      7  C   UNL     1      51.113   4.447  18.102  0.00  0.00    +0.000 A 
ATOM      8  C   UNL     1      51.751   3.230  17.876  0.00  0.00    +0.000 A 
ATOM      9  C   UNL     1      51.036   2.158  17.351  0.00  0.00    +0.000 A 
ATOM     10  F   UNL     1      51.641   0.982  17.125  0.00  0.00    +0.000 F 
ATOM     11  C   UNL     1      49.684   2.287  17.048  0.00  0.00    +0.000 A 
BRANCH   8  12
ATOM     12  O   UNL     1      53.077   3.069  18.158  0.00  0.00    +0.000 OA
ATOM     13  H   UNL     1      53.456   2.409  17.558  0.00  0.00    +0.000 HD
ENDBRANCH   8  12
ENDBRANCH   2   5
ENDBRANCH   1   2
BRANCH   1  14
ATOM     14  N   UNL     1      46.697   4.812  14.865  0.00  0.00    +0.000 N 
ATOM     15  H   UNL     1      46.075   5.274  15.526  0.00  0.00    +0.000 HD
BRANCH  14  19
ATOM     16  C   UNL     1      44.819   4.551  11.202  0.00  0.00    +0.000 A 
ATOM     17  C   UNL     1      45.159   3.409  11.917  0.00  0.00    +0.000 A 
ATOM     18  N   UNL     1      45.781   3.445  13.125  0.00  0.00    +0.000 NA
ATOM     19  C   UNL     1      46.034   4.667  13.635  0.00  0.00    +0.000 A 
ATOM     20  C   UNL     1      45.669   5.811  12.915  0.00  0.00    +0.000 A 
ATOM     21  N   UNL     1      45.056   5.787  11.705  0.00  0.00    +0.000 NA
BRANCH  16  22
ATOM     22  C   UNL     1      44.140   4.459   9.858  0.00  0.00    +0.000 C 
BRANCH  22  23
ATOM     23  N   UNL     1      45.015   4.887   8.766  0.00  0.00    +0.000 NA
ATOM     24  H   UNL     1      44.937   4.215   8.005  0.00  0.00    +0.000 HD
ATOM     25  H   UNL     1      45.979   4.812   9.097  0.00  0.00    +0.000 HD
ENDBRANCH  22  23
ENDBRANCH  16  22
ENDBRANCH  14  19
ENDBRANCH   1  14
TORSDOF 7
ENDMDL
