MODEL 1
REMARK VINA RESULT:    -8.286      0.000      0.000
REMARK INTER + INTRA:         -12.206
REMARK INTER:                 -11.193
REMARK INTRA:                  -1.014
REMARK UNBOUND:                -1.014
REMARK  Name = 
REMARK  8 active torsions:
REMARK  status: ('A' for Active; 'I' for Inactive)
REMARK    1  A    between atoms: C_1  and  C_2
REMARK    2  A    between atoms: C_2  and  C_3
REMARK    3  A    between atoms: C_2  and  C_14
REMARK    4  A    between atoms: C_3  and  N_4
REMARK    5  A    between atoms: N_4  and  C_5
REMARK    6  A    between atoms: C_8  and  C_9
REMARK    7  A    between atoms: N_22  and  S_23
REMARK    8  A    between atoms: S_23  and  C_24
REMARK                            x       y       z     vdW  Elec       q    Type
REMARK                         _______ _______ _______ _____ _____    ______ ____
ROOT
ATOM      1  C   UNL     1      42.681   5.479  12.492  0.00  0.00    +0.000 C 
ATOM      2  C   UNL     1      43.465   4.168  12.524  0.00  0.00    +0.000 C 
ENDROOT
BRANCH   2   3
ATOM      3  C   UNL     1      44.902   4.413  12.987  0.00  0.00    +0.000 A 
ATOM      4  C   UNL     1      45.824   3.375  13.125  0.00  0.00    +0.000 A 
ATOM      5  C   UNL     1      47.134   3.686  13.472  0.00  0.00    +0.000 A 
ATOM      6  N   UNL     1      47.598   4.945  13.649  0.00  0.00    +0.000 NA
ATOM      7  C   UNL     1      46.718   5.949  13.492  0.00  0.00    +0.000 A 
ATOM      8  N   UNL     1      47.119   7.300  13.505  0.00  0.00    +0.000 N 
ATOM      9  C   UNL     1      48.388   7.524  14.221  0.00  0.00    +0.000 C 
ATOM     10  C   UNL     1      48.804   9.005  14.147  0.00  0.00    +0.000 C 
ATOM     11  N   UNL     1      48.798   9.500  12.741  0.00  0.00    +0.000 NA
ATOM     12  C   UNL     1      47.467   9.332  12.116  0.00  0.00    +0.000 C 
ATOM     13  C   UNL     1      47.042   7.861  12.129  0.00  0.00    +0.000 C 
ATOM     14  C   UNL     1      45.376   5.703  13.223  0.00  0.00    +0.000 A 
BRANCH  11  15
ATOM     15  S   UNL     1      50.183   9.393  11.806  0.00  0.00    +0.000 S 
ATOM     16  C   UNL     1      51.566   9.706  12.886  0.00  0.00    +0.000 C 
ATOM     17  O   UNL     1      50.293   8.024  11.346  0.00  0.00    +0.000 OA
ATOM     18  O   UNL     1      50.138  10.487  10.856  0.00  0.00    +0.000 OA
ENDBRANCH  11  15
ENDBRANCH   2   3
BRANCH   2  19
ATOM     19  C   UNL     1      43.400   3.449  11.153  0.00  0.00    +0.000 C 
BRANCH  19  20
ATOM     20  N   UNL     1      43.724   4.314  10.016  0.00  0.00    +0.000 N 
ATOM     21  H   UNL     1      43.980   5.256  10.301  0.00  0.00    +0.000 HD
BRANCH  20  22
ATOM     22  C   UNL     1      44.712   3.791   9.152  0.00  0.00    +0.000 A 
ATOM     23  C   UNL     1      44.990   2.424   9.168  0.00  0.00    +0.000 A 
ATOM     24  C   UNL     1      45.967   1.901   8.320  0.00  0.00    +0.000 A 
ATOM     25  C   UNL     1      46.671   2.771   7.500  0.00  0.00    +0.000 A 
ATOM     26  N   UNL     1      46.487   4.115   7.498  0.00  0.00    +0.000 NA
ATOM     27  C   UNL     1      45.532   4.582   8.339  0.00  0.00    +0.000 A 
BRANCH  25  28
ATOM     28  C   UNL     1      47.672   2.244   6.527  0.00  0.00    +0.000 C 
ATOM     29  N   UNL     1      47.891   3.022   5.421  0.00  0.00    +0.000 N 
ATOM     30  O   UNL     1      48.251   1.180   6.691  0.00  0.00    +0.000 OA
ATOM     31  H   UNL     1      47.370   3.886   5.305  0.00  0.00    +0.000 HD
ATOM     32  H   UNL     1      48.525   2.701   4.708  0.00  0.00    +0.000 HD
ENDBRANCH  25  28
ENDBRANCH  20  22
ENDBRANCH  19  20
ENDBRANCH   2  19
TORSDOF 6
ENDMDL
MODEL 2
REMARK VINA RESULT:    -7.904      3.063      3.871
REMARK INTER + INTRA:         -11.690
REMARK INTER:                 -11.018
REMARK INTRA:                  -0.671
REMARK UNBOUND:                -1.014
REMARK  Name = 
REMARK  8 active torsions:
REMARK  status: ('A' for Active; 'I' for Inactive)
REMARK    1  A    between atoms: C_1  and  C_2
REMARK    2  A    between atoms: C_2  and  C_3
REMARK    3  A    between atoms: C_2  and  C_14
REMARK    4  A    between atoms: C_3  and  N_4
REMARK    5  A    between atoms: N_4  and  C_5
REMARK    6  A    between atoms: C_8  and  C_9
REMARK    7  A    between atoms: N_22  and  S_23
REMARK    8  A    between atoms: S_23  and  C_24
REMARK                            x       y       z     vdW  Elec       q    Type
REMARK                         _______ _______ _______ _____ _____    ______ ____
ROOT
ATOM      1  C   UNL     1      45.626   3.655  12.794  0.00  0.00    +0.000 C 
ATOM      2  C   UNL     1      45.478   4.792  11.786  0.00  0.00    +0.000 C 
ENDROOT
BRANCH   2   3
ATOM      3  C   UNL     1      46.050   6.092  12.353  0.00  0.00    +0.000 A 
ATOM      4  C   UNL     1      45.359   7.302  12.280  0.00  0.00    +0.000 A 
ATOM      5  C   UNL     1      45.909   8.423  12.891  0.00  0.00    +0.000 A 
ATOM      6  N   UNL     1      47.063   8.419  13.598  0.00  0.00    +0.000 NA
ATOM      7  C   UNL     1      47.718   7.250  13.692  0.00  0.00    +0.000 A 
ATOM      8  N   UNL     1      48.846   7.092  14.523  0.00  0.00    +0.000 N 
ATOM      9  C   UNL     1      49.538   8.361  14.811  0.00  0.00    +0.000 C 
ATOM     10  C   UNL     1      50.721   8.133  15.770  0.00  0.00    +0.000 C 
ATOM     11  N   UNL     1      50.299   7.376  16.983  0.00  0.00    +0.000 NA
ATOM     12  C   UNL     1      49.700   6.071  16.621  0.00  0.00    +0.000 C 
ATOM     13  C   UNL     1      48.488   6.263  15.704  0.00  0.00    +0.000 C 
ATOM     14  C   UNL     1      47.265   6.109  13.039  0.00  0.00    +0.000 A 
BRANCH  11  15
ATOM     15  S   UNL     1      49.766   8.194  18.342  0.00  0.00    +0.000 S 
ATOM     16  C   UNL     1      49.479   6.971  19.607  0.00  0.00    +0.000 C 
ATOM     17  O   UNL     1      50.851   9.040  18.795  0.00  0.00    +0.000 OA
ATOM     18  O   UNL     1      48.475   8.767  18.013  0.00  0.00    +0.000 OA
ENDBRANCH  11  15
ENDBRANCH   2   3
BRANCH   2  19
ATOM     19  C   UNL     1      44.003   4.945  11.334  0.00  0.00    +0.000 C 
BRANCH  19  20
ATOM     20  N   UNL     1      43.820   4.887   9.882  0.00  0.00    +0.000 N 
ATOM     21  H   UNL     1      43.930   5.794   9.437  0.00  0.00    +0.000 HD
BRANCH  20  22
ATOM     22  C   UNL     1      44.637   3.934   9.232  0.00  0.00    +0.000 A 
ATOM     23  C   UNL     1      45.564   4.356   8.278  0.00  0.00    +0.000 A 
ATOM     24  C   UNL     1      46.371   3.421   7.630  0.00  0.00    +0.000 A 
ATOM     25  C   UNL     1      46.203   2.077   7.928  0.00  0.00    +0.000 A 
ATOM     26  N   UNL     1      45.270   1.611   8.795  0.00  0.00    +0.000 NA
ATOM     27  C   UNL     1      44.504   2.551   9.399  0.00  0.00    +0.000 A 
BRANCH  25  28
ATOM     28  C   UNL     1      47.096   1.052   7.312  0.00  0.00    +0.000 C 
ATOM     29  N   UNL     1      46.834  -0.247   7.656  0.00  0.00    +0.000 N 
ATOM     30  O   UNL     1      48.015   1.347   6.560  0.00  0.00    +0.000 OA
ATOM     31  H   UNL     1      46.080  -0.452   8.305  0.00  0.00    +0.000 HD
ATOM     32  H   UNL     1      47.426  -0.982   7.304  0.00  0.00    +0.000 HD
ENDBRANCH  25  28
ENDBRANCH  20  22
ENDBRANCH  19  20
ENDBRANCH   2  19
TORSDOF 6
ENDMDL
MODEL 3
REMARK VINA RESULT:    -7.635      2.101      2.738
REMARK INTER + INTRA:         -11.326
REMARK INTER:                 -10.577
REMARK INTRA:                  -0.750
REMARK UNBOUND:                -1.014
REMARK  Name = 
REMARK  8 active torsions:
REMARK  status: ('A' for Active; 'I' for Inactive)
REMARK    1  A    between atoms: C_1  and  C_2
REMARK    2  A    between atoms: C_2  and  C_3
REMARK    3  A    between atoms: C_2  and  C_14
REMARK    4  A    between atoms: C_3  and  N_4
REMARK    5  A    between atoms: N_4  and  C_5
REMARK    6  A    between atoms: C_8  and  C_9
REMARK    7  A    between atoms: N_22  and  S_23
REMARK    8  A    between atoms: S_23  and  C_24
REMARK                            x       y       z     vdW  Elec       q    Type
REMARK                         _______ _______ _______ _____ _____    ______ ____
ROOT
ATOM      1  C   UNL     1      43.004   4.946  12.903  0.00  0.00    +0.000 C 
ATOM      2  C   UNL     1      44.489   4.590  12.891  0.00  0.00    +0.000 C 
ENDROOT
BRANCH   2   3
ATOM      3  C   UNL     1      45.335   5.823  12.569  0.00  0.00    +0.000 A 
ATOM      4  C   UNL     1      44.791   6.963  11.977  0.00  0.00    +0.000 A 
ATOM      5  C   UNL     1      45.606   8.073  11.790  0.00  0.00    +0.000 A 
ATOM      6  N   UNL     1      46.899   8.146  12.184  0.00  0.00    +0.000 NA
ATOM      7  C   UNL     1      47.419   7.059  12.777  0.00  0.00    +0.000 A 
ATOM      8  N   UNL     1      48.703   7.070  13.361  0.00  0.00    +0.000 N 
ATOM      9  C   UNL     1      49.585   8.111  12.805  0.00  0.00    +0.000 C 
ATOM     10  C   UNL     1      50.948   8.115  13.522  0.00  0.00    +0.000 C 
ATOM     11  N   UNL     1      50.781   8.178  15.002  0.00  0.00    +0.000 NA
ATOM     12  C   UNL     1      49.964   7.049  15.502  0.00  0.00    +0.000 C 
ATOM     13  C   UNL     1      48.582   7.043  14.843  0.00  0.00    +0.000 C 
ATOM     14  C   UNL     1      46.682   5.889  12.924  0.00  0.00    +0.000 A 
BRANCH  11  15
ATOM     15  S   UNL     1      50.726   9.660  15.779  0.00  0.00    +0.000 S 
ATOM     16  C   UNL     1      50.721   9.330  17.530  0.00  0.00    +0.000 C 
ATOM     17  O   UNL     1      51.958  10.359  15.473  0.00  0.00    +0.000 OA
ATOM     18  O   UNL     1      49.443  10.257  15.462  0.00  0.00    +0.000 OA
ENDBRANCH  11  15
ENDBRANCH   2   3
BRANCH   2  19
ATOM     19  C   UNL     1      44.769   3.413  11.923  0.00  0.00    +0.000 C 
BRANCH  19  20
ATOM     20  N   UNL     1      44.069   3.522  10.640  0.00  0.00    +0.000 N 
ATOM     21  H   UNL     1      43.560   4.397  10.546  0.00  0.00    +0.000 HD
BRANCH  20  22
ATOM     22  C   UNL     1      44.895   3.327   9.510  0.00  0.00    +0.000 A 
ATOM     23  C   UNL     1      45.290   2.036   9.158  0.00  0.00    +0.000 A 
ATOM     24  C   UNL     1      46.108   1.836   8.046  0.00  0.00    +0.000 A 
ATOM     25  C   UNL     1      46.542   2.944   7.332  0.00  0.00    +0.000 A 
ATOM     26  N   UNL     1      46.245   4.222   7.675  0.00  0.00    +0.000 NA
ATOM     27  C   UNL     1      45.451   4.372   8.763  0.00  0.00    +0.000 A 
BRANCH  25  28
ATOM     28  C   UNL     1      47.358   2.769   6.094  0.00  0.00    +0.000 C 
ATOM     29  N   UNL     1      48.684   2.491   6.292  0.00  0.00    +0.000 N 
ATOM     30  O   UNL     1      46.883   2.882   4.973  0.00  0.00    +0.000 OA
ATOM     31  H   UNL     1      49.049   2.433   7.238  0.00  0.00    +0.000 HD
ATOM     32  H   UNL     1      49.295   2.401   5.497  0.00  0.00    +0.000 HD
ENDBRANCH  25  28
ENDBRANCH  20  22
ENDBRANCH  19  20
ENDBRANCH   2  19
TORSDOF 6
ENDMDL
MODEL 4
REMARK VINA RESULT:    -6.739      3.934      8.073
REMARK INTER + INTRA:         -10.117
REMARK INTER:                  -9.111
REMARK INTRA:                  -1.006
REMARK UNBOUND:                -1.014
REMARK  Name = 
REMARK  8 active torsions:
REMARK  status: ('A' for Active; 'I' for Inactive)
REMARK    1  A    between atoms: C_1  and  C_2
REMARK    2  A    between atoms: C_2  and  C_3
REMARK    3  A    between atoms: C_2  and  C_14
REMARK    4  A    between atoms: C_3  and  N_4
REMARK    5  A    between atoms: N_4  and  C_5
REMARK    6  A    between atoms: C_8  and  C_9
REMARK    7  A    between atoms: N_22  and  S_23
REMARK    8  A    between atoms: S_23  and  C_24
REMARK                            x       y       z     vdW  Elec       q    Type
REMARK                         _______ _______ _______ _____ _____    ______ ____
ROOT
ATOM      1  C   UNL     1      50.515   9.772  15.149  0.00  0.00    +0.000 C 
ATOM      2  C   UNL     1      49.754   8.449  15.197  0.00  0.00    +0.000 C 
ENDROOT
BRANCH   2   3
ATOM      3  C   UNL     1      49.106   8.152  13.844  0.00  0.00    +0.000 A 
ATOM      4  C   UNL     1      49.834   8.163  12.654  0.00  0.00    +0.000 A 
ATOM      5  C   UNL     1      49.192   7.804  11.474  0.00  0.00    +0.000 A 
ATOM      6  N   UNL     1      47.904   7.397  11.400  0.00  0.00    +0.000 NA
ATOM      7  C   UNL     1      47.207   7.361  12.547  0.00  0.00    +0.000 A 
ATOM      8  N   UNL     1      45.909   6.815  12.614  0.00  0.00    +0.000 N 
ATOM      9  C   UNL     1      45.211   6.814  11.317  0.00  0.00    +0.000 C 
ATOM     10  C   UNL     1      43.826   6.151  11.440  0.00  0.00    +0.000 C 
ATOM     11  N   UNL     1      43.922   4.810  12.086  0.00  0.00    +0.000 NA
ATOM     12  C   UNL     1      44.546   4.901  13.426  0.00  0.00    +0.000 C 
ATOM     13  C   UNL     1      45.947   5.513  13.334  0.00  0.00    +0.000 C 
ATOM     14  C   UNL     1      47.764   7.782  13.750  0.00  0.00    +0.000 A 
BRANCH  11  15
ATOM     15  S   UNL     1      44.143   3.440  11.150  0.00  0.00    +0.000 S 
ATOM     16  C   UNL     1      44.102   3.962   9.446  0.00  0.00    +0.000 C 
ATOM     17  O   UNL     1      45.476   2.939  11.418  0.00  0.00    +0.000 OA
ATOM     18  O   UNL     1      42.984   2.594  11.357  0.00  0.00    +0.000 OA
ENDBRANCH  11  15
ENDBRANCH   2   3
BRANCH   2  19
ATOM     19  C   UNL     1      48.727   8.441  16.357  0.00  0.00    +0.000 C 
BRANCH  19  20
ATOM     20  N   UNL     1      49.194   7.742  17.557  0.00  0.00    +0.000 N 
ATOM     21  H   UNL     1      48.602   7.913  18.365  0.00  0.00    +0.000 HD
BRANCH  20  22
ATOM     22  C   UNL     1      49.375   6.351  17.384  0.00  0.00    +0.000 A 
ATOM     23  C   UNL     1      48.268   5.533  17.160  0.00  0.00    +0.000 A 
ATOM     24  C   UNL     1      48.439   4.159  16.991  0.00  0.00    +0.000 A 
ATOM     25  C   UNL     1      49.718   3.631  17.089  0.00  0.00    +0.000 A 
ATOM     26  N   UNL     1      50.817   4.373  17.375  0.00  0.00    +0.000 NA
ATOM     27  C   UNL     1      50.607   5.702  17.535  0.00  0.00    +0.000 A 
BRANCH  25  28
ATOM     28  C   UNL     1      49.954   2.178  16.842  0.00  0.00    +0.000 C 
ATOM     29  N   UNL     1      50.876   1.580  17.659  0.00  0.00    +0.000 N 
ATOM     30  O   UNL     1      49.377   1.559  15.960  0.00  0.00    +0.000 OA
ATOM     31  H   UNL     1      51.357   2.132  18.363  0.00  0.00    +0.000 HD
ATOM     32  H   UNL     1      51.109   0.611  17.517  0.00  0.00    +0.000 HD
ENDBRANCH  25  28
ENDBRANCH  20  22
ENDBRANCH  19  20
ENDBRANCH   2  19
TORSDOF 6
ENDMDL
MODEL 5
REMARK VINA RESULT:    -6.252      3.943      8.136
REMARK INTER + INTRA:          -9.459
REMARK INTER:                  -8.555
REMARK INTRA:                  -0.903
REMARK UNBOUND:                -1.014
REMARK  Name = 
REMARK  8 active torsions:
REMARK  status: ('A' for Active; 'I' for Inactive)
REMARK    1  A    between atoms: C_1  and  C_2
REMARK    2  A    between atoms: C_2  and  C_3
REMARK    3  A    between atoms: C_2  and  C_14
REMARK    4  A    between atoms: C_3  and  N_4
REMARK    5  A    between atoms: N_4  and  C_5
REMARK    6  A    between atoms: C_8  and  C_9
REMARK    7  A    between atoms: N_22  and  S_23
REMARK    8  A    between atoms: S_23  and  C_24
REMARK                            x       y       z     vdW  Elec       q    Type
REMARK                         _______ _______ _______ _____ _____    ______ ____
ROOT
ATOM      1  C   UNL     1      48.980  11.067  13.891  0.00  0.00    +0.000 C 
ATOM      2  C   UNL     1      48.935   9.889  12.920  0.00  0.00    +0.000 C 
ENDROOT
BRANCH   2   3
ATOM      3  C   UNL     1      47.488   9.509  12.603  0.00  0.00    +0.000 A 
ATOM      4  C   UNL     1      46.672  10.301  11.796  0.00  0.00    +0.000 A 
ATOM      5  C   UNL     1      45.395   9.848  11.487  0.00  0.00    +0.000 A 
ATOM      6  N   UNL     1      44.891   8.656  11.884  0.00  0.00    +0.000 NA
ATOM      7  C   UNL     1      45.683   7.879  12.640  0.00  0.00    +0.000 A 
ATOM      8  N   UNL     1      45.324   6.560  12.985  0.00  0.00    +0.000 N 
ATOM      9  C   UNL     1      43.871   6.322  12.937  0.00  0.00    +0.000 C 
ATOM     10  C   UNL     1      43.545   4.852  13.263  0.00  0.00    +0.000 C 
ATOM     11  N   UNL     1      44.347   3.920  12.420  0.00  0.00    +0.000 NA
ATOM     12  C   UNL     1      45.800   4.153  12.591  0.00  0.00    +0.000 C 
ATOM     13  C   UNL     1      46.166   5.595  12.229  0.00  0.00    +0.000 C 
ATOM     14  C   UNL     1      46.942   8.306  13.050  0.00  0.00    +0.000 A 
BRANCH  11  15
ATOM     15  S   UNL     1      43.751   3.395  10.947  0.00  0.00    +0.000 S 
ATOM     16  C   UNL     1      45.137   2.771  10.016  0.00  0.00    +0.000 C 
ATOM     17  O   UNL     1      42.866   2.278  11.208  0.00  0.00    +0.000 OA
ATOM     18  O   UNL     1      43.267   4.567  10.243  0.00  0.00    +0.000 OA
ENDBRANCH  11  15
ENDBRANCH   2   3
BRANCH   2  19
ATOM     19  C   UNL     1      49.755   8.691  13.462  0.00  0.00    +0.000 C 
BRANCH  19  20
ATOM     20  N   UNL     1      49.943   8.712  14.915  0.00  0.00    +0.000 N 
ATOM     21  H   UNL     1      49.653   9.592  15.335  0.00  0.00    +0.000 HD
BRANCH  20  22
ATOM     22  C   UNL     1      49.330   7.635  15.595  0.00  0.00    +0.000 A 
ATOM     23  C   UNL     1      49.279   7.637  16.989  0.00  0.00    +0.000 A 
ATOM     24  C   UNL     1      48.679   6.575  17.666  0.00  0.00    +0.000 A 
ATOM     25  C   UNL     1      48.174   5.516  16.927  0.00  0.00    +0.000 A 
ATOM     26  N   UNL     1      48.261   5.433  15.576  0.00  0.00    +0.000 NA
ATOM     27  C   UNL     1      48.855   6.483  14.957  0.00  0.00    +0.000 A 
BRANCH  25  28
ATOM     28  C   UNL     1      47.459   4.396  17.608  0.00  0.00    +0.000 C 
ATOM     29  N   UNL     1      47.735   4.239  18.940  0.00  0.00    +0.000 N 
ATOM     30  O   UNL     1      46.687   3.654  17.018  0.00  0.00    +0.000 OA
ATOM     31  H   UNL     1      48.403   4.858  19.390  0.00  0.00    +0.000 HD
ATOM     32  H   UNL     1      47.314   3.477  19.446  0.00  0.00    +0.000 HD
ENDBRANCH  25  28
ENDBRANCH  20  22
ENDBRANCH  19  20
ENDBRANCH   2  19
TORSDOF 6
ENDMDL
MODEL 6
REMARK VINA RESULT:    -6.039      4.304      6.451
REMARK INTER + INTRA:          -9.171
REMARK INTER:                  -8.535
REMARK INTRA:                  -0.636
REMARK UNBOUND:                -1.014
REMARK  Name = 
REMARK  8 active torsions:
REMARK  status: ('A' for Active; 'I' for Inactive)
REMARK    1  A    between atoms: C_1  and  C_2
REMARK    2  A    between atoms: C_2  and  C_3
REMARK    3  A    between atoms: C_2  and  C_14
REMARK    4  A    between atoms: C_3  and  N_4
REMARK    5  A    between atoms: N_4  and  C_5
REMARK    6  A    between atoms: C_8  and  C_9
REMARK    7  A    between atoms: N_22  and  S_23
REMARK    8  A    between atoms: S_23  and  C_24
REMARK                            x       y       z     vdW  Elec       q    Type
REMARK                         _______ _______ _______ _____ _____    ______ ____
ROOT
ATOM      1  C   UNL     1      48.554   7.321  11.438  0.00  0.00    +0.000 C 
ATOM      2  C   UNL     1      48.087   8.576  12.172  0.00  0.00    +0.000 C 
ENDROOT
BRANCH   2   3
ATOM      3  C   UNL     1      48.769   8.687  13.536  0.00  0.00    +0.000 A 
ATOM      4  C   UNL     1      48.999   9.916  14.153  0.00  0.00    +0.000 A 
ATOM      5  C   UNL     1      49.551   9.931  15.429  0.00  0.00    +0.000 A 
ATOM      6  N   UNL     1      49.848   8.821  16.145  0.00  0.00    +0.000 NA
ATOM      7  C   UNL     1      49.604   7.635  15.563  0.00  0.00    +0.000 A 
ATOM      8  N   UNL     1      49.734   6.420  16.266  0.00  0.00    +0.000 N 
ATOM      9  C   UNL     1      50.640   6.511  17.424  0.00  0.00    +0.000 C 
ATOM     10  C   UNL     1      50.692   5.174  18.186  0.00  0.00    +0.000 C 
ATOM     11  N   UNL     1      49.323   4.684  18.516  0.00  0.00    +0.000 NA
ATOM     12  C   UNL     1      48.499   4.524  17.296  0.00  0.00    +0.000 C 
ATOM     13  C   UNL     1      48.387   5.850  16.537  0.00  0.00    +0.000 C 
ATOM     14  C   UNL     1      49.127   7.550  14.260  0.00  0.00    +0.000 A 
BRANCH  11  15
ATOM     15  S   UNL     1      48.602   5.116  19.963  0.00  0.00    +0.000 S 
ATOM     16  C   UNL     1      49.688   6.285  20.757  0.00  0.00    +0.000 C 
ATOM     17  O   UNL     1      47.372   5.813  19.646  0.00  0.00    +0.000 OA
ATOM     18  O   UNL     1      48.582   3.930  20.797  0.00  0.00    +0.000 OA
ENDBRANCH  11  15
ENDBRANCH   2   3
BRANCH   2  19
ATOM     19  C   UNL     1      46.541   8.612  12.280  0.00  0.00    +0.000 C 
BRANCH  19  20
ATOM     20  N   UNL     1      45.998   7.710  13.299  0.00  0.00    +0.000 N 
ATOM     21  H   UNL     1      45.305   8.161  13.890  0.00  0.00    +0.000 HD
BRANCH  20  22
ATOM     22  C   UNL     1      45.475   6.502  12.785  0.00  0.00    +0.000 A 
ATOM     23  C   UNL     1      44.629   6.532  11.677  0.00  0.00    +0.000 A 
ATOM     24  C   UNL     1      44.106   5.344  11.166  0.00  0.00    +0.000 A 
ATOM     25  C   UNL     1      44.416   4.153  11.806  0.00  0.00    +0.000 A 
ATOM     26  N   UNL     1      45.175   4.077  12.927  0.00  0.00    +0.000 NA
ATOM     27  C   UNL     1      45.660   5.255  13.392  0.00  0.00    +0.000 A 
BRANCH  25  28
ATOM     28  C   UNL     1      43.937   2.853  11.249  0.00  0.00    +0.000 C 
ATOM     29  N   UNL     1      44.627   2.383  10.163  0.00  0.00    +0.000 N 
ATOM     30  O   UNL     1      42.982   2.249  11.716  0.00  0.00    +0.000 OA
ATOM     31  H   UNL     1      45.398   2.926   9.784  0.00  0.00    +0.000 HD
ATOM     32  H   UNL     1      44.328   1.531   9.717  0.00  0.00    +0.000 HD
ENDBRANCH  25  28
ENDBRANCH  20  22
ENDBRANCH  19  20
ENDBRANCH   2  19
TORSDOF 6
ENDMDL
MODEL 7
REMARK VINA RESULT:    -5.927      5.009      8.552
REMARK INTER + INTRA:          -9.019
REMARK INTER:                  -8.508
REMARK INTRA:                  -0.511
REMARK UNBOUND:                -1.014
REMARK  Name = 
REMARK  8 active torsions:
REMARK  status: ('A' for Active; 'I' for Inactive)
REMARK    1  A    between atoms: C_1  and  C_2
REMARK    2  A    between atoms: C_2  and  C_3
REMARK    3  A    between atoms: C_2  and  C_14
REMARK    4  A    between atoms: C_3  and  N_4
REMARK    5  A    between atoms: N_4  and  C_5
REMARK    6  A    between atoms: C_8  and  C_9
REMARK    7  A    between atoms: N_22  and  S_23
REMARK    8  A    between atoms: S_23  and  C_24
REMARK                            x       y       z     vdW  Elec       q    Type
REMARK                         _______ _______ _______ _____ _____    ______ ____
ROOT
ATOM      1  C   UNL     1      47.401   3.667  16.473  0.00  0.00    +0.000 C 
ATOM      2  C   UNL     1      47.978   5.079  16.402  0.00  0.00    +0.000 C 
ENDROOT
BRANCH   2   3
ATOM      3  C   UNL     1      47.670   5.719  15.047  0.00  0.00    +0.000 A 
ATOM      4  C   UNL     1      48.514   6.663  14.463  0.00  0.00    +0.000 A 
ATOM      5  C   UNL     1      48.208   7.138  13.193  0.00  0.00    +0.000 A 
ATOM      6  N   UNL     1      47.157   6.716  12.452  0.00  0.00    +0.000 NA
ATOM      7  C   UNL     1      46.356   5.788  13.002  0.00  0.00    +0.000 A 
ATOM      8  N   UNL     1      45.323   5.167  12.271  0.00  0.00    +0.000 N 
ATOM      9  C   UNL     1      44.861   5.967  11.124  0.00  0.00    +0.000 C 
ATOM     10  C   UNL     1      43.778   5.212  10.329  0.00  0.00    +0.000 C 
ATOM     11  N   UNL     1      44.228   3.836   9.975  0.00  0.00    +0.000 NA
ATOM     12  C   UNL     1      44.586   3.057  11.183  0.00  0.00    +0.000 C 
ATOM     13  C   UNL     1      45.695   3.757  11.972  0.00  0.00    +0.000 C 
ATOM     14  C   UNL     1      46.560   5.327  14.298  0.00  0.00    +0.000 A 
BRANCH  11  15
ATOM     15  S   UNL     1      45.030   3.559   8.532  0.00  0.00    +0.000 S 
ATOM     16  C   UNL     1      45.767   1.940   8.648  0.00  0.00    +0.000 C 
ATOM     17  O   UNL     1      44.033   3.507   7.482  0.00  0.00    +0.000 OA
ATOM     18  O   UNL     1      46.120   4.512   8.464  0.00  0.00    +0.000 OA
ENDBRANCH  11  15
ENDBRANCH   2   3
BRANCH   2  19
ATOM     19  C   UNL     1      49.494   5.076  16.721  0.00  0.00    +0.000 C 
BRANCH  19  20
ATOM     20  N   UNL     1      49.830   4.425  17.991  0.00  0.00    +0.000 N 
ATOM     21  H   UNL     1      49.009   4.096  18.491  0.00  0.00    +0.000 HD
BRANCH  20  22
ATOM     22  C   UNL     1      50.770   3.376  17.873  0.00  0.00    +0.000 A 
ATOM     23  C   UNL     1      52.103   3.600  18.217  0.00  0.00    +0.000 A 
ATOM     24  C   UNL     1      53.036   2.570  18.101  0.00  0.00    +0.000 A 
ATOM     25  C   UNL     1      52.616   1.345  17.605  0.00  0.00    +0.000 A 
ATOM     26  N   UNL     1      51.348   1.097  17.191  0.00  0.00    +0.000 NA
ATOM     27  C   UNL     1      50.474   2.126  17.318  0.00  0.00    +0.000 A 
BRANCH  25  28
ATOM     28  C   UNL     1      53.566   0.196  17.534  0.00  0.00    +0.000 C 
ATOM     29  N   UNL     1      53.725  -0.515  18.694  0.00  0.00    +0.000 N 
ATOM     30  O   UNL     1      54.178  -0.089  16.515  0.00  0.00    +0.000 OA
ATOM     31  H   UNL     1      53.221  -0.231  19.529  0.00  0.00    +0.000 HD
ATOM     32  H   UNL     1      54.382  -1.277  18.721  0.00  0.00    +0.000 HD
ENDBRANCH  25  28
ENDBRANCH  20  22
ENDBRANCH  19  20
ENDBRANCH   2  19
TORSDOF 6
ENDMDL
MODEL 8
REMARK VINA RESULT:    -5.569      3.193      5.027
REMARK INTER + INTRA:          -8.535
REMARK INTER:                  -7.597
REMARK INTRA:                  -0.939
REMARK UNBOUND:                -1.014
REMARK  Name = 
REMARK  8 active torsions:
REMARK  status: ('A' for Active; 'I' for Inactive)
REMARK    1  A    between atoms: C_1  and  C_2
REMARK    2  A    between atoms: C_2  and  C_3
REMARK    3  A    between atoms: C_2  and  C_14
REMARK    4  A    between atoms: C_3  and  N_4
REMARK    5  A    between atoms: N_4  and  C_5
REMARK    6  A    between atoms: C_8  and  C_9
REMARK    7  A    between atoms: N_22  and  S_23
REMARK    8  A    between atoms: S_23  and  C_24
REMARK                            x       y       z     vdW  Elec       q    Type
REMARK                         _______ _______ _______ _____ _____    ______ ____
ROOT
ATOM      1  C   UNL     1      48.154   3.357  18.304  0.00  0.00    +0.000 C 
ATOM      2  C   UNL     1      48.476   3.713  16.854  0.00  0.00    +0.000 C 
ENDROOT
BRANCH   2   3
ATOM      3  C   UNL     1      49.252   5.029  16.783  0.00  0.00    +0.000 A 
ATOM      4  C   UNL     1      50.514   5.178  17.360  0.00  0.00    +0.000 A 
ATOM      5  C   UNL     1      51.192   6.379  17.183  0.00  0.00    +0.000 A 
ATOM      6  N   UNL     1      50.729   7.416  16.447  0.00  0.00    +0.000 NA
ATOM      7  C   UNL     1      49.525   7.266  15.870  0.00  0.00    +0.000 A 
ATOM      8  N   UNL     1      49.010   8.215  14.963  0.00  0.00    +0.000 N 
ATOM      9  C   UNL     1      49.597   9.556  15.129  0.00  0.00    +0.000 C 
ATOM     10  C   UNL     1      49.043  10.531  14.073  0.00  0.00    +0.000 C 
ATOM     11  N   UNL     1      49.172   9.971  12.697  0.00  0.00    +0.000 NA
ATOM     12  C   UNL     1      48.478   8.669  12.578  0.00  0.00    +0.000 C 
ATOM     13  C   UNL     1      49.038   7.659  13.583  0.00  0.00    +0.000 C 
ATOM     14  C   UNL     1      48.760   6.122  16.070  0.00  0.00    +0.000 A 
BRANCH  11  15
ATOM     15  S   UNL     1      50.547  10.274  11.793  0.00  0.00    +0.000 S 
ATOM     16  C   UNL     1      50.081  11.409  10.501  0.00  0.00    +0.000 C 
ATOM     17  O   UNL     1      51.492  10.958  12.652  0.00  0.00    +0.000 OA
ATOM     18  O   UNL     1      50.911   9.028  11.145  0.00  0.00    +0.000 OA
ENDBRANCH  11  15
ENDBRANCH   2   3
BRANCH   2  19
ATOM     19  C   UNL     1      47.190   3.740  15.990  0.00  0.00    +0.000 C 
BRANCH  19  20
ATOM     20  N   UNL     1      47.400   3.319  14.603  0.00  0.00    +0.000 N 
ATOM     21  H   UNL     1      47.439   2.309  14.502  0.00  0.00    +0.000 HD
BRANCH  20  22
ATOM     22  C   UNL     1      46.466   3.854  13.687  0.00  0.00    +0.000 A 
ATOM     23  C   UNL     1      46.178   5.218  13.711  0.00  0.00    +0.000 A 
ATOM     24  C   UNL     1      45.254   5.753  12.813  0.00  0.00    +0.000 A 
ATOM     25  C   UNL     1      44.612   4.895  11.932  0.00  0.00    +0.000 A 
ATOM     26  N   UNL     1      44.804   3.553  11.915  0.00  0.00    +0.000 NA
ATOM     27  C   UNL     1      45.706   3.075  12.807  0.00  0.00    +0.000 A 
BRANCH  25  28
ATOM     28  C   UNL     1      43.672   5.436  10.906  0.00  0.00    +0.000 C 
ATOM     29  N   UNL     1      43.058   6.617  11.227  0.00  0.00    +0.000 N 
ATOM     30  O   UNL     1      43.448   4.860   9.851  0.00  0.00    +0.000 OA
ATOM     31  H   UNL     1      43.248   7.053  12.125  0.00  0.00    +0.000 HD
ATOM     32  H   UNL     1      42.383   7.013  10.594  0.00  0.00    +0.000 HD
ENDBRANCH  25  28
ENDBRANCH  20  22
ENDBRANCH  19  20
ENDBRANCH   2  19
TORSDOF 6
ENDMDL
MODEL 9
REMARK VINA RESULT:    -5.477      4.375      6.733
REMARK INTER + INTRA:          -8.412
REMARK INTER:                  -6.818
REMARK INTRA:                  -1.595
REMARK UNBOUND:                -1.014
REMARK  Name = 
REMARK  8 active torsions:
REMARK  status: ('A' for Active; 'I' for Inactive)
REMARK    1  A    between atoms: C_1  and  C_2
REMARK    2  A    between atoms: C_2  and  C_3
REMARK    3  A    between atoms: C_2  and  C_14
REMARK    4  A    between atoms: C_3  and  N_4
REMARK    5  A    between atoms: N_4  and  C_5
REMARK    6  A    between atoms: C_8  and  C_9
REMARK    7  A    between atoms: N_22  and  S_23
REMARK    8  A    between atoms: S_23  and  C_24
REMARK                            x       y       z     vdW  Elec       q    Type
REMARK                         _______ _______ _______ _____ _____    ______ ____
ROOT
ATOM      1  C   UNL     1      43.824   6.226  11.676  0.00  0.00    +0.000 C 
ATOM      2  C   UNL     1      45.282   6.488  12.046  0.00  0.00    +0.000 C 
ENDROOT
BRANCH   2   3
ATOM      3  C   UNL     1      45.841   5.333  12.878  0.00  0.00    +0.000 A 
ATOM      4  C   UNL     1      46.023   4.056  12.346  0.00  0.00    +0.000 A 
ATOM      5  C   UNL     1      46.612   3.079  13.141  0.00  0.00    +0.000 A 
ATOM      6  N   UNL     1      47.066   3.289  14.398  0.00  0.00    +0.000 NA
ATOM      7  C   UNL     1      46.915   4.524  14.904  0.00  0.00    +0.000 A 
ATOM      8  N   UNL     1      47.481   4.898  16.140  0.00  0.00    +0.000 N 
ATOM      9  C   UNL     1      47.741   3.753  17.030  0.00  0.00    +0.000 C 
ATOM     10  C   UNL     1      48.414   4.216  18.336  0.00  0.00    +0.000 C 
ATOM     11  N   UNL     1      49.611   5.061  18.059  0.00  0.00    +0.000 NA
ATOM     12  C   UNL     1      49.258   6.243  17.240  0.00  0.00    +0.000 C 
ATOM     13  C   UNL     1      48.628   5.817  15.911  0.00  0.00    +0.000 C 
ATOM     14  C   UNL     1      46.264   5.526  14.193  0.00  0.00    +0.000 A 
BRANCH  11  15
ATOM     15  S   UNL     1      51.120   4.355  17.904  0.00  0.00    +0.000 S 
ATOM     16  C   UNL     1      52.158   5.527  17.051  0.00  0.00    +0.000 C 
ATOM     17  O   UNL     1      51.662   4.187  19.237  0.00  0.00    +0.000 OA
ATOM     18  O   UNL     1      50.966   3.213  17.023  0.00  0.00    +0.000 OA
ENDBRANCH  11  15
ENDBRANCH   2   3
BRANCH   2  19
ATOM     19  C   UNL     1      45.437   7.856  12.758  0.00  0.00    +0.000 C 
BRANCH  19  20
ATOM     20  N   UNL     1      46.436   8.733  12.142  0.00  0.00    +0.000 N 
ATOM     21  H   UNL     1      46.137   9.704  12.110  0.00  0.00    +0.000 HD
BRANCH  20  22
ATOM     22  C   UNL     1      47.720   8.649  12.727  0.00  0.00    +0.000 A 
ATOM     23  C   UNL     1      48.723   7.919  12.089  0.00  0.00    +0.000 A 
ATOM     24  C   UNL     1      49.992   7.829  12.661  0.00  0.00    +0.000 A 
ATOM     25  C   UNL     1      50.214   8.445  13.884  0.00  0.00    +0.000 A 
ATOM     26  N   UNL     1      49.254   9.106  14.578  0.00  0.00    +0.000 NA
ATOM     27  C   UNL     1      48.036   9.167  13.988  0.00  0.00    +0.000 A 
BRANCH  25  28
ATOM     28  C   UNL     1      51.576   8.435  14.494  0.00  0.00    +0.000 C 
ATOM     29  N   UNL     1      52.544   7.787  13.774  0.00  0.00    +0.000 N 
ATOM     30  O   UNL     1      51.816   8.954  15.575  0.00  0.00    +0.000 OA
ATOM     31  H   UNL     1      52.302   7.342  12.894  0.00  0.00    +0.000 HD
ATOM     32  H   UNL     1      53.475   7.711  14.152  0.00  0.00    +0.000 HD
ENDBRANCH  25  28
ENDBRANCH  20  22
ENDBRANCH  19  20
ENDBRANCH   2  19
TORSDOF 6
ENDMDL
