MODEL 1
REMARK VINA RESULT:    -8.077      0.000      0.000
REMARK INTER + INTRA:         -10.702
REMARK INTER:                  -9.965
REMARK INTRA:                  -0.737
REMARK UNBOUND:                -0.737
REMARK  Name = 
REMARK  4 active torsions:
REMARK  status: ('A' for Active; 'I' for Inactive)
REMARK    1  A    between atoms: C_7  and  C_8
REMARK    2  A    between atoms: C_8  and  N_9
REMARK    3  A    between atoms: N_9  and  C_10
REMARK    4  A    between atoms: C_14  and  C_15
REMARK                            x       y       z     vdW  Elec       q    Type
REMARK                         _______ _______ _______ _____ _____    ______ ____
ROOT
ATOM      1  C   UNL     1      44.177   4.686  10.275  0.00  0.00    +0.000 A 
ATOM      2  C   UNL     1      43.565   3.643  10.978  0.00  0.00    +0.000 A 
ATOM      3  C   UNL     1      43.799   2.315  10.633  0.00  0.00    +0.000 A 
ATOM      4  C   UNL     1      44.623   2.009   9.551  0.00  0.00    +0.000 A 
ATOM      5  C   UNL     1      45.229   3.022   8.788  0.00  0.00    +0.000 A 
ATOM      6  C   UNL     1      44.960   4.357   9.157  0.00  0.00    +0.000 A 
ENDROOT
BRANCH   5   7
ATOM      7  C   UNL     1      46.128   2.695   7.659  0.00  0.00    +0.000 A 
ATOM      8  C   UNL     1      46.246   3.513   6.525  0.00  0.00    +0.000 A 
ATOM      9  C   UNL     1      47.121   3.177   5.491  0.00  0.00    +0.000 A 
ATOM     10  C   UNL     1      47.860   2.014   5.607  0.00  0.00    +0.000 A 
ATOM     11  N   UNL     1      47.788   1.188   6.667  0.00  0.00    +0.000 NA
ATOM     12  C   UNL     1      46.935   1.552   7.660  0.00  0.00    +0.000 A 
ENDBRANCH   5   7
BRANCH   1  13
ATOM     13  N   UNL     1      43.950   6.037  10.579  0.00  0.00    +0.000 N 
ATOM     14  H   UNL     1      44.501   6.664   9.989  0.00  0.00    +0.000 HD
BRANCH  13  15
ATOM     15  C   UNL     1      44.102   6.418  11.985  0.00  0.00    +0.000 C 
BRANCH  15  22
ATOM     16 CL   UNL     1      49.102   7.748  11.465  0.00  0.00    +0.000 Cl
ATOM     17  C   UNL     1      47.842   6.885  12.256  0.00  0.00    +0.000 A 
ATOM     18  C   UNL     1      48.134   6.096  13.359  0.00  0.00    +0.000 A 
ATOM     19  C   UNL     1      47.079   5.439  13.952  0.00  0.00    +0.000 A 
ATOM     20 CL   UNL     1      47.322   4.448  15.331  0.00  0.00    +0.000 Cl
ATOM     21  N   UNL     1      45.799   5.506  13.531  0.00  0.00    +0.000 NA
ATOM     22  C   UNL     1      45.543   6.275  12.438  0.00  0.00    +0.000 A 
ATOM     23  C   UNL     1      46.540   6.992  11.788  0.00  0.00    +0.000 A 
ENDBRANCH  15  22
ENDBRANCH  13  15
ENDBRANCH   1  13
TORSDOF 4
ENDMDL
MODEL 2
REMARK VINA RESULT:    -7.956      0.582      1.917
REMARK INTER + INTRA:         -10.553
REMARK INTER:                  -9.806
REMARK INTRA:                  -0.747
REMARK UNBOUND:                -0.737
REMARK  Name = 
REMARK  4 active torsions:
REMARK  status: ('A' for Active; 'I' for Inactive)
REMARK    1  A    between atoms: C_7  and  C_8
REMARK    2  A    between atoms: C_8  and  N_9
REMARK    3  A    between atoms: N_9  and  C_10
REMARK    4  A    between atoms: C_14  and  C_15
REMARK                            x       y       z     vdW  Elec       q    Type
REMARK                         _______ _______ _______ _____ _____    ______ ____
ROOT
ATOM      1  C   UNL     1      44.224   4.705  10.272  0.00  0.00    +0.000 A 
ATOM      2  C   UNL     1      43.595   3.669  10.968  0.00  0.00    +0.000 A 
ATOM      3  C   UNL     1      43.808   2.339  10.616  0.00  0.00    +0.000 A 
ATOM      4  C   UNL     1      44.627   2.026   9.532  0.00  0.00    +0.000 A 
ATOM      5  C   UNL     1      45.249   3.033   8.775  0.00  0.00    +0.000 A 
ATOM      6  C   UNL     1      45.002   4.370   9.152  0.00  0.00    +0.000 A 
ENDROOT
BRANCH   5   7
ATOM      7  C   UNL     1      46.144   2.698   7.645  0.00  0.00    +0.000 A 
ATOM      8  C   UNL     1      46.246   3.500   6.498  0.00  0.00    +0.000 A 
ATOM      9  C   UNL     1      47.117   3.158   5.463  0.00  0.00    +0.000 A 
ATOM     10  C   UNL     1      47.868   2.004   5.591  0.00  0.00    +0.000 A 
ATOM     11  N   UNL     1      47.812   1.194   6.664  0.00  0.00    +0.000 NA
ATOM     12  C   UNL     1      46.962   1.564   7.657  0.00  0.00    +0.000 A 
ENDBRANCH   5   7
BRANCH   1  13
ATOM     13  N   UNL     1      44.017   6.058  10.583  0.00  0.00    +0.000 N 
ATOM     14  H   UNL     1      44.635   6.676  10.051  0.00  0.00    +0.000 HD
BRANCH  13  15
ATOM     15  C   UNL     1      44.070   6.410  12.004  0.00  0.00    +0.000 C 
BRANCH  15  22
ATOM     16 CL   UNL     1      47.383   4.122  15.294  0.00  0.00    +0.000 Cl
ATOM     17  C   UNL     1      47.038   5.224  14.019  0.00  0.00    +0.000 A 
ATOM     18  C   UNL     1      48.066   5.953  13.441  0.00  0.00    +0.000 A 
ATOM     19  C   UNL     1      47.724   6.812  12.419  0.00  0.00    +0.000 A 
ATOM     20 CL   UNL     1      48.918   7.752  11.622  0.00  0.00    +0.000 Cl
ATOM     21  N   UNL     1      46.470   6.991  11.955  0.00  0.00    +0.000 NA
ATOM     22  C   UNL     1      45.478   6.274  12.550  0.00  0.00    +0.000 A 
ATOM     23  C   UNL     1      45.731   5.368  13.574  0.00  0.00    +0.000 A 
ENDBRANCH  15  22
ENDBRANCH  13  15
ENDBRANCH   1  13
TORSDOF 4
ENDMDL
MODEL 3
REMARK VINA RESULT:    -7.302      2.780      4.112
REMARK INTER + INTRA:          -9.747
REMARK INTER:                  -9.263
REMARK INTRA:                  -0.484
REMARK UNBOUND:                -0.737
REMARK  Name = 
REMARK  4 active torsions:
REMARK  status: ('A' for Active; 'I' for Inactive)
REMARK    1  A    between atoms: C_7  and  C_8
REMARK    2  A    between atoms: C_8  and  N_9
REMARK    3  A    between atoms: N_9  and  C_10
REMARK    4  A    between atoms: C_14  and  C_15
REMARK                            x       y       z     vdW  Elec       q    Type
REMARK                         _______ _______ _______ _____ _____    ______ ____
ROOT
ATOM      1  C   UNL     1      44.876   4.588  13.057  0.00  0.00    +0.000 A 
ATOM      2  C   UNL     1      43.560   5.060  13.024  0.00  0.00    +0.000 A 
ATOM      3  C   UNL     1      42.825   5.046  11.841  0.00  0.00    +0.000 A 
ATOM      4  C   UNL     1      43.411   4.593  10.660  0.00  0.00    +0.000 A 
ATOM      5  C   UNL     1      44.743   4.148  10.633  0.00  0.00    +0.000 A 
ATOM      6  C   UNL     1      45.463   4.187  11.845  0.00  0.00    +0.000 A 
ENDROOT
BRANCH   5   7
ATOM      7  C   UNL     1      45.353   3.637   9.385  0.00  0.00    +0.000 A 
ATOM      8  C   UNL     1      45.505   2.267   9.123  0.00  0.00    +0.000 A 
ATOM      9  C   UNL     1      46.069   1.828   7.924  0.00  0.00    +0.000 A 
ATOM     10  C   UNL     1      46.483   2.775   7.007  0.00  0.00    +0.000 A 
ATOM     11  N   UNL     1      46.367   4.101   7.202  0.00  0.00    +0.000 NA
ATOM     12  C   UNL     1      45.804   4.493   8.374  0.00  0.00    +0.000 A 
ENDBRANCH   5   7
BRANCH   1  13
ATOM     13  N   UNL     1      45.656   4.606  14.223  0.00  0.00    +0.000 N 
ATOM     14  H   UNL     1      45.938   5.553  14.486  0.00  0.00    +0.000 HD
BRANCH  13  15
ATOM     15  C   UNL     1      46.823   3.721  14.235  0.00  0.00    +0.000 C 
BRANCH  15  22
ATOM     16 CL   UNL     1      47.144   5.636  19.059  0.00  0.00    +0.000 Cl
ATOM     17  C   UNL     1      47.671   4.566  17.819  0.00  0.00    +0.000 A 
ATOM     18  C   UNL     1      48.697   3.668  18.073  0.00  0.00    +0.000 A 
ATOM     19  C   UNL     1      49.065   2.834  17.041  0.00  0.00    +0.000 A 
ATOM     20 CL   UNL     1      50.312   1.674  17.249  0.00  0.00    +0.000 Cl
ATOM     21  N   UNL     1      48.506   2.839  15.813  0.00  0.00    +0.000 NA
ATOM     22  C   UNL     1      47.512   3.740  15.586  0.00  0.00    +0.000 A 
ATOM     23  C   UNL     1      47.059   4.607  16.574  0.00  0.00    +0.000 A 
ENDBRANCH  15  22
ENDBRANCH  13  15
ENDBRANCH   1  13
TORSDOF 4
ENDMDL
MODEL 4
REMARK VINA RESULT:    -7.206      2.344      3.078
REMARK INTER + INTRA:          -9.627
REMARK INTER:                  -9.189
REMARK INTRA:                  -0.439
REMARK UNBOUND:                -0.737
REMARK  Name = 
REMARK  4 active torsions:
REMARK  status: ('A' for Active; 'I' for Inactive)
REMARK    1  A    between atoms: C_7  and  C_8
REMARK    2  A    between atoms: C_8  and  N_9
REMARK    3  A    between atoms: N_9  and  C_10
REMARK    4  A    between atoms: C_14  and  C_15
REMARK                            x       y       z     vdW  Elec       q    Type
REMARK                         _______ _______ _______ _____ _____    ______ ____
ROOT
ATOM      1  C   UNL     1      44.315   5.075  10.690  0.00  0.00    +0.000 A 
ATOM      2  C   UNL     1      43.547   4.165  11.422  0.00  0.00    +0.000 A 
ATOM      3  C   UNL     1      43.547   2.810  11.104  0.00  0.00    +0.000 A 
ATOM      4  C   UNL     1      44.291   2.348  10.019  0.00  0.00    +0.000 A 
ATOM      5  C   UNL     1      45.047   3.229   9.226  0.00  0.00    +0.000 A 
ATOM      6  C   UNL     1      45.014   4.597   9.569  0.00  0.00    +0.000 A 
ENDROOT
BRANCH   5   7
ATOM      7  C   UNL     1      45.860   2.732   8.095  0.00  0.00    +0.000 A 
ATOM      8  C   UNL     1      46.159   3.523   6.975  0.00  0.00    +0.000 A 
ATOM      9  C   UNL     1      46.947   3.021   5.937  0.00  0.00    +0.000 A 
ATOM     10  C   UNL     1      47.415   1.724   6.035  0.00  0.00    +0.000 A 
ATOM     11  N   UNL     1      47.160   0.918   7.081  0.00  0.00    +0.000 NA
ATOM     12  C   UNL     1      46.401   1.442   8.078  0.00  0.00    +0.000 A 
ENDBRANCH   5   7
BRANCH   1  13
ATOM     13  N   UNL     1      44.324   6.451  10.966  0.00  0.00    +0.000 N 
ATOM     14  H   UNL     1      44.534   7.012  10.137  0.00  0.00    +0.000 HD
BRANCH  13  15
ATOM     15  C   UNL     1      45.171   6.881  12.081  0.00  0.00    +0.000 C 
BRANCH  15  22
ATOM     16 CL   UNL     1      48.625  10.740  12.551  0.00  0.00    +0.000 Cl
ATOM     17  C   UNL     1      47.056  10.155  12.154  0.00  0.00    +0.000 A 
ATOM     18  C   UNL     1      46.092  11.033  11.683  0.00  0.00    +0.000 A 
ATOM     19  C   UNL     1      44.860  10.499  11.374  0.00  0.00    +0.000 A 
ATOM     20 CL   UNL     1      43.598  11.491  10.769  0.00  0.00    +0.000 Cl
ATOM     21  N   UNL     1      44.533   9.198  11.506  0.00  0.00    +0.000 NA
ATOM     22  C   UNL     1      45.494   8.360  11.985  0.00  0.00    +0.000 A 
ATOM     23  C   UNL     1      46.772   8.805  12.302  0.00  0.00    +0.000 A 
ENDBRANCH  15  22
ENDBRANCH  13  15
ENDBRANCH   1  13
TORSDOF 4
ENDMDL
MODEL 5
REMARK VINA RESULT:    -7.100      2.101      3.527
REMARK INTER + INTRA:          -9.497
REMARK INTER:                  -8.899
REMARK INTRA:                  -0.598
REMARK UNBOUND:                -0.737
REMARK  Name = 
REMARK  4 active torsions:
REMARK  status: ('A' for Active; 'I' for Inactive)
REMARK    1  A    between atoms: C_7  and  C_8
REMARK    2  A    between atoms: C_8  and  N_9
REMARK    3  A    between atoms: N_9  and  C_10
REMARK    4  A    between atoms: C_14  and  C_15
REMARK                            x       y       z     vdW  Elec       q    Type
REMARK                         _______ _______ _______ _____ _____    ______ ____
ROOT
ATOM      1  C   UNL     1      45.065   5.821  12.523  0.00  0.00    +0.000 A 
ATOM      2  C   UNL     1      43.690   5.741  12.767  0.00  0.00    +0.000 A 
ATOM      3  C   UNL     1      42.859   4.993  11.937  0.00  0.00    +0.000 A 
ATOM      4  C   UNL     1      43.388   4.341  10.824  0.00  0.00    +0.000 A 
ATOM      5  C   UNL     1      44.755   4.424  10.513  0.00  0.00    +0.000 A 
ATOM      6  C   UNL     1      45.566   5.201  11.367  0.00  0.00    +0.000 A 
ENDROOT
BRANCH   5   7
ATOM      7  C   UNL     1      45.319   3.706   9.349  0.00  0.00    +0.000 A 
ATOM      8  C   UNL     1      45.855   4.372   8.236  0.00  0.00    +0.000 A 
ATOM      9  C   UNL     1      46.395   3.655   7.167  0.00  0.00    +0.000 A 
ATOM     10  C   UNL     1      46.379   2.274   7.227  0.00  0.00    +0.000 A 
ATOM     11  N   UNL     1      45.877   1.580   8.264  0.00  0.00    +0.000 NA
ATOM     12  C   UNL     1      45.370   2.309   9.291  0.00  0.00    +0.000 A 
ENDBRANCH   5   7
BRANCH   1  13
ATOM     13  N   UNL     1      45.931   6.582  13.323  0.00  0.00    +0.000 N 
ATOM     14  H   UNL     1      45.840   7.585  13.146  0.00  0.00    +0.000 HD
BRANCH  13  15
ATOM     15  C   UNL     1      47.344   6.199  13.291  0.00  0.00    +0.000 C 
BRANCH  15  22
ATOM     16 CL   UNL     1      47.135   3.028  17.407  0.00  0.00    +0.000 Cl
ATOM     17  C   UNL     1      47.803   4.373  16.568  0.00  0.00    +0.000 A 
ATOM     18  C   UNL     1      48.848   5.088  17.132  0.00  0.00    +0.000 A 
ATOM     19  C   UNL     1      49.343   6.148  16.404  0.00  0.00    +0.000 A 
ATOM     20 CL   UNL     1      50.646   7.092  17.000  0.00  0.00    +0.000 Cl
ATOM     21  N   UNL     1      48.878   6.534  15.199  0.00  0.00    +0.000 NA
ATOM     22  C   UNL     1      47.842   5.824  14.675  0.00  0.00    +0.000 A 
ATOM     23  C   UNL     1      47.292   4.727  15.326  0.00  0.00    +0.000 A 
ENDBRANCH  15  22
ENDBRANCH  13  15
ENDBRANCH   1  13
TORSDOF 4
ENDMDL
MODEL 6
REMARK VINA RESULT:    -6.759      1.547      2.213
REMARK INTER + INTRA:          -9.077
REMARK INTER:                  -8.464
REMARK INTRA:                  -0.613
REMARK UNBOUND:                -0.737
REMARK  Name = 
REMARK  4 active torsions:
REMARK  status: ('A' for Active; 'I' for Inactive)
REMARK    1  A    between atoms: C_7  and  C_8
REMARK    2  A    between atoms: C_8  and  N_9
REMARK    3  A    between atoms: N_9  and  C_10
REMARK    4  A    between atoms: C_14  and  C_15
REMARK                            x       y       z     vdW  Elec       q    Type
REMARK                         _______ _______ _______ _____ _____    ______ ____
ROOT
ATOM      1  C   UNL     1      44.477   5.831  12.244  0.00  0.00    +0.000 A 
ATOM      2  C   UNL     1      43.447   5.095  12.840  0.00  0.00    +0.000 A 
ATOM      3  C   UNL     1      43.055   3.864  12.320  0.00  0.00    +0.000 A 
ATOM      4  C   UNL     1      43.664   3.367  11.169  0.00  0.00    +0.000 A 
ATOM      5  C   UNL     1      44.674   4.087  10.510  0.00  0.00    +0.000 A 
ATOM      6  C   UNL     1      45.039   5.336  11.056  0.00  0.00    +0.000 A 
ENDROOT
BRANCH   5   7
ATOM      7  C   UNL     1      45.341   3.542   9.307  0.00  0.00    +0.000 A 
ATOM      8  C   UNL     1      45.866   4.363   8.297  0.00  0.00    +0.000 A 
ATOM      9  C   UNL     1      46.505   3.809   7.186  0.00  0.00    +0.000 A 
ATOM     10  C   UNL     1      46.597   2.432   7.101  0.00  0.00    +0.000 A 
ATOM     11  N   UNL     1      46.111   1.594   8.035  0.00  0.00    +0.000 NA
ATOM     12  C   UNL     1      45.507   2.168   9.107  0.00  0.00    +0.000 A 
ENDBRANCH   5   7
BRANCH   1  13
ATOM     13  N   UNL     1      44.886   7.084  12.726  0.00  0.00    +0.000 N 
ATOM     14  H   UNL     1      44.093   7.696  12.933  0.00  0.00    +0.000 HD
BRANCH  13  15
ATOM     15  C   UNL     1      45.866   7.802  11.909  0.00  0.00    +0.000 C 
BRANCH  15  22
ATOM     16 CL   UNL     1      51.007   8.177  11.224  0.00  0.00    +0.000 Cl
ATOM     17  C   UNL     1      49.634   7.817  12.195  0.00  0.00    +0.000 A 
ATOM     18  C   UNL     1      49.807   7.418  13.512  0.00  0.00    +0.000 A 
ATOM     19  C   UNL     1      48.666   7.153  14.238  0.00  0.00    +0.000 A 
ATOM     20 CL   UNL     1      48.761   6.667  15.881  0.00  0.00    +0.000 Cl
ATOM     21  N   UNL     1      47.410   7.247  13.755  0.00  0.00    +0.000 NA
ATOM     22  C   UNL     1      47.270   7.626  12.456  0.00  0.00    +0.000 A 
ATOM     23  C   UNL     1      48.361   7.935  11.653  0.00  0.00    +0.000 A 
ENDBRANCH  15  22
ENDBRANCH  13  15
ENDBRANCH   1  13
TORSDOF 4
ENDMDL
MODEL 7
REMARK VINA RESULT:    -6.658      3.027      5.047
REMARK INTER + INTRA:          -8.952
REMARK INTER:                  -8.488
REMARK INTRA:                  -0.464
REMARK UNBOUND:                -0.737
REMARK  Name = 
REMARK  4 active torsions:
REMARK  status: ('A' for Active; 'I' for Inactive)
REMARK    1  A    between atoms: C_7  and  C_8
REMARK    2  A    between atoms: C_8  and  N_9
REMARK    3  A    between atoms: N_9  and  C_10
REMARK    4  A    between atoms: C_14  and  C_15
REMARK                            x       y       z     vdW  Elec       q    Type
REMARK                         _______ _______ _______ _____ _____    ______ ____
ROOT
ATOM      1  C   UNL     1      46.554   6.250  13.408  0.00  0.00    +0.000 A 
ATOM      2  C   UNL     1      46.192   7.571  13.129  0.00  0.00    +0.000 A 
ATOM      3  C   UNL     1      45.513   7.895  11.957  0.00  0.00    +0.000 A 
ATOM      4  C   UNL     1      45.218   6.902  11.025  0.00  0.00    +0.000 A 
ATOM      5  C   UNL     1      45.596   5.566  11.239  0.00  0.00    +0.000 A 
ATOM      6  C   UNL     1      46.293   5.275  12.431  0.00  0.00    +0.000 A 
ENDROOT
BRANCH   5   7
ATOM      7  C   UNL     1      45.254   4.508  10.263  0.00  0.00    +0.000 A 
ATOM      8  C   UNL     1      45.480   4.649   8.885  0.00  0.00    +0.000 A 
ATOM      9  C   UNL     1      45.160   3.618   8.000  0.00  0.00    +0.000 A 
ATOM     10  C   UNL     1      44.605   2.461   8.513  0.00  0.00    +0.000 A 
ATOM     11  N   UNL     1      44.362   2.268   9.823  0.00  0.00    +0.000 NA
ATOM     12  C   UNL     1      44.696   3.286  10.656  0.00  0.00    +0.000 A 
ENDBRANCH   5   7
BRANCH   1  13
ATOM     13  N   UNL     1      47.257   5.888  14.567  0.00  0.00    +0.000 N 
ATOM     14  H   UNL     1      48.266   6.017  14.464  0.00  0.00    +0.000 HD
BRANCH  13  15
ATOM     15  C   UNL     1      46.980   4.552  15.100  0.00  0.00    +0.000 C 
BRANCH  15  22
ATOM     16 CL   UNL     1      47.896   5.489  20.133  0.00  0.00    +0.000 Cl
ATOM     17  C   UNL     1      48.228   4.655  18.666  0.00  0.00    +0.000 A 
ATOM     18  C   UNL     1      49.214   3.680  18.636  0.00  0.00    +0.000 A 
ATOM     19  C   UNL     1      49.425   3.043  17.432  0.00  0.00    +0.000 A 
ATOM     20 CL   UNL     1      50.608   1.810  17.284  0.00  0.00    +0.000 Cl
ATOM     21  N   UNL     1      48.749   3.308  16.295  0.00  0.00    +0.000 NA
ATOM     22  C   UNL     1      47.798   4.280  16.349  0.00  0.00    +0.000 A 
ATOM     23  C   UNL     1      47.501   4.961  17.524  0.00  0.00    +0.000 A 
ENDBRANCH  15  22
ENDBRANCH  13  15
ENDBRANCH   1  13
TORSDOF 4
ENDMDL
MODEL 8
REMARK VINA RESULT:    -6.654      1.675      2.883
REMARK INTER + INTRA:          -8.947
REMARK INTER:                  -8.323
REMARK INTRA:                  -0.623
REMARK UNBOUND:                -0.737
REMARK  Name = 
REMARK  4 active torsions:
REMARK  status: ('A' for Active; 'I' for Inactive)
REMARK    1  A    between atoms: C_7  and  C_8
REMARK    2  A    between atoms: C_8  and  N_9
REMARK    3  A    between atoms: N_9  and  C_10
REMARK    4  A    between atoms: C_14  and  C_15
REMARK                            x       y       z     vdW  Elec       q    Type
REMARK                         _______ _______ _______ _____ _____    ______ ____
ROOT
ATOM      1  C   UNL     1      44.442   5.872  12.207  0.00  0.00    +0.000 A 
ATOM      2  C   UNL     1      43.420   5.144  12.823  0.00  0.00    +0.000 A 
ATOM      3  C   UNL     1      43.033   3.899  12.335  0.00  0.00    +0.000 A 
ATOM      4  C   UNL     1      43.642   3.377  11.195  0.00  0.00    +0.000 A 
ATOM      5  C   UNL     1      44.646   4.087  10.515  0.00  0.00    +0.000 A 
ATOM      6  C   UNL     1      45.004   5.351  11.030  0.00  0.00    +0.000 A 
ENDROOT
BRANCH   5   7
ATOM      7  C   UNL     1      45.313   3.518   9.324  0.00  0.00    +0.000 A 
ATOM      8  C   UNL     1      45.822   4.316   8.288  0.00  0.00    +0.000 A 
ATOM      9  C   UNL     1      46.461   3.739   7.190  0.00  0.00    +0.000 A 
ATOM     10  C   UNL     1      46.571   2.362   7.143  0.00  0.00    +0.000 A 
ATOM     11  N   UNL     1      46.101   1.544   8.102  0.00  0.00    +0.000 NA
ATOM     12  C   UNL     1      45.495   2.140   9.161  0.00  0.00    +0.000 A 
ENDBRANCH   5   7
BRANCH   1  13
ATOM     13  N   UNL     1      44.845   7.139  12.657  0.00  0.00    +0.000 N 
ATOM     14  H   UNL     1      44.050   7.760  12.825  0.00  0.00    +0.000 HD
BRANCH  13  15
ATOM     15  C   UNL     1      45.847   7.827  11.839  0.00  0.00    +0.000 C 
BRANCH  15  22
ATOM     16 CL   UNL     1      48.849   6.438  15.851  0.00  0.00    +0.000 Cl
ATOM     17  C   UNL     1      48.645   7.053  14.258  0.00  0.00    +0.000 A 
ATOM     18  C   UNL     1      49.757   7.392  13.502  0.00  0.00    +0.000 A 
ATOM     19  C   UNL     1      49.525   7.871  12.231  0.00  0.00    +0.000 A 
ATOM     20 CL   UNL     1      50.828   8.306  11.203  0.00  0.00    +0.000 Cl
ATOM     21  N   UNL     1      48.303   8.037  11.685  0.00  0.00    +0.000 NA
ATOM     22  C   UNL     1      47.228   7.711  12.454  0.00  0.00    +0.000 A 
ATOM     23  C   UNL     1      47.366   7.200  13.739  0.00  0.00    +0.000 A 
ENDBRANCH  15  22
ENDBRANCH  13  15
ENDBRANCH   1  13
TORSDOF 4
ENDMDL
MODEL 9
REMARK VINA RESULT:    -6.413      3.711      6.089
REMARK INTER + INTRA:          -8.650
REMARK INTER:                  -7.970
REMARK INTRA:                  -0.679
REMARK UNBOUND:                -0.737
REMARK  Name = 
REMARK  4 active torsions:
REMARK  status: ('A' for Active; 'I' for Inactive)
REMARK    1  A    between atoms: C_7  and  C_8
REMARK    2  A    between atoms: C_8  and  N_9
REMARK    3  A    between atoms: N_9  and  C_10
REMARK    4  A    between atoms: C_14  and  C_15
REMARK                            x       y       z     vdW  Elec       q    Type
REMARK                         _______ _______ _______ _____ _____    ______ ____
ROOT
ATOM      1  C   UNL     1      47.772   7.232  13.685  0.00  0.00    +0.000 A 
ATOM      2  C   UNL     1      47.236   8.507  13.477  0.00  0.00    +0.000 A 
ATOM      3  C   UNL     1      45.986   8.670  12.886  0.00  0.00    +0.000 A 
ATOM      4  C   UNL     1      45.266   7.555  12.458  0.00  0.00    +0.000 A 
ATOM      5  C   UNL     1      45.779   6.255  12.607  0.00  0.00    +0.000 A 
ATOM      6  C   UNL     1      47.053   6.128  13.199  0.00  0.00    +0.000 A 
ENDROOT
BRANCH   5   7
ATOM      7  C   UNL     1      44.999   5.072  12.182  0.00  0.00    +0.000 A 
ATOM      8  C   UNL     1      44.928   4.655  10.844  0.00  0.00    +0.000 A 
ATOM      9  C   UNL     1      44.196   3.521  10.487  0.00  0.00    +0.000 A 
ATOM     10  C   UNL     1      43.534   2.827  11.483  0.00  0.00    +0.000 A 
ATOM     11  N   UNL     1      43.562   3.179  12.781  0.00  0.00    +0.000 NA
ATOM     12  C   UNL     1      44.293   4.280  13.093  0.00  0.00    +0.000 A 
ENDBRANCH   5   7
BRANCH   1  13
ATOM     13  N   UNL     1      49.037   7.029  14.258  0.00  0.00    +0.000 N 
ATOM     14  H   UNL     1      49.427   6.114  14.019  0.00  0.00    +0.000 HD
BRANCH  13  15
ATOM     15  C   UNL     1      49.135   7.247  15.703  0.00  0.00    +0.000 C 
BRANCH  15  22
ATOM     16 CL   UNL     1      47.185   2.810  17.585  0.00  0.00    +0.000 Cl
ATOM     17  C   UNL     1      48.501   3.876  17.288  0.00  0.00    +0.000 A 
ATOM     18  C   UNL     1      49.783   3.513  17.674  0.00  0.00    +0.000 A 
ATOM     19  C   UNL     1      50.793   4.409  17.400  0.00  0.00    +0.000 A 
ATOM     20 CL   UNL     1      52.419   4.056  17.818  0.00  0.00    +0.000 Cl
ATOM     21  N   UNL     1      50.619   5.602  16.796  0.00  0.00    +0.000 NA
ATOM     22  C   UNL     1      49.349   5.940  16.442  0.00  0.00    +0.000 A 
ATOM     23  C   UNL     1      48.269   5.091  16.658  0.00  0.00    +0.000 A 
ENDBRANCH  15  22
ENDBRANCH  13  15
ENDBRANCH   1  13
TORSDOF 4
ENDMDL
