MODEL 1
REMARK VINA RESULT:    -6.717      0.000      0.000
REMARK INTER + INTRA:          -8.683
REMARK INTER:                  -8.287
REMARK INTRA:                  -0.395
REMARK UNBOUND:                -0.395
REMARK  Name = 
REMARK  7 active torsions:
REMARK  status: ('A' for Active; 'I' for Inactive)
REMARK    1  A    between atoms: C_1  and  C_2
REMARK    2  A    between atoms: C_2  and  C_3
REMARK    3  A    between atoms: C_2  and  C_4
REMARK    4  A    between atoms: C_2  and  C_5
REMARK    5  A    between atoms: C_9  and  C_10
REMARK    6  A    between atoms: N_16  and  C_17
REMARK    7  A    between atoms: C_17  and  C_18
REMARK                            x       y       z     vdW  Elec       q    Type
REMARK                         _______ _______ _______ _____ _____    ______ ____
ROOT
ATOM      1  C   UNL     1      44.530   4.017  11.102  0.00  0.00    +0.000 A 
ATOM      2  N   UNL     1      44.803   2.826  10.576  0.00  0.00    +0.000 NA
ATOM      3  C   UNL     1      45.489   3.049   9.415  0.00  0.00    +0.000 A 
ATOM      4  C   UNL     1      46.014   2.167   8.461  0.00  0.00    +0.000 A 
ATOM      5  C   UNL     1      46.676   2.733   7.363  0.00  0.00    +0.000 A 
ATOM      6  C   UNL     1      46.781   4.124   7.289  0.00  0.00    +0.000 A 
ATOM      7  N   UNL     1      46.277   5.014   8.185  0.00  0.00    +0.000 NA
ATOM      8  C   UNL     1      45.653   4.405   9.212  0.00  0.00    +0.000 A 
ATOM      9  N   UNL     1      45.005   5.014  10.261  0.00  0.00    +0.000 N 
ENDROOT
BRANCH   5  10
ATOM     10  C   UNL     1      47.277   1.943   6.260  0.00  0.00    +0.000 C 
ATOM     11  N   UNL     1      48.003   2.596   5.306  0.00  0.00    +0.000 N 
ATOM     12  O   UNL     1      47.140   0.727   6.204  0.00  0.00    +0.000 OA
ATOM     13  H   UNL     1      48.196   3.585   5.290  0.00  0.00    +0.000 HD
ATOM     14  H   UNL     1      48.419   2.025   4.580  0.00  0.00    +0.000 HD
ENDBRANCH   5  10
BRANCH   1  16
ATOM     15  C   UNL     1      44.944   4.577  13.498  0.00  0.00    +0.000 C 
ATOM     16  C   UNL     1      43.869   4.172  12.473  0.00  0.00    +0.000 C 
ATOM     17  C   UNL     1      43.284   2.803  12.903  0.00  0.00    +0.000 C 
ATOM     18  C   UNL     1      42.705   5.171  12.523  0.00  0.00    +0.000 C 
ENDBRANCH   1  16
BRANCH   9  19
ATOM     19  C   UNL     1      44.918   6.460  10.361  0.00  0.00    +0.000 C 
BRANCH  19  20
ATOM     20  C   UNL     1      45.760   7.042  11.469  0.00  0.00    +0.000 A 
ATOM     21  C   UNL     1      45.283   8.003  12.360  0.00  0.00    +0.000 A 
ATOM     22  N   UNL     1      46.059   8.590  13.304  0.00  0.00    +0.000 NA
ATOM     23  C   UNL     1      47.350   8.201  13.320  0.00  0.00    +0.000 A 
ATOM     24  C   UNL     1      47.842   7.254  12.443  0.00  0.00    +0.000 A 
ATOM     25  N   UNL     1      47.066   6.656  11.507  0.00  0.00    +0.000 NA
ENDBRANCH  19  20
ENDBRANCH   9  19
TORSDOF 4
ENDMDL
MODEL 2
REMARK VINA RESULT:    -6.059      4.426      6.807
REMARK INTER + INTRA:          -7.872
REMARK INTER:                  -7.519
REMARK INTRA:                  -0.353
REMARK UNBOUND:                -0.395
REMARK  Name = 
REMARK  7 active torsions:
REMARK  status: ('A' for Active; 'I' for Inactive)
REMARK    1  A    between atoms: C_1  and  C_2
REMARK    2  A    between atoms: C_2  and  C_3
REMARK    3  A    between atoms: C_2  and  C_4
REMARK    4  A    between atoms: C_2  and  C_5
REMARK    5  A    between atoms: C_9  and  C_10
REMARK    6  A    between atoms: N_16  and  C_17
REMARK    7  A    between atoms: C_17  and  C_18
REMARK                            x       y       z     vdW  Elec       q    Type
REMARK                         _______ _______ _______ _____ _____    ______ ____
ROOT
ATOM      1  C   UNL     1      48.603   6.696  15.047  0.00  0.00    +0.000 A 
ATOM      2  N   UNL     1      48.371   7.058  13.788  0.00  0.00    +0.000 NA
ATOM      3  C   UNL     1      47.387   6.239  13.310  0.00  0.00    +0.000 A 
ATOM      4  C   UNL     1      46.762   6.169  12.058  0.00  0.00    +0.000 A 
ATOM      5  C   UNL     1      45.770   5.193  11.892  0.00  0.00    +0.000 A 
ATOM      6  C   UNL     1      45.458   4.365  12.973  0.00  0.00    +0.000 A 
ATOM      7  N   UNL     1      46.048   4.392  14.200  0.00  0.00    +0.000 NA
ATOM      8  C   UNL     1      46.991   5.350  14.290  0.00  0.00    +0.000 A 
ATOM      9  N   UNL     1      47.796   5.615  15.373  0.00  0.00    +0.000 N 
ENDROOT
BRANCH   5  10
ATOM     10  C   UNL     1      45.021   4.977  10.630  0.00  0.00    +0.000 C 
ATOM     11  N   UNL     1      45.593   5.367   9.453  0.00  0.00    +0.000 N 
ATOM     12  O   UNL     1      43.916   4.449  10.632  0.00  0.00    +0.000 OA
ATOM     13  H   UNL     1      46.508   5.777   9.353  0.00  0.00    +0.000 HD
ATOM     14  H   UNL     1      45.065   5.184   8.608  0.00  0.00    +0.000 HD
ENDBRANCH   5  10
BRANCH   1  16
ATOM     15  C   UNL     1      48.913   7.632  17.339  0.00  0.00    +0.000 C 
ATOM     16  C   UNL     1      49.564   7.466  15.954  0.00  0.00    +0.000 C 
ATOM     17  C   UNL     1      49.793   8.877  15.356  0.00  0.00    +0.000 C 
ATOM     18  C   UNL     1      50.955   6.835  16.109  0.00  0.00    +0.000 C 
ENDBRANCH   1  16
BRANCH   9  19
ATOM     19  C   UNL     1      47.705   4.833  16.593  0.00  0.00    +0.000 C 
BRANCH  19  20
ATOM     20  C   UNL     1      48.800   3.806  16.737  0.00  0.00    +0.000 A 
ATOM     21  C   UNL     1      48.741   2.546  16.141  0.00  0.00    +0.000 A 
ATOM     22  N   UNL     1      49.682   1.588  16.336  0.00  0.00    +0.000 NA
ATOM     23  C   UNL     1      50.687   1.922  17.170  0.00  0.00    +0.000 A 
ATOM     24  C   UNL     1      50.760   3.163  17.772  0.00  0.00    +0.000 A 
ATOM     25  N   UNL     1      49.828   4.126  17.570  0.00  0.00    +0.000 NA
ENDBRANCH  19  20
ENDBRANCH   9  19
TORSDOF 4
ENDMDL
MODEL 3
REMARK VINA RESULT:    -5.893      3.843      5.964
REMARK INTER + INTRA:          -7.666
REMARK INTER:                  -7.337
REMARK INTRA:                  -0.330
REMARK UNBOUND:                -0.395
REMARK  Name = 
REMARK  7 active torsions:
REMARK  status: ('A' for Active; 'I' for Inactive)
REMARK    1  A    between atoms: C_1  and  C_2
REMARK    2  A    between atoms: C_2  and  C_3
REMARK    3  A    between atoms: C_2  and  C_4
REMARK    4  A    between atoms: C_2  and  C_5
REMARK    5  A    between atoms: C_9  and  C_10
REMARK    6  A    between atoms: N_16  and  C_17
REMARK    7  A    between atoms: C_17  and  C_18
REMARK                            x       y       z     vdW  Elec       q    Type
REMARK                         _______ _______ _______ _____ _____    ______ ____
ROOT
ATOM      1  C   UNL     1      45.105   4.655  12.503  0.00  0.00    +0.000 A 
ATOM      2  N   UNL     1      45.330   4.005  13.642  0.00  0.00    +0.000 NA
ATOM      3  C   UNL     1      46.385   4.624  14.254  0.00  0.00    +0.000 A 
ATOM      4  C   UNL     1      47.043   4.360  15.462  0.00  0.00    +0.000 A 
ATOM      5  C   UNL     1      48.109   5.203  15.806  0.00  0.00    +0.000 A 
ATOM      6  C   UNL     1      48.442   6.249  14.941  0.00  0.00    +0.000 A 
ATOM      7  N   UNL     1      47.836   6.531  13.756  0.00  0.00    +0.000 NA
ATOM      8  C   UNL     1      46.824   5.685  13.486  0.00  0.00    +0.000 A 
ATOM      9  N   UNL     1      46.039   5.671  12.358  0.00  0.00    +0.000 N 
ENDROOT
BRANCH   5  10
ATOM     10  C   UNL     1      48.918   5.055  17.041  0.00  0.00    +0.000 C 
ATOM     11  N   UNL     1      48.371   5.433  18.233  0.00  0.00    +0.000 N 
ATOM     12  O   UNL     1      50.052   4.593  17.002  0.00  0.00    +0.000 OA
ATOM     13  H   UNL     1      47.438   5.790  18.364  0.00  0.00    +0.000 HD
ATOM     14  H   UNL     1      48.942   5.298  19.059  0.00  0.00    +0.000 HD
ENDBRANCH   5  10
BRANCH   1  16
ATOM     15  C   UNL     1      42.752   5.265  11.940  0.00  0.00    +0.000 C 
ATOM     16  C   UNL     1      43.919   4.323  11.595  0.00  0.00    +0.000 C 
ATOM     17  C   UNL     1      43.465   2.869  11.877  0.00  0.00    +0.000 C 
ATOM     18  C   UNL     1      44.215   4.396  10.090  0.00  0.00    +0.000 C 
ENDBRANCH   1  16
BRANCH   9  19
ATOM     19  C   UNL     1      46.246   6.622  11.280  0.00  0.00    +0.000 C 
BRANCH  19  20
ATOM     20  C   UNL     1      45.555   7.945  11.499  0.00  0.00    +0.000 A 
ATOM     21  C   UNL     1      44.256   8.204  11.061  0.00  0.00    +0.000 A 
ATOM     22  N   UNL     1      43.661   9.417  11.179  0.00  0.00    +0.000 NA
ATOM     23  C   UNL     1      44.417  10.383  11.738  0.00  0.00    +0.000 A 
ATOM     24  C   UNL     1      45.706  10.146  12.174  0.00  0.00    +0.000 A 
ATOM     25  N   UNL     1      46.299   8.933  12.068  0.00  0.00    +0.000 NA
ENDBRANCH  19  20
ENDBRANCH   9  19
TORSDOF 4
ENDMDL
MODEL 4
REMARK VINA RESULT:    -5.867      4.546      7.606
REMARK INTER + INTRA:          -7.635
REMARK INTER:                  -7.201
REMARK INTRA:                  -0.433
REMARK UNBOUND:                -0.395
REMARK  Name = 
REMARK  7 active torsions:
REMARK  status: ('A' for Active; 'I' for Inactive)
REMARK    1  A    between atoms: C_1  and  C_2
REMARK    2  A    between atoms: C_2  and  C_3
REMARK    3  A    between atoms: C_2  and  C_4
REMARK    4  A    between atoms: C_2  and  C_5
REMARK    5  A    between atoms: C_9  and  C_10
REMARK    6  A    between atoms: N_16  and  C_17
REMARK    7  A    between atoms: C_17  and  C_18
REMARK                            x       y       z     vdW  Elec       q    Type
REMARK                         _______ _______ _______ _____ _____    ______ ____
ROOT
ATOM      1  C   UNL     1      47.526   6.664  13.734  0.00  0.00    +0.000 A 
ATOM      2  N   UNL     1      48.039   7.011  14.911  0.00  0.00    +0.000 NA
ATOM      3  C   UNL     1      48.082   5.880  15.678  0.00  0.00    +0.000 A 
ATOM      4  C   UNL     1      48.518   5.664  16.992  0.00  0.00    +0.000 A 
ATOM      5  C   UNL     1      48.425   4.357  17.490  0.00  0.00    +0.000 A 
ATOM      6  C   UNL     1      47.920   3.357  16.655  0.00  0.00    +0.000 A 
ATOM      7  N   UNL     1      47.476   3.527  15.380  0.00  0.00    +0.000 NA
ATOM      8  C   UNL     1      47.592   4.803  14.966  0.00  0.00    +0.000 A 
ATOM      9  N   UNL     1      47.200   5.315  13.751  0.00  0.00    +0.000 N 
ENDROOT
BRANCH   5  10
ATOM     10  C   UNL     1      48.831   3.961  18.860  0.00  0.00    +0.000 C 
ATOM     11  N   UNL     1      48.211   2.894  19.446  0.00  0.00    +0.000 N 
ATOM     12  O   UNL     1      49.711   4.566  19.460  0.00  0.00    +0.000 OA
ATOM     13  H   UNL     1      47.504   2.319  19.017  0.00  0.00    +0.000 HD
ATOM     14  H   UNL     1      48.528   2.636  20.373  0.00  0.00    +0.000 HD
ENDBRANCH   5  10
BRANCH   1  16
ATOM     15  C   UNL     1      48.080   7.004  11.324  0.00  0.00    +0.000 C 
ATOM     16  C   UNL     1      47.430   7.645  12.564  0.00  0.00    +0.000 C 
ATOM     17  C   UNL     1      48.228   8.925  12.919  0.00  0.00    +0.000 C 
ATOM     18  C   UNL     1      46.007   8.107  12.220  0.00  0.00    +0.000 C 
ENDBRANCH   1  16
BRANCH   9  19
ATOM     19  C   UNL     1      46.578   4.477  12.742  0.00  0.00    +0.000 C 
BRANCH  19  20
ATOM     20  C   UNL     1      45.144   4.843  12.449  0.00  0.00    +0.000 A 
ATOM     21  C   UNL     1      44.174   4.963  13.444  0.00  0.00    +0.000 A 
ATOM     22  N   UNL     1      42.867   5.210  13.180  0.00  0.00    +0.000 NA
ATOM     23  C   UNL     1      42.547   5.314  11.874  0.00  0.00    +0.000 A 
ATOM     24  C   UNL     1      43.494   5.193  10.875  0.00  0.00    +0.000 A 
ATOM     25  N   UNL     1      44.803   4.960  11.136  0.00  0.00    +0.000 NA
ENDBRANCH  19  20
ENDBRANCH   9  19
TORSDOF 4
ENDMDL
MODEL 5
REMARK VINA RESULT:    -5.851      3.026      4.941
REMARK INTER + INTRA:          -7.615
REMARK INTER:                  -7.449
REMARK INTRA:                  -0.165
REMARK UNBOUND:                -0.395
REMARK  Name = 
REMARK  7 active torsions:
REMARK  status: ('A' for Active; 'I' for Inactive)
REMARK    1  A    between atoms: C_1  and  C_2
REMARK    2  A    between atoms: C_2  and  C_3
REMARK    3  A    between atoms: C_2  and  C_4
REMARK    4  A    between atoms: C_2  and  C_5
REMARK    5  A    between atoms: C_9  and  C_10
REMARK    6  A    between atoms: N_16  and  C_17
REMARK    7  A    between atoms: C_17  and  C_18
REMARK                            x       y       z     vdW  Elec       q    Type
REMARK                         _______ _______ _______ _____ _____    ______ ____
ROOT
ATOM      1  C   UNL     1      47.773   6.591  14.034  0.00  0.00    +0.000 A 
ATOM      2  N   UNL     1      47.084   5.473  14.247  0.00  0.00    +0.000 NA
ATOM      3  C   UNL     1      46.409   5.192  13.092  0.00  0.00    +0.000 A 
ATOM      4  C   UNL     1      45.535   4.149  12.756  0.00  0.00    +0.000 A 
ATOM      5  C   UNL     1      45.003   4.154  11.459  0.00  0.00    +0.000 A 
ATOM      6  C   UNL     1      45.377   5.179  10.586  0.00  0.00    +0.000 A 
ATOM      7  N   UNL     1      46.211   6.214  10.876  0.00  0.00    +0.000 NA
ATOM      8  C   UNL     1      46.684   6.149  12.135  0.00  0.00    +0.000 A 
ATOM      9  N   UNL     1      47.514   7.057  12.752  0.00  0.00    +0.000 N 
ENDROOT
BRANCH   5  10
ATOM     10  C   UNL     1      44.057   3.133  10.948  0.00  0.00    +0.000 C 
ATOM     11  N   UNL     1      44.502   2.229  10.026  0.00  0.00    +0.000 N 
ATOM     12  O   UNL     1      42.900   3.086  11.347  0.00  0.00    +0.000 OA
ATOM     13  H   UNL     1      45.442   2.171   9.667  0.00  0.00    +0.000 HD
ATOM     14  H   UNL     1      43.836   1.531   9.714  0.00  0.00    +0.000 HD
ENDBRANCH   5  10
BRANCH   1  16
ATOM     15  C   UNL     1      48.799   6.208  16.276  0.00  0.00    +0.000 C 
ATOM     16  C   UNL     1      48.749   7.158  15.066  0.00  0.00    +0.000 C 
ATOM     17  C   UNL     1      48.221   8.531  15.552  0.00  0.00    +0.000 C 
ATOM     18  C   UNL     1      50.172   7.405  14.545  0.00  0.00    +0.000 C 
ENDBRANCH   1  16
BRANCH   9  19
ATOM     19  C   UNL     1      47.978   8.247  12.064  0.00  0.00    +0.000 C 
BRANCH  19  20
ATOM     20  C   UNL     1      46.963   9.362  12.030  0.00  0.00    +0.000 A 
ATOM     21  C   UNL     1      45.645   9.203  12.459  0.00  0.00    +0.000 A 
ATOM     22  N   UNL     1      44.707  10.175  12.353  0.00  0.00    +0.000 NA
ATOM     23  C   UNL     1      45.121  11.323  11.780  0.00  0.00    +0.000 A 
ATOM     24  C   UNL     1      46.421  11.498  11.345  0.00  0.00    +0.000 A 
ATOM     25  N   UNL     1      47.364  10.533  11.461  0.00  0.00    +0.000 NA
ENDBRANCH  19  20
ENDBRANCH   9  19
TORSDOF 4
ENDMDL
MODEL 6
REMARK VINA RESULT:    -5.704      4.155      6.069
REMARK INTER + INTRA:          -7.433
REMARK INTER:                  -6.959
REMARK INTRA:                  -0.474
REMARK UNBOUND:                -0.395
REMARK  Name = 
REMARK  7 active torsions:
REMARK  status: ('A' for Active; 'I' for Inactive)
REMARK    1  A    between atoms: C_1  and  C_2
REMARK    2  A    between atoms: C_2  and  C_3
REMARK    3  A    between atoms: C_2  and  C_4
REMARK    4  A    between atoms: C_2  and  C_5
REMARK    5  A    between atoms: C_9  and  C_10
REMARK    6  A    between atoms: N_16  and  C_17
REMARK    7  A    between atoms: C_17  and  C_18
REMARK                            x       y       z     vdW  Elec       q    Type
REMARK                         _______ _______ _______ _____ _____    ______ ____
ROOT
ATOM      1  C   UNL     1      47.743   4.794  16.044  0.00  0.00    +0.000 A 
ATOM      2  N   UNL     1      46.716   4.256  15.390  0.00  0.00    +0.000 NA
ATOM      3  C   UNL     1      46.626   4.900  14.188  0.00  0.00    +0.000 A 
ATOM      4  C   UNL     1      45.735   4.748  13.117  0.00  0.00    +0.000 A 
ATOM      5  C   UNL     1      45.921   5.585  12.007  0.00  0.00    +0.000 A 
ATOM      6  C   UNL     1      46.975   6.502  12.030  0.00  0.00    +0.000 A 
ATOM      7  N   UNL     1      47.853   6.689  13.052  0.00  0.00    +0.000 NA
ATOM      8  C   UNL     1      47.617   5.856  14.085  0.00  0.00    +0.000 A 
ATOM      9  N   UNL     1      48.293   5.814  15.281  0.00  0.00    +0.000 N 
ENDROOT
BRANCH   5  10
ATOM     10  C   UNL     1      45.062   5.562  10.798  0.00  0.00    +0.000 C 
ATOM     11  N   UNL     1      45.658   5.531   9.570  0.00  0.00    +0.000 N 
ATOM     12  O   UNL     1      43.840   5.559  10.890  0.00  0.00    +0.000 OA
ATOM     13  H   UNL     1      46.651   5.496   9.400  0.00  0.00    +0.000 HD
ATOM     14  H   UNL     1      45.043   5.492   8.766  0.00  0.00    +0.000 HD
ENDBRANCH   5  10
BRANCH   1  16
ATOM     15  C   UNL     1      47.657   2.834  17.587  0.00  0.00    +0.000 C 
ATOM     16  C   UNL     1      48.230   4.249  17.388  0.00  0.00    +0.000 C 
ATOM     17  C   UNL     1      47.686   5.154  18.521  0.00  0.00    +0.000 C 
ATOM     18  C   UNL     1      49.755   4.217  17.559  0.00  0.00    +0.000 C 
ENDBRANCH   1  16
BRANCH   9  19
ATOM     19  C   UNL     1      49.386   6.726  15.565  0.00  0.00    +0.000 C 
BRANCH  19  20
ATOM     20  C   UNL     1      49.019   7.833  16.522  0.00  0.00    +0.000 A 
ATOM     21  C   UNL     1      48.162   8.879  16.181  0.00  0.00    +0.000 A 
ATOM     22  N   UNL     1      47.895   9.920  17.008  0.00  0.00    +0.000 NA
ATOM     23  C   UNL     1      48.533   9.898  18.195  0.00  0.00    +0.000 A 
ATOM     24  C   UNL     1      49.389   8.872  18.549  0.00  0.00    +0.000 A 
ATOM     25  N   UNL     1      49.648   7.825  17.730  0.00  0.00    +0.000 NA
ENDBRANCH  19  20
ENDBRANCH   9  19
TORSDOF 4
ENDMDL
MODEL 7
REMARK VINA RESULT:    -5.581      4.252      6.487
REMARK INTER + INTRA:          -7.282
REMARK INTER:                  -6.953
REMARK INTRA:                  -0.329
REMARK UNBOUND:                -0.395
REMARK  Name = 
REMARK  7 active torsions:
REMARK  status: ('A' for Active; 'I' for Inactive)
REMARK    1  A    between atoms: C_1  and  C_2
REMARK    2  A    between atoms: C_2  and  C_3
REMARK    3  A    between atoms: C_2  and  C_4
REMARK    4  A    between atoms: C_2  and  C_5
REMARK    5  A    between atoms: C_9  and  C_10
REMARK    6  A    between atoms: N_16  and  C_17
REMARK    7  A    between atoms: C_17  and  C_18
REMARK                            x       y       z     vdW  Elec       q    Type
REMARK                         _______ _______ _______ _____ _____    ______ ____
ROOT
ATOM      1  C   UNL     1      47.674   8.631  12.587  0.00  0.00    +0.000 A 
ATOM      2  N   UNL     1      46.446   8.462  12.105  0.00  0.00    +0.000 NA
ATOM      3  C   UNL     1      46.023   7.226  12.510  0.00  0.00    +0.000 A 
ATOM      4  C   UNL     1      44.825   6.535  12.288  0.00  0.00    +0.000 A 
ATOM      5  C   UNL     1      44.709   5.258  12.856  0.00  0.00    +0.000 A 
ATOM      6  C   UNL     1      45.776   4.761  13.608  0.00  0.00    +0.000 A 
ATOM      7  N   UNL     1      46.958   5.395  13.838  0.00  0.00    +0.000 NA
ATOM      8  C   UNL     1      47.004   6.612  13.264  0.00  0.00    +0.000 A 
ATOM      9  N   UNL     1      48.064   7.488  13.271  0.00  0.00    +0.000 N 
ENDROOT
BRANCH   5  10
ATOM     10  C   UNL     1      43.516   4.390  12.707  0.00  0.00    +0.000 C 
ATOM     11  N   UNL     1      42.504   4.799  11.886  0.00  0.00    +0.000 N 
ATOM     12  O   UNL     1      43.435   3.319  13.297  0.00  0.00    +0.000 OA
ATOM     13  H   UNL     1      42.499   5.645  11.338  0.00  0.00    +0.000 HD
ATOM     14  H   UNL     1      41.715   4.172  11.790  0.00  0.00    +0.000 HD
ENDBRANCH   5  10
BRANCH   1  16
ATOM     15  C   UNL     1      47.545  10.954  11.684  0.00  0.00    +0.000 C 
ATOM     16  C   UNL     1      48.435   9.950  12.439  0.00  0.00    +0.000 C 
ATOM     17  C   UNL     1      49.707   9.701  11.592  0.00  0.00    +0.000 C 
ATOM     18  C   UNL     1      48.913  10.574  13.758  0.00  0.00    +0.000 C 
ENDBRANCH   1  16
BRANCH   9  19
ATOM     19  C   UNL     1      49.314   7.158  13.932  0.00  0.00    +0.000 C 
BRANCH  19  20
ATOM     20  C   UNL     1      49.199   7.062  15.433  0.00  0.00    +0.000 A 
ATOM     21  C   UNL     1      48.735   8.110  16.227  0.00  0.00    +0.000 A 
ATOM     22  N   UNL     1      48.708   8.059  17.582  0.00  0.00    +0.000 NA
ATOM     23  C   UNL     1      49.184   6.923  18.131  0.00  0.00    +0.000 A 
ATOM     24  C   UNL     1      49.652   5.876  17.360  0.00  0.00    +0.000 A 
ATOM     25  N   UNL     1      49.668   5.919  16.006  0.00  0.00    +0.000 NA
ENDBRANCH  19  20
ENDBRANCH   9  19
TORSDOF 4
ENDMDL
MODEL 8
REMARK VINA RESULT:    -5.522      4.286      6.638
REMARK INTER + INTRA:          -7.209
REMARK INTER:                  -6.932
REMARK INTRA:                  -0.276
REMARK UNBOUND:                -0.395
REMARK  Name = 
REMARK  7 active torsions:
REMARK  status: ('A' for Active; 'I' for Inactive)
REMARK    1  A    between atoms: C_1  and  C_2
REMARK    2  A    between atoms: C_2  and  C_3
REMARK    3  A    between atoms: C_2  and  C_4
REMARK    4  A    between atoms: C_2  and  C_5
REMARK    5  A    between atoms: C_9  and  C_10
REMARK    6  A    between atoms: N_16  and  C_17
REMARK    7  A    between atoms: C_17  and  C_18
REMARK                            x       y       z     vdW  Elec       q    Type
REMARK                         _______ _______ _______ _____ _____    ______ ____
ROOT
ATOM      1  C   UNL     1      46.206   5.045  13.060  0.00  0.00    +0.000 A 
ATOM      2  N   UNL     1      46.352   3.892  13.707  0.00  0.00    +0.000 NA
ATOM      3  C   UNL     1      47.137   4.142  14.798  0.00  0.00    +0.000 A 
ATOM      4  C   UNL     1      47.612   3.301  15.813  0.00  0.00    +0.000 A 
ATOM      5  C   UNL     1      48.411   3.886  16.806  0.00  0.00    +0.000 A 
ATOM      6  C   UNL     1      48.675   5.256  16.731  0.00  0.00    +0.000 A 
ATOM      7  N   UNL     1      48.243   6.103  15.758  0.00  0.00    +0.000 NA
ATOM      8  C   UNL     1      47.484   5.477  14.838  0.00  0.00    +0.000 A 
ATOM      9  N   UNL     1      46.929   6.035  13.710  0.00  0.00    +0.000 N 
ENDROOT
BRANCH   5  10
ATOM     10  C   UNL     1      49.003   3.138  17.941  0.00  0.00    +0.000 C 
ATOM     11  N   UNL     1      48.364   3.163  19.148  0.00  0.00    +0.000 N 
ATOM     12  O   UNL     1      50.038   2.498  17.806  0.00  0.00    +0.000 OA
ATOM     13  H   UNL     1      47.494   3.634  19.342  0.00  0.00    +0.000 HD
ATOM     14  H   UNL     1      48.783   2.623  19.896  0.00  0.00    +0.000 HD
ENDBRANCH   5  10
BRANCH   1  16
ATOM     15  C   UNL     1      44.006   5.922  12.273  0.00  0.00    +0.000 C 
ATOM     16  C   UNL     1      45.288   5.188  11.843  0.00  0.00    +0.000 C 
ATOM     17  C   UNL     1      44.892   3.774  11.348  0.00  0.00    +0.000 C 
ATOM     18  C   UNL     1      45.915   5.904  10.640  0.00  0.00    +0.000 C 
ENDBRANCH   1  16
BRANCH   9  19
ATOM     19  C   UNL     1      47.128   7.435  13.381  0.00  0.00    +0.000 C 
BRANCH  19  20
ATOM     20  C   UNL     1      48.548   7.771  12.999  0.00  0.00    +0.000 A 
ATOM     21  C   UNL     1      49.388   8.541  13.802  0.00  0.00    +0.000 A 
ATOM     22  N   UNL     1      50.636   8.917  13.427  0.00  0.00    +0.000 NA
ATOM     23  C   UNL     1      51.020   8.513  12.199  0.00  0.00    +0.000 A 
ATOM     24  C   UNL     1      50.200   7.752  11.387  0.00  0.00    +0.000 A 
ATOM     25  N   UNL     1      48.958   7.365  11.765  0.00  0.00    +0.000 NA
ENDBRANCH  19  20
ENDBRANCH   9  19
TORSDOF 4
ENDMDL
MODEL 9
REMARK VINA RESULT:    -5.517      3.448      5.771
REMARK INTER + INTRA:          -7.202
REMARK INTER:                  -6.867
REMARK INTRA:                  -0.336
REMARK UNBOUND:                -0.395
REMARK  Name = 
REMARK  7 active torsions:
REMARK  status: ('A' for Active; 'I' for Inactive)
REMARK    1  A    between atoms: C_1  and  C_2
REMARK    2  A    between atoms: C_2  and  C_3
REMARK    3  A    between atoms: C_2  and  C_4
REMARK    4  A    between atoms: C_2  and  C_5
REMARK    5  A    between atoms: C_9  and  C_10
REMARK    6  A    between atoms: N_16  and  C_17
REMARK    7  A    between atoms: C_17  and  C_18
REMARK                            x       y       z     vdW  Elec       q    Type
REMARK                         _______ _______ _______ _____ _____    ______ ____
ROOT
ATOM      1  C   UNL     1      48.355   6.429  14.948  0.00  0.00    +0.000 A 
ATOM      2  N   UNL     1      47.844   5.202  14.993  0.00  0.00    +0.000 NA
ATOM      3  C   UNL     1      47.012   5.075  13.916  0.00  0.00    +0.000 A 
ATOM      4  C   UNL     1      46.216   4.009  13.478  0.00  0.00    +0.000 A 
ATOM      5  C   UNL     1      45.466   4.209  12.310  0.00  0.00    +0.000 A 
ATOM      6  C   UNL     1      45.563   5.439  11.655  0.00  0.00    +0.000 A 
ATOM      7  N   UNL     1      46.314   6.501  12.053  0.00  0.00    +0.000 NA
ATOM      8  C   UNL     1      47.006   6.243  13.179  0.00  0.00    +0.000 A 
ATOM      9  N   UNL     1      47.824   7.112  13.863  0.00  0.00    +0.000 N 
ENDROOT
BRANCH   5  10
ATOM     10  C   UNL     1      44.565   3.190  11.718  0.00  0.00    +0.000 C 
ATOM     11  N   UNL     1      43.807   2.420  12.553  0.00  0.00    +0.000 N 
ATOM     12  O   UNL     1      44.487   3.043  10.504  0.00  0.00    +0.000 OA
ATOM     13  H   UNL     1      43.781   2.494  13.558  0.00  0.00    +0.000 HD
ATOM     14  H   UNL     1      43.185   1.750  12.116  0.00  0.00    +0.000 HD
ENDBRANCH   5  10
BRANCH   1  16
ATOM     15  C   UNL     1      49.675   5.794  16.969  0.00  0.00    +0.000 C 
ATOM     16  C   UNL     1      49.428   6.903  15.930  0.00  0.00    +0.000 C 
ATOM     17  C   UNL     1      48.904   8.156  16.677  0.00  0.00    +0.000 C 
ATOM     18  C   UNL     1      50.760   7.314  15.286  0.00  0.00    +0.000 C 
ENDBRANCH   1  16
BRANCH   9  19
ATOM     19  C   UNL     1      48.023   8.477  13.411  0.00  0.00    +0.000 C 
BRANCH  19  20
ATOM     20  C   UNL     1      49.254   8.659  12.558  0.00  0.00    +0.000 A 
ATOM     21  C   UNL     1      49.800   7.635  11.785  0.00  0.00    +0.000 A 
ATOM     22  N   UNL     1      50.953   7.768  11.083  0.00  0.00    +0.000 NA
ATOM     23  C   UNL     1      51.566   8.963  11.193  0.00  0.00    +0.000 A 
ATOM     24  C   UNL     1      51.042   9.989  11.958  0.00  0.00    +0.000 A 
ATOM     25  N   UNL     1      49.884   9.863  12.650  0.00  0.00    +0.000 NA
ENDBRANCH  19  20
ENDBRANCH   9  19
TORSDOF 4
ENDMDL
