MODEL 1
REMARK VINA RESULT:    -7.195      0.000      0.000
REMARK INTER + INTRA:          -9.323
REMARK INTER:                  -8.877
REMARK INTRA:                  -0.446
REMARK UNBOUND:                -0.446
REMARK  Name = 
REMARK  5 active torsions:
REMARK  status: ('A' for Active; 'I' for Inactive)
REMARK    1  A    between atoms: C_1  and  S_2
REMARK    2  A    between atoms: S_2  and  C_5
REMARK    3  A    between atoms: C_8  and  C_9
REMARK    4  A    between atoms: C_9  and  N_10
REMARK    5  A    between atoms: C_15  and  C_16
REMARK                            x       y       z     vdW  Elec       q    Type
REMARK                         _______ _______ _______ _____ _____    ______ ____
ROOT
ATOM      1  N   UNL     1      45.006   4.744  12.100  0.00  0.00    +0.000 N 
ATOM      2  C   UNL     1      45.375   3.692  12.899  0.00  0.00    +0.000 A 
ATOM      3  N   UNL     1      46.225   4.062  13.828  0.00  0.00    +0.000 NA
ATOM      4  C   UNL     1      46.419   5.404  13.626  0.00  0.00    +0.000 A 
ATOM      5  C   UNL     1      47.282   6.272  14.316  0.00  0.00    +0.000 A 
ATOM      6  C   UNL     1      47.331   7.621  13.941  0.00  0.00    +0.000 A 
ATOM      7  C   UNL     1      46.498   8.089  12.916  0.00  0.00    +0.000 A 
ATOM      8  C   UNL     1      45.629   7.236  12.227  0.00  0.00    +0.000 A 
ATOM      9 CL   UNL     1      44.609   7.909  11.020  0.00  0.00    +0.000 Cl
ATOM     10  C   UNL     1      45.628   5.880  12.578  0.00  0.00    +0.000 A 
ENDROOT
BRANCH   6  11
ATOM     11  C   UNL     1      48.244   8.609  14.582  0.00  0.00    +0.000 C 
ATOM     12  N   UNL     1      47.788   9.333  15.647  0.00  0.00    +0.000 N 
ATOM     13  O   UNL     1      49.384   8.776  14.169  0.00  0.00    +0.000 OA
ATOM     14  H   UNL     1      46.869   9.267  16.054  0.00  0.00    +0.000 HD
ATOM     15  H   UNL     1      48.441   9.989  16.058  0.00  0.00    +0.000 HD
ENDBRANCH   6  11
BRANCH   1  16
ATOM     16  C   UNL     1      44.238   4.594  10.874  0.00  0.00    +0.000 C 
BRANCH  16  20
ATOM     17  C   UNL     1      46.371   2.650   7.747  0.00  0.00    +0.000 A 
ATOM     18  C   UNL     1      45.666   1.853   8.639  0.00  0.00    +0.000 A 
ATOM     19  C   UNL     1      44.928   2.464   9.650  0.00  0.00    +0.000 A 
ATOM     20  C   UNL     1      44.963   3.854   9.776  0.00  0.00    +0.000 A 
ATOM     21  N   UNL     1      45.640   4.632   8.889  0.00  0.00    +0.000 NA
ATOM     22  C   UNL     1      46.335   4.021   7.897  0.00  0.00    +0.000 A 
BRANCH  17  24
ATOM     23  C   UNL     1      46.814   2.813   5.020  0.00  0.00    +0.000 C 
ATOM     24  S   UNL     1      47.338   1.931   6.464  0.00  0.00    +0.000 S 
ATOM     25  O   UNL     1      46.923   0.550   6.327  0.00  0.00    +0.000 OA
ATOM     26  O   UNL     1      48.725   2.271   6.725  0.00  0.00    +0.000 OA
ENDBRANCH  17  24
ENDBRANCH  16  20
ENDBRANCH   1  16
TORSDOF 4
ENDMDL
MODEL 2
REMARK VINA RESULT:    -7.105      1.620      2.146
REMARK INTER + INTRA:          -9.212
REMARK INTER:                  -8.751
REMARK INTRA:                  -0.460
REMARK UNBOUND:                -0.446
REMARK  Name = 
REMARK  5 active torsions:
REMARK  status: ('A' for Active; 'I' for Inactive)
REMARK    1  A    between atoms: C_1  and  S_2
REMARK    2  A    between atoms: S_2  and  C_5
REMARK    3  A    between atoms: C_8  and  C_9
REMARK    4  A    between atoms: C_9  and  N_10
REMARK    5  A    between atoms: C_15  and  C_16
REMARK                            x       y       z     vdW  Elec       q    Type
REMARK                         _______ _______ _______ _____ _____    ______ ____
ROOT
ATOM      1  N   UNL     1      45.045   6.038  11.338  0.00  0.00    +0.000 N 
ATOM      2  C   UNL     1      44.861   7.356  11.012  0.00  0.00    +0.000 A 
ATOM      3  N   UNL     1      45.584   8.149  11.767  0.00  0.00    +0.000 NA
ATOM      4  C   UNL     1      46.263   7.317  12.618  0.00  0.00    +0.000 A 
ATOM      5  C   UNL     1      47.132   7.664  13.666  0.00  0.00    +0.000 A 
ATOM      6  C   UNL     1      47.722   6.646  14.425  0.00  0.00    +0.000 A 
ATOM      7  C   UNL     1      47.467   5.304  14.108  0.00  0.00    +0.000 A 
ATOM      8  C   UNL     1      46.610   4.946  13.062  0.00  0.00    +0.000 A 
ATOM      9 CL   UNL     1      46.398   3.277  12.714  0.00  0.00    +0.000 Cl
ATOM     10  C   UNL     1      45.987   5.976  12.345  0.00  0.00    +0.000 A 
ENDROOT
BRANCH   6  11
ATOM     11  C   UNL     1      48.622   6.913  15.583  0.00  0.00    +0.000 C 
ATOM     12  N   UNL     1      48.270   7.879  16.481  0.00  0.00    +0.000 N 
ATOM     13  O   UNL     1      49.660   6.282  15.735  0.00  0.00    +0.000 OA
ATOM     14  H   UNL     1      47.441   8.449  16.439  0.00  0.00    +0.000 HD
ATOM     15  H   UNL     1      48.904   8.026  17.257  0.00  0.00    +0.000 HD
ENDBRANCH   6  11
BRANCH   1  16
ATOM     16  C   UNL     1      44.229   4.955  10.809  0.00  0.00    +0.000 C 
BRANCH  16  20
ATOM     17  C   UNL     1      46.297   2.676   7.871  0.00  0.00    +0.000 A 
ATOM     18  C   UNL     1      45.550   1.984   8.815  0.00  0.00    +0.000 A 
ATOM     19  C   UNL     1      44.832   2.705   9.766  0.00  0.00    +0.000 A 
ATOM     20  C   UNL     1      44.929   4.098   9.782  0.00  0.00    +0.000 A 
ATOM     21  N   UNL     1      45.647   4.773   8.844  0.00  0.00    +0.000 NA
ATOM     22  C   UNL     1      46.322   4.055   7.912  0.00  0.00    +0.000 A 
BRANCH  17  24
ATOM     23  C   UNL     1      46.725   2.561   5.139  0.00  0.00    +0.000 C 
ATOM     24  S   UNL     1      47.241   1.815   6.660  0.00  0.00    +0.000 S 
ATOM     25  O   UNL     1      46.799   0.436   6.661  0.00  0.00    +0.000 OA
ATOM     26  O   UNL     1      48.637   2.151   6.880  0.00  0.00    +0.000 OA
ENDBRANCH  17  24
ENDBRANCH  16  20
ENDBRANCH   1  16
TORSDOF 4
ENDMDL
MODEL 3
REMARK VINA RESULT:    -6.638      2.631      7.372
REMARK INTER + INTRA:          -8.636
REMARK INTER:                  -8.374
REMARK INTRA:                  -0.262
REMARK UNBOUND:                -0.446
REMARK  Name = 
REMARK  5 active torsions:
REMARK  status: ('A' for Active; 'I' for Inactive)
REMARK    1  A    between atoms: C_1  and  S_2
REMARK    2  A    between atoms: S_2  and  C_5
REMARK    3  A    between atoms: C_8  and  C_9
REMARK    4  A    between atoms: C_9  and  N_10
REMARK    5  A    between atoms: C_15  and  C_16
REMARK                            x       y       z     vdW  Elec       q    Type
REMARK                         _______ _______ _______ _____ _____    ______ ____
ROOT
ATOM      1  N   UNL     1      44.107   4.284  11.040  0.00  0.00    +0.000 N 
ATOM      2  C   UNL     1      43.422   3.161  11.428  0.00  0.00    +0.000 A 
ATOM      3  N   UNL     1      43.682   2.139  10.647  0.00  0.00    +0.000 NA
ATOM      4  C   UNL     1      44.568   2.613   9.716  0.00  0.00    +0.000 A 
ATOM      5  C   UNL     1      45.120   1.935   8.616  0.00  0.00    +0.000 A 
ATOM      6  C   UNL     1      46.011   2.615   7.776  0.00  0.00    +0.000 A 
ATOM      7  C   UNL     1      46.364   3.941   8.063  0.00  0.00    +0.000 A 
ATOM      8  C   UNL     1      45.828   4.624   9.159  0.00  0.00    +0.000 A 
ATOM      9 CL   UNL     1      46.359   6.229   9.462  0.00  0.00    +0.000 Cl
ATOM     10  C   UNL     1      44.899   3.947   9.961  0.00  0.00    +0.000 A 
ENDROOT
BRANCH   6  11
ATOM     11  C   UNL     1      46.614   1.997   6.560  0.00  0.00    +0.000 C 
ATOM     12  N   UNL     1      46.729   2.750   5.427  0.00  0.00    +0.000 N 
ATOM     13  O   UNL     1      47.003   0.836   6.569  0.00  0.00    +0.000 OA
ATOM     14  H   UNL     1      46.438   3.708   5.324  0.00  0.00    +0.000 HD
ATOM     15  H   UNL     1      47.150   2.296   4.626  0.00  0.00    +0.000 HD
ENDBRANCH   6  11
BRANCH   1  16
ATOM     16  C   UNL     1      43.864   5.608  11.592  0.00  0.00    +0.000 C 
BRANCH  16  20
ATOM     17  C   UNL     1      47.298   7.164  13.564  0.00  0.00    +0.000 A 
ATOM     18  C   UNL     1      46.407   8.073  13.008  0.00  0.00    +0.000 A 
ATOM     19  C   UNL     1      45.255   7.593  12.389  0.00  0.00    +0.000 A 
ATOM     20  C   UNL     1      45.055   6.215  12.293  0.00  0.00    +0.000 A 
ATOM     21  N   UNL     1      45.921   5.329  12.855  0.00  0.00    +0.000 NA
ATOM     22  C   UNL     1      47.026   5.815  13.473  0.00  0.00    +0.000 A 
BRANCH  17  24
ATOM     23  C   UNL     1      48.197   8.834  15.581  0.00  0.00    +0.000 C 
ATOM     24  S   UNL     1      48.780   7.713  14.339  0.00  0.00    +0.000 S 
ATOM     25  O   UNL     1      49.529   8.472  13.360  0.00  0.00    +0.000 OA
ATOM     26  O   UNL     1      49.371   6.566  15.005  0.00  0.00    +0.000 OA
ENDBRANCH  17  24
ENDBRANCH  16  20
ENDBRANCH   1  16
TORSDOF 4
ENDMDL
MODEL 4
REMARK VINA RESULT:    -6.270      4.070      7.058
REMARK INTER + INTRA:          -8.182
REMARK INTER:                  -7.555
REMARK INTRA:                  -0.627
REMARK UNBOUND:                -0.446
REMARK  Name = 
REMARK  5 active torsions:
REMARK  status: ('A' for Active; 'I' for Inactive)
REMARK    1  A    between atoms: C_1  and  S_2
REMARK    2  A    between atoms: S_2  and  C_5
REMARK    3  A    between atoms: C_8  and  C_9
REMARK    4  A    between atoms: C_9  and  N_10
REMARK    5  A    between atoms: C_15  and  C_16
REMARK                            x       y       z     vdW  Elec       q    Type
REMARK                         _______ _______ _______ _____ _____    ______ ____
ROOT
ATOM      1  N   UNL     1      46.049   7.761  12.894  0.00  0.00    +0.000 N 
ATOM      2  C   UNL     1      45.285   8.576  12.099  0.00  0.00    +0.000 A 
ATOM      3  N   UNL     1      44.446   7.888  11.361  0.00  0.00    +0.000 NA
ATOM      4  C   UNL     1      44.672   6.576  11.686  0.00  0.00    +0.000 A 
ATOM      5  C   UNL     1      44.074   5.429  11.139  0.00  0.00    +0.000 A 
ATOM      6  C   UNL     1      44.458   4.169  11.616  0.00  0.00    +0.000 A 
ATOM      7  C   UNL     1      45.400   4.074  12.650  0.00  0.00    +0.000 A 
ATOM      8  C   UNL     1      45.996   5.209  13.209  0.00  0.00    +0.000 A 
ATOM      9 CL   UNL     1      47.101   4.998  14.506  0.00  0.00    +0.000 Cl
ATOM     10  C   UNL     1      45.640   6.459  12.685  0.00  0.00    +0.000 A 
ENDROOT
BRANCH   6  11
ATOM     11  C   UNL     1      43.915   2.892  11.070  0.00  0.00    +0.000 C 
ATOM     12  N   UNL     1      44.522   2.331   9.983  0.00  0.00    +0.000 N 
ATOM     13  O   UNL     1      42.943   2.350  11.579  0.00  0.00    +0.000 OA
ATOM     14  H   UNL     1      45.321   2.702   9.497  0.00  0.00    +0.000 HD
ATOM     15  H   UNL     1      44.127   1.461   9.646  0.00  0.00    +0.000 HD
ENDBRANCH   6  11
BRANCH   1  16
ATOM     16  C   UNL     1      47.193   8.227  13.662  0.00  0.00    +0.000 C 
BRANCH  16  20
ATOM     17  C   UNL     1      50.742   8.965  11.434  0.00  0.00    +0.000 A 
ATOM     18  C   UNL     1      50.229   7.675  11.420  0.00  0.00    +0.000 A 
ATOM     19  C   UNL     1      49.048   7.413  12.110  0.00  0.00    +0.000 A 
ATOM     20  C   UNL     1      48.444   8.436  12.843  0.00  0.00    +0.000 A 
ATOM     21  N   UNL     1      48.940   9.703  12.839  0.00  0.00    +0.000 NA
ATOM     22  C   UNL     1      50.079   9.945  12.144  0.00  0.00    +0.000 A 
BRANCH  17  24
ATOM     23  C   UNL     1      52.705   7.803   9.867  0.00  0.00    +0.000 C 
ATOM     24  S   UNL     1      52.244   9.348  10.598  0.00  0.00    +0.000 S 
ATOM     25  O   UNL     1      53.229   9.685  11.605  0.00  0.00    +0.000 OA
ATOM     26  O   UNL     1      51.920  10.278   9.531  0.00  0.00    +0.000 OA
ENDBRANCH  17  24
ENDBRANCH  16  20
ENDBRANCH   1  16
TORSDOF 4
ENDMDL
MODEL 5
REMARK VINA RESULT:    -5.887      6.157      8.424
REMARK INTER + INTRA:          -7.709
REMARK INTER:                  -7.287
REMARK INTRA:                  -0.421
REMARK UNBOUND:                -0.446
REMARK  Name = 
REMARK  5 active torsions:
REMARK  status: ('A' for Active; 'I' for Inactive)
REMARK    1  A    between atoms: C_1  and  S_2
REMARK    2  A    between atoms: S_2  and  C_5
REMARK    3  A    between atoms: C_8  and  C_9
REMARK    4  A    between atoms: C_9  and  N_10
REMARK    5  A    between atoms: C_15  and  C_16
REMARK                            x       y       z     vdW  Elec       q    Type
REMARK                         _______ _______ _______ _____ _____    ______ ____
ROOT
ATOM      1  N   UNL     1      50.269   4.825  17.741  0.00  0.00    +0.000 N 
ATOM      2  C   UNL     1      51.183   5.758  18.157  0.00  0.00    +0.000 A 
ATOM      3  N   UNL     1      52.362   5.221  18.372  0.00  0.00    +0.000 NA
ATOM      4  C   UNL     1      52.209   3.889  18.086  0.00  0.00    +0.000 A 
ATOM      5  C   UNL     1      53.156   2.859  18.207  0.00  0.00    +0.000 A 
ATOM      6  C   UNL     1      52.787   1.552  17.862  0.00  0.00    +0.000 A 
ATOM      7  C   UNL     1      51.499   1.300  17.372  0.00  0.00    +0.000 A 
ATOM      8  C   UNL     1      50.549   2.318  17.239  0.00  0.00    +0.000 A 
ATOM      9 CL   UNL     1      49.012   1.923  16.581  0.00  0.00    +0.000 Cl
ATOM     10  C   UNL     1      50.917   3.611  17.636  0.00  0.00    +0.000 A 
ENDROOT
BRANCH   6  11
ATOM     11  C   UNL     1      53.706   0.386  17.997  0.00  0.00    +0.000 C 
ATOM     12  N   UNL     1      53.912  -0.418  16.913  0.00  0.00    +0.000 N 
ATOM     13  O   UNL     1      54.269   0.145  19.057  0.00  0.00    +0.000 OA
ATOM     14  H   UNL     1      53.493  -0.301  16.005  0.00  0.00    +0.000 HD
ATOM     15  H   UNL     1      54.548  -1.195  17.044  0.00  0.00    +0.000 HD
ENDBRANCH   6  11
BRANCH   1  16
ATOM     16  C   UNL     1      48.843   5.091  17.622  0.00  0.00    +0.000 C 
BRANCH  16  20
ATOM     17  C   UNL     1      47.501   6.239  13.751  0.00  0.00    +0.000 A 
ATOM     18  C   UNL     1      48.347   7.110  14.424  0.00  0.00    +0.000 A 
ATOM     19  C   UNL     1      48.832   6.744  15.677  0.00  0.00    +0.000 A 
ATOM     20  C   UNL     1      48.410   5.541  16.248  0.00  0.00    +0.000 A 
ATOM     21  N   UNL     1      47.596   4.682  15.577  0.00  0.00    +0.000 NA
ATOM     22  C   UNL     1      47.151   5.045  14.348  0.00  0.00    +0.000 A 
BRANCH  17  24
ATOM     23  C   UNL     1      45.693   7.956  12.550  0.00  0.00    +0.000 C 
ATOM     24  S   UNL     1      46.840   6.660  12.174  0.00  0.00    +0.000 S 
ATOM     25  O   UNL     1      46.092   5.517  11.695  0.00  0.00    +0.000 OA
ATOM     26  O   UNL     1      47.923   7.226  11.389  0.00  0.00    +0.000 OA
ENDBRANCH  17  24
ENDBRANCH  16  20
ENDBRANCH   1  16
TORSDOF 4
ENDMDL
MODEL 6
REMARK VINA RESULT:    -5.868      4.916      8.948
REMARK INTER + INTRA:          -7.686
REMARK INTER:                  -7.439
REMARK INTRA:                  -0.247
REMARK UNBOUND:                -0.446
REMARK  Name = 
REMARK  5 active torsions:
REMARK  status: ('A' for Active; 'I' for Inactive)
REMARK    1  A    between atoms: C_1  and  S_2
REMARK    2  A    between atoms: S_2  and  C_5
REMARK    3  A    between atoms: C_8  and  C_9
REMARK    4  A    between atoms: C_9  and  N_10
REMARK    5  A    between atoms: C_15  and  C_16
REMARK                            x       y       z     vdW  Elec       q    Type
REMARK                         _______ _______ _______ _____ _____    ______ ____
ROOT
ATOM      1  N   UNL     1      47.755   5.804  14.395  0.00  0.00    +0.000 N 
ATOM      2  C   UNL     1      47.432   4.717  15.166  0.00  0.00    +0.000 A 
ATOM      3  N   UNL     1      46.456   4.018  14.636  0.00  0.00    +0.000 NA
ATOM      4  C   UNL     1      46.130   4.674  13.478  0.00  0.00    +0.000 A 
ATOM      5  C   UNL     1      45.108   4.369  12.563  0.00  0.00    +0.000 A 
ATOM      6  C   UNL     1      44.942   5.182  11.435  0.00  0.00    +0.000 A 
ATOM      7  C   UNL     1      45.813   6.258  11.217  0.00  0.00    +0.000 A 
ATOM      8  C   UNL     1      46.840   6.567  12.116  0.00  0.00    +0.000 A 
ATOM      9 CL   UNL     1      47.891   7.872  11.740  0.00  0.00    +0.000 Cl
ATOM     10  C   UNL     1      46.961   5.776  13.266  0.00  0.00    +0.000 A 
ENDROOT
BRANCH   6  11
ATOM     11  C   UNL     1      43.860   4.967  10.431  0.00  0.00    +0.000 C 
ATOM     12  N   UNL     1      44.183   4.412   9.226  0.00  0.00    +0.000 N 
ATOM     13  O   UNL     1      42.702   5.279  10.674  0.00  0.00    +0.000 OA
ATOM     14  H   UNL     1      45.104   4.127   8.936  0.00  0.00    +0.000 HD
ATOM     15  H   UNL     1      43.419   4.277   8.574  0.00  0.00    +0.000 HD
ENDBRANCH   6  11
BRANCH   1  16
ATOM     16  C   UNL     1      48.655   6.862  14.830  0.00  0.00    +0.000 C 
BRANCH  16  20
ATOM     17  C   UNL     1      50.443   6.215  18.636  0.00  0.00    +0.000 A 
ATOM     18  C   UNL     1      49.282   6.975  18.590  0.00  0.00    +0.000 A 
ATOM     19  C   UNL     1      48.654   7.172  17.363  0.00  0.00    +0.000 A 
ATOM     20  C   UNL     1      49.238   6.651  16.206  0.00  0.00    +0.000 A 
ATOM     21  N   UNL     1      50.366   5.892  16.258  0.00  0.00    +0.000 NA
ATOM     22  C   UNL     1      50.951   5.692  17.465  0.00  0.00    +0.000 A 
BRANCH  17  24
ATOM     23  C   UNL     1      50.105   5.073  21.135  0.00  0.00    +0.000 C 
ATOM     24  S   UNL     1      51.291   5.953  20.157  0.00  0.00    +0.000 S 
ATOM     25  O   UNL     1      51.507   7.249  20.765  0.00  0.00    +0.000 OA
ATOM     26  O   UNL     1      52.404   5.062  19.883  0.00  0.00    +0.000 OA
ENDBRANCH  17  24
ENDBRANCH  16  20
ENDBRANCH   1  16
TORSDOF 4
ENDMDL
MODEL 7
REMARK VINA RESULT:    -5.776      5.042      8.986
REMARK INTER + INTRA:          -7.573
REMARK INTER:                  -7.126
REMARK INTRA:                  -0.447
REMARK UNBOUND:                -0.446
REMARK  Name = 
REMARK  5 active torsions:
REMARK  status: ('A' for Active; 'I' for Inactive)
REMARK    1  A    between atoms: C_1  and  S_2
REMARK    2  A    between atoms: S_2  and  C_5
REMARK    3  A    between atoms: C_8  and  C_9
REMARK    4  A    between atoms: C_9  and  N_10
REMARK    5  A    between atoms: C_15  and  C_16
REMARK                            x       y       z     vdW  Elec       q    Type
REMARK                         _______ _______ _______ _____ _____    ______ ____
ROOT
ATOM      1  N   UNL     1      47.762   7.243  13.788  0.00  0.00    +0.000 N 
ATOM      2  C   UNL     1      47.557   8.564  13.482  0.00  0.00    +0.000 A 
ATOM      3  N   UNL     1      46.497   8.728  12.724  0.00  0.00    +0.000 NA
ATOM      4  C   UNL     1      45.995   7.469  12.529  0.00  0.00    +0.000 A 
ATOM      5  C   UNL     1      44.896   7.083  11.743  0.00  0.00    +0.000 A 
ATOM      6  C   UNL     1      44.552   5.726  11.676  0.00  0.00    +0.000 A 
ATOM      7  C   UNL     1      45.281   4.786  12.417  0.00  0.00    +0.000 A 
ATOM      8  C   UNL     1      46.371   5.159  13.209  0.00  0.00    +0.000 A 
ATOM      9 CL   UNL     1      47.172   3.944  14.122  0.00  0.00    +0.000 Cl
ATOM     10  C   UNL     1      46.735   6.512  13.226  0.00  0.00    +0.000 A 
ENDROOT
BRANCH   6  11
ATOM     11  C   UNL     1      43.432   5.213  10.836  0.00  0.00    +0.000 C 
ATOM     12  N   UNL     1      43.715   4.704   9.601  0.00  0.00    +0.000 N 
ATOM     13  O   UNL     1      42.276   5.242  11.239  0.00  0.00    +0.000 OA
ATOM     14  H   UNL     1      44.630   4.640   9.186  0.00  0.00    +0.000 HD
ATOM     15  H   UNL     1      42.928   4.360   9.065  0.00  0.00    +0.000 HD
ENDBRANCH   6  11
BRANCH   1  16
ATOM     16  C   UNL     1      48.963   6.744  14.440  0.00  0.00    +0.000 C 
BRANCH  16  20
ATOM     17  C   UNL     1      48.787   6.458  18.681  0.00  0.00    +0.000 A 
ATOM     18  C   UNL     1      48.629   7.715  18.113  0.00  0.00    +0.000 A 
ATOM     19  C   UNL     1      48.644   7.833  16.725  0.00  0.00    +0.000 A 
ATOM     20  C   UNL     1      48.877   6.698  15.946  0.00  0.00    +0.000 A 
ATOM     21  N   UNL     1      49.013   5.466  16.506  0.00  0.00    +0.000 NA
ATOM     22  C   UNL     1      48.973   5.367  17.858  0.00  0.00    +0.000 A 
BRANCH  17  24
ATOM     23  C   UNL     1      48.809   4.494  20.631  0.00  0.00    +0.000 C 
ATOM     24  S   UNL     1      48.798   6.253  20.430  0.00  0.00    +0.000 S 
ATOM     25  O   UNL     1      47.539   6.759  20.936  0.00  0.00    +0.000 OA
ATOM     26  O   UNL     1      50.062   6.775  20.919  0.00  0.00    +0.000 OA
ENDBRANCH  17  24
ENDBRANCH  16  20
ENDBRANCH   1  16
TORSDOF 4
ENDMDL
MODEL 8
REMARK VINA RESULT:    -5.559      3.986      7.430
REMARK INTER + INTRA:          -7.304
REMARK INTER:                  -6.736
REMARK INTRA:                  -0.569
REMARK UNBOUND:                -0.446
REMARK  Name = 
REMARK  5 active torsions:
REMARK  status: ('A' for Active; 'I' for Inactive)
REMARK    1  A    between atoms: C_1  and  S_2
REMARK    2  A    between atoms: S_2  and  C_5
REMARK    3  A    between atoms: C_8  and  C_9
REMARK    4  A    between atoms: C_9  and  N_10
REMARK    5  A    between atoms: C_15  and  C_16
REMARK                            x       y       z     vdW  Elec       q    Type
REMARK                         _______ _______ _______ _____ _____    ______ ____
ROOT
ATOM      1  N   UNL     1      47.541   5.999  14.134  0.00  0.00    +0.000 N 
ATOM      2  C   UNL     1      47.862   5.030  15.049  0.00  0.00    +0.000 A 
ATOM      3  N   UNL     1      47.287   3.885  14.765  0.00  0.00    +0.000 NA
ATOM      4  C   UNL     1      46.563   4.117  13.625  0.00  0.00    +0.000 A 
ATOM      5  C   UNL     1      45.718   3.231  12.936  0.00  0.00    +0.000 A 
ATOM      6  C   UNL     1      45.062   3.679  11.781  0.00  0.00    +0.000 A 
ATOM      7  C   UNL     1      45.285   4.981  11.315  0.00  0.00    +0.000 A 
ATOM      8  C   UNL     1      46.130   5.870  11.988  0.00  0.00    +0.000 A 
ATOM      9 CL   UNL     1      46.382   7.429  11.313  0.00  0.00    +0.000 Cl
ATOM     10  C   UNL     1      46.739   5.425  13.169  0.00  0.00    +0.000 A 
ENDROOT
BRANCH   6  11
ATOM     11  C   UNL     1      44.112   2.830  11.006  0.00  0.00    +0.000 C 
ATOM     12  N   UNL     1      44.544   2.251   9.847  0.00  0.00    +0.000 N 
ATOM     13  O   UNL     1      42.965   2.650  11.394  0.00  0.00    +0.000 OA
ATOM     14  H   UNL     1      45.464   2.342   9.450  0.00  0.00    +0.000 HD
ATOM     15  H   UNL     1      43.871   1.677   9.354  0.00  0.00    +0.000 HD
ENDBRANCH   6  11
BRANCH   1  16
ATOM     16  C   UNL     1      47.868   7.407  14.304  0.00  0.00    +0.000 C 
BRANCH  16  20
ATOM     17  C   UNL     1      51.841   8.403  13.154  0.00  0.00    +0.000 A 
ATOM     18  C   UNL     1      50.878   8.339  12.155  0.00  0.00    +0.000 A 
ATOM     19  C   UNL     1      49.562   8.052  12.507  0.00  0.00    +0.000 A 
ATOM     20  C   UNL     1      49.256   7.780  13.842  0.00  0.00    +0.000 A 
ATOM     21  N   UNL     1      50.199   7.862  14.820  0.00  0.00    +0.000 NA
ATOM     22  C   UNL     1      51.471   8.165  14.461  0.00  0.00    +0.000 A 
BRANCH  17  24
ATOM     23  C   UNL     1      53.549   8.681  10.993  0.00  0.00    +0.000 C 
ATOM     24  S   UNL     1      53.525   8.740  12.763  0.00  0.00    +0.000 S 
ATOM     25  O   UNL     1      54.318   7.638  13.265  0.00  0.00    +0.000 OA
ATOM     26  O   UNL     1      53.799  10.106  13.176  0.00  0.00    +0.000 OA
ENDBRANCH  17  24
ENDBRANCH  16  20
ENDBRANCH   1  16
TORSDOF 4
ENDMDL
