MODEL 1
REMARK VINA RESULT:    -8.638      0.000      0.000
REMARK INTER + INTRA:         -12.101
REMARK INTER:                 -11.163
REMARK INTRA:                  -0.938
REMARK UNBOUND:                -0.938
REMARK  Name = 
REMARK  5 active torsions:
REMARK  status: ('A' for Active; 'I' for Inactive)
REMARK    1  A    between atoms: C_2  and  C_18
REMARK    2  A    between atoms: N_3  and  C_4
REMARK    3  A    between atoms: C_4  and  C_5
REMARK    4  A    between atoms: C_8  and  C_9
REMARK    5  A    between atoms: C_9  and  C_10
REMARK                            x       y       z     vdW  Elec       q    Type
REMARK                         _______ _______ _______ _____ _____    ______ ____
ROOT
ATOM      1  O   UNL     1      49.166   6.683  13.503  0.00  0.00    +0.000 OA
ATOM      2  C   UNL     1      48.241   6.522  14.314  0.00  0.00    +0.000 C 
ATOM      3  N   UNL     1      46.926   6.571  13.934  0.00  0.00    +0.000 N 
ATOM      4  H   UNL     1      46.206   6.617  14.656  0.00  0.00    +0.000 HD
ENDROOT
BRANCH   2   5
ATOM      5  C   UNL     1      48.536   6.243  15.720  0.00  0.00    +0.000 A 
ATOM      6  C   UNL     1      49.130   7.197  16.548  0.00  0.00    +0.000 A 
ATOM      7  S   UNL     1      49.294   6.660  18.166  0.00  0.00    +0.000 S 
ATOM      8  C   UNL     1      48.563   5.165  17.808  0.00  0.00    +0.000 A 
ATOM      9  N   UNL     1      48.355   4.230  18.772  0.00  0.00    +0.000 NA
ATOM     10  C   UNL     1      47.766   3.157  18.359  0.00  0.00    +0.000 A 
ATOM     11  N   UNL     1      47.375   2.918  17.068  0.00  0.00    +0.000 N 
ATOM     12  C   UNL     1      47.641   3.797  16.042  0.00  0.00    +0.000 A 
ATOM     13  O   UNL     1      47.450   3.487  14.878  0.00  0.00    +0.000 OA
ATOM     14  C   UNL     1      48.242   5.055  16.471  0.00  0.00    +0.000 A 
ATOM     15  H   UNL     1      46.965   2.053  16.783  0.00  0.00    +0.000 HD
ENDBRANCH   2   5
BRANCH   3  16
ATOM     16  C   UNL     1      46.507   6.825  12.570  0.00  0.00    +0.000 C 
BRANCH  16  17
ATOM     17  C   UNL     1      45.721   5.704  11.941  0.00  0.00    +0.000 A 
ATOM     18  C   UNL     1      45.851   4.411  12.441  0.00  0.00    +0.000 A 
ATOM     19  C   UNL     1      45.124   3.364  11.896  0.00  0.00    +0.000 A 
ATOM     20  C   UNL     1      44.469   3.573  10.692  0.00  0.00    +0.000 A 
ATOM     21  N   UNL     1      44.227   4.825  10.231  0.00  0.00    +0.000 NA
ATOM     22  C   UNL     1      44.800   5.862  10.909  0.00  0.00    +0.000 A 
BRANCH  20  23
ATOM     23  C   UNL     1      44.153   2.349   9.845  0.00  0.00    +0.000 C 
BRANCH  23  24
ATOM     24  C   UNL     1      45.271   1.756   8.977  0.00  0.00    +0.000 C 
ATOM     25  C   UNL     1      46.023   2.244   7.962  0.00  0.00    +0.000 C 
ATOM     26  C   UNL     1      47.172   1.496   7.315  0.00  0.00    +0.000 C 
ATOM     27  C   UNL     1      48.010   2.640   6.749  0.00  0.00    +0.000 C 
ATOM     28  N   UNL     1      47.007   3.578   6.227  0.00  0.00    +0.000 NA
ATOM     29  C   UNL     1      45.986   3.604   7.308  0.00  0.00    +0.000 C 
ATOM     30  H   UNL     1      46.579   3.172   5.391  0.00  0.00    +0.000 HD
ENDBRANCH  23  24
ENDBRANCH  20  23
ENDBRANCH  16  17
ENDBRANCH   3  16
TORSDOF 5
ENDMDL
MODEL 2
REMARK VINA RESULT:    -7.719      1.453      2.142
REMARK INTER + INTRA:         -10.913
REMARK INTER:                 -10.277
REMARK INTRA:                  -0.636
REMARK UNBOUND:                -0.938
REMARK  Name = 
REMARK  5 active torsions:
REMARK  status: ('A' for Active; 'I' for Inactive)
REMARK    1  A    between atoms: C_2  and  C_18
REMARK    2  A    between atoms: N_3  and  C_4
REMARK    3  A    between atoms: C_4  and  C_5
REMARK    4  A    between atoms: C_8  and  C_9
REMARK    5  A    between atoms: C_9  and  C_10
REMARK                            x       y       z     vdW  Elec       q    Type
REMARK                         _______ _______ _______ _____ _____    ______ ____
ROOT
ATOM      1  O   UNL     1      48.285   5.590  13.285  0.00  0.00    +0.000 OA
ATOM      2  C   UNL     1      47.443   5.550  14.194  0.00  0.00    +0.000 C 
ATOM      3  N   UNL     1      46.163   6.007  14.018  0.00  0.00    +0.000 N 
ATOM      4  H   UNL     1      45.565   6.123  14.837  0.00  0.00    +0.000 HD
ENDROOT
BRANCH   2   5
ATOM      5  C   UNL     1      47.791   4.978  15.496  0.00  0.00    +0.000 A 
ATOM      6  C   UNL     1      47.438   3.672  15.840  0.00  0.00    +0.000 A 
ATOM      7  S   UNL     1      48.030   3.210  17.380  0.00  0.00    +0.000 S 
ATOM      8  C   UNL     1      48.781   4.720  17.611  0.00  0.00    +0.000 A 
ATOM      9  N   UNL     1      49.508   4.985  18.728  0.00  0.00    +0.000 NA
ATOM     10  C   UNL     1      50.042   6.160  18.753  0.00  0.00    +0.000 A 
ATOM     11  N   UNL     1      49.911   7.109  17.772  0.00  0.00    +0.000 N 
ATOM     12  C   UNL     1      49.117   6.918  16.664  0.00  0.00    +0.000 A 
ATOM     13  O   UNL     1      48.868   7.835  15.899  0.00  0.00    +0.000 OA
ATOM     14  C   UNL     1      48.548   5.579  16.557  0.00  0.00    +0.000 A 
ATOM     15  H   UNL     1      50.304   8.023  17.855  0.00  0.00    +0.000 HD
ENDBRANCH   2   5
BRANCH   3  16
ATOM     16  C   UNL     1      45.693   6.580  12.774  0.00  0.00    +0.000 C 
BRANCH  16  17
ATOM     17  C   UNL     1      45.210   5.570  11.765  0.00  0.00    +0.000 A 
ATOM     18  C   UNL     1      44.279   4.609  12.150  0.00  0.00    +0.000 A 
ATOM     19  C   UNL     1      43.801   3.681  11.238  0.00  0.00    +0.000 A 
ATOM     20  C   UNL     1      44.449   3.561  10.018  0.00  0.00    +0.000 A 
ATOM     21  N   UNL     1      45.277   4.534   9.563  0.00  0.00    +0.000 NA
ATOM     22  C   UNL     1      45.579   5.550  10.423  0.00  0.00    +0.000 A 
BRANCH  20  23
ATOM     23  C   UNL     1      44.303   2.242   9.274  0.00  0.00    +0.000 C 
BRANCH  23  24
ATOM     24  C   UNL     1      45.545   1.646   8.598  0.00  0.00    +0.000 C 
ATOM     25  C   UNL     1      46.312   2.030   7.551  0.00  0.00    +0.000 C 
ATOM     26  C   UNL     1      47.587   1.328   7.122  0.00  0.00    +0.000 C 
ATOM     27  C   UNL     1      48.329   2.445   6.395  0.00  0.00    +0.000 C 
ATOM     28  N   UNL     1      47.270   3.137   5.649  0.00  0.00    +0.000 NA
ATOM     29  C   UNL     1      46.172   3.231   6.647  0.00  0.00    +0.000 C 
ATOM     30  H   UNL     1      46.957   2.533   4.884  0.00  0.00    +0.000 HD
ENDBRANCH  23  24
ENDBRANCH  20  23
ENDBRANCH  16  17
ENDBRANCH   3  16
TORSDOF 5
ENDMDL
MODEL 3
REMARK VINA RESULT:    -7.562      2.455      3.924
REMARK INTER + INTRA:         -10.710
REMARK INTER:                  -9.667
REMARK INTRA:                  -1.043
REMARK UNBOUND:                -0.938
REMARK  Name = 
REMARK  5 active torsions:
REMARK  status: ('A' for Active; 'I' for Inactive)
REMARK    1  A    between atoms: C_2  and  C_18
REMARK    2  A    between atoms: N_3  and  C_4
REMARK    3  A    between atoms: C_4  and  C_5
REMARK    4  A    between atoms: C_8  and  C_9
REMARK    5  A    between atoms: C_9  and  C_10
REMARK                            x       y       z     vdW  Elec       q    Type
REMARK                         _______ _______ _______ _____ _____    ______ ____
ROOT
ATOM      1  O   UNL     1      47.542   5.075  14.586  0.00  0.00    +0.000 OA
ATOM      2  C   UNL     1      47.668   6.235  14.166  0.00  0.00    +0.000 C 
ATOM      3  N   UNL     1      46.649   6.892  13.530  0.00  0.00    +0.000 N 
ATOM      4  H   UNL     1      46.854   7.766  13.044  0.00  0.00    +0.000 HD
ENDROOT
BRANCH   2   5
ATOM      5  C   UNL     1      48.926   6.958  14.368  0.00  0.00    +0.000 A 
ATOM      6  C   UNL     1      49.524   7.051  15.626  0.00  0.00    +0.000 A 
ATOM      7  S   UNL     1      51.025   7.874  15.585  0.00  0.00    +0.000 S 
ATOM      8  C   UNL     1      50.923   8.103  13.902  0.00  0.00    +0.000 A 
ATOM      9  N   UNL     1      51.919   8.719  13.210  0.00  0.00    +0.000 NA
ATOM     10  C   UNL     1      51.716   8.797  11.937  0.00  0.00    +0.000 A 
ATOM     11  N   UNL     1      50.605   8.331  11.283  0.00  0.00    +0.000 N 
ATOM     12  C   UNL     1      49.535   7.779  11.951  0.00  0.00    +0.000 A 
ATOM     13  O   UNL     1      48.486   7.540  11.376  0.00  0.00    +0.000 OA
ATOM     14  C   UNL     1      49.746   7.606  13.384  0.00  0.00    +0.000 A 
ATOM     15  H   UNL     1      50.469   8.456  10.302  0.00  0.00    +0.000 HD
ENDBRANCH   2   5
BRANCH   3  16
ATOM     16  C   UNL     1      45.354   6.291  13.284  0.00  0.00    +0.000 C 
BRANCH  16  17
ATOM     17  C   UNL     1      45.318   5.344  12.112  0.00  0.00    +0.000 A 
ATOM     18  C   UNL     1      45.595   5.825  10.835  0.00  0.00    +0.000 A 
ATOM     19  C   UNL     1      45.590   4.974   9.741  0.00  0.00    +0.000 A 
ATOM     20  C   UNL     1      45.057   3.704   9.897  0.00  0.00    +0.000 A 
ATOM     21  N   UNL     1      44.879   3.162  11.127  0.00  0.00    +0.000 NA
ATOM     22  C   UNL     1      45.084   3.975  12.204  0.00  0.00    +0.000 A 
BRANCH  20  23
ATOM     23  C   UNL     1      44.556   2.996   8.647  0.00  0.00    +0.000 C 
BRANCH  23  24
ATOM     24  C   UNL     1      45.244   3.306   7.310  0.00  0.00    +0.000 C 
ATOM     25  C   UNL     1      46.407   2.906   6.744  0.00  0.00    +0.000 C 
ATOM     26  C   UNL     1      46.838   3.261   5.334  0.00  0.00    +0.000 C 
ATOM     27  C   UNL     1      47.801   2.124   5.006  0.00  0.00    +0.000 C 
ATOM     28  N   UNL     1      48.544   1.926   6.258  0.00  0.00    +0.000 NA
ATOM     29  C   UNL     1      47.473   1.985   7.288  0.00  0.00    +0.000 C 
ATOM     30  H   UNL     1      49.169   2.724   6.400  0.00  0.00    +0.000 HD
ENDBRANCH  23  24
ENDBRANCH  20  23
ENDBRANCH  16  17
ENDBRANCH   3  16
TORSDOF 5
ENDMDL
MODEL 4
REMARK VINA RESULT:    -7.376      3.632      4.596
REMARK INTER + INTRA:         -10.470
REMARK INTER:                  -9.489
REMARK INTRA:                  -0.981
REMARK UNBOUND:                -0.938
REMARK  Name = 
REMARK  5 active torsions:
REMARK  status: ('A' for Active; 'I' for Inactive)
REMARK    1  A    between atoms: C_2  and  C_18
REMARK    2  A    between atoms: N_3  and  C_4
REMARK    3  A    between atoms: C_4  and  C_5
REMARK    4  A    between atoms: C_8  and  C_9
REMARK    5  A    between atoms: C_9  and  C_10
REMARK                            x       y       z     vdW  Elec       q    Type
REMARK                         _______ _______ _______ _____ _____    ______ ____
ROOT
ATOM      1  O   UNL     1      45.988   9.934  11.879  0.00  0.00    +0.000 OA
ATOM      2  C   UNL     1      46.885   9.278  12.428  0.00  0.00    +0.000 C 
ATOM      3  N   UNL     1      46.656   8.034  12.955  0.00  0.00    +0.000 N 
ATOM      4  H   UNL     1      47.368   7.614  13.554  0.00  0.00    +0.000 HD
ENDROOT
BRANCH   2   5
ATOM      5  C   UNL     1      48.245   9.813  12.507  0.00  0.00    +0.000 A 
ATOM      6  C   UNL     1      48.508  11.069  13.056  0.00  0.00    +0.000 A 
ATOM      7  S   UNL     1      50.182  11.431  13.109  0.00  0.00    +0.000 S 
ATOM      8  C   UNL     1      50.591   9.925  12.429  0.00  0.00    +0.000 A 
ATOM      9  N   UNL     1      51.888   9.566  12.233  0.00  0.00    +0.000 NA
ATOM     10  C   UNL     1      52.046   8.386  11.736  0.00  0.00    +0.000 A 
ATOM     11  N   UNL     1      51.032   7.527  11.398  0.00  0.00    +0.000 N 
ATOM     12  C   UNL     1      49.705   7.879  11.499  0.00  0.00    +0.000 A 
ATOM     13  O   UNL     1      48.827   7.176  11.025  0.00  0.00    +0.000 OA
ATOM     14  C   UNL     1      49.474   9.178  12.121  0.00  0.00    +0.000 A 
ATOM     15  H   UNL     1      51.200   6.640  10.971  0.00  0.00    +0.000 HD
ENDBRANCH   2   5
BRANCH   3  16
ATOM     16  C   UNL     1      45.358   7.392  12.926  0.00  0.00    +0.000 C 
BRANCH  16  17
ATOM     17  C   UNL     1      45.312   6.115  12.126  0.00  0.00    +0.000 A 
ATOM     18  C   UNL     1      45.305   6.178  10.735  0.00  0.00    +0.000 A 
ATOM     19  C   UNL     1      45.284   5.020   9.974  0.00  0.00    +0.000 A 
ATOM     20  C   UNL     1      45.011   3.818  10.610  0.00  0.00    +0.000 A 
ATOM     21  N   UNL     1      45.119   3.694  11.956  0.00  0.00    +0.000 NA
ATOM     22  C   UNL     1      45.337   4.835  12.673  0.00  0.00    +0.000 A 
BRANCH  20  23
ATOM     23  C   UNL     1      44.460   2.685   9.758  0.00  0.00    +0.000 C 
BRANCH  23  24
ATOM     24  C   UNL     1      45.440   1.878   8.897  0.00  0.00    +0.000 C 
ATOM     25  C   UNL     1      46.193   2.175   7.811  0.00  0.00    +0.000 C 
ATOM     26  C   UNL     1      47.197   1.229   7.182  0.00  0.00    +0.000 C 
ATOM     27  C   UNL     1      48.144   2.199   6.482  0.00  0.00    +0.000 C 
ATOM     28  N   UNL     1      47.247   3.219   5.924  0.00  0.00    +0.000 NA
ATOM     29  C   UNL     1      46.299   3.470   7.043  0.00  0.00    +0.000 C 
ATOM     30  H   UNL     1      46.723   2.808   5.147  0.00  0.00    +0.000 HD
ENDBRANCH  23  24
ENDBRANCH  20  23
ENDBRANCH  16  17
ENDBRANCH   3  16
TORSDOF 5
ENDMDL
MODEL 5
REMARK VINA RESULT:    -7.334      2.761      3.494
REMARK INTER + INTRA:         -10.415
REMARK INTER:                  -9.567
REMARK INTRA:                  -0.849
REMARK UNBOUND:                -0.938
REMARK  Name = 
REMARK  5 active torsions:
REMARK  status: ('A' for Active; 'I' for Inactive)
REMARK    1  A    between atoms: C_2  and  C_18
REMARK    2  A    between atoms: N_3  and  C_4
REMARK    3  A    between atoms: C_4  and  C_5
REMARK    4  A    between atoms: C_8  and  C_9
REMARK    5  A    between atoms: C_9  and  C_10
REMARK                            x       y       z     vdW  Elec       q    Type
REMARK                         _______ _______ _______ _____ _____    ______ ____
ROOT
ATOM      1  O   UNL     1      48.757   5.567  17.856  0.00  0.00    +0.000 OA
ATOM      2  C   UNL     1      49.712   5.527  17.066  0.00  0.00    +0.000 C 
ATOM      3  N   UNL     1      49.660   6.124  15.834  0.00  0.00    +0.000 N 
ATOM      4  H   UNL     1      50.390   5.912  15.153  0.00  0.00    +0.000 HD
ENDROOT
BRANCH   2   5
ATOM      5  C   UNL     1      50.954   4.852  17.446  0.00  0.00    +0.000 A 
ATOM      6  C   UNL     1      52.054   5.561  17.931  0.00  0.00    +0.000 A 
ATOM      7  S   UNL     1      53.353   4.539  18.383  0.00  0.00    +0.000 S 
ATOM      8  C   UNL     1      52.478   3.140  17.965  0.00  0.00    +0.000 A 
ATOM      9  N   UNL     1      53.002   1.899  18.142  0.00  0.00    +0.000 NA
ATOM     10  C   UNL     1      52.213   0.933  17.807  0.00  0.00    +0.000 A 
ATOM     11  N   UNL     1      50.951   1.084  17.296  0.00  0.00    +0.000 N 
ATOM     12  C   UNL     1      50.411   2.320  17.020  0.00  0.00    +0.000 A 
ATOM     13  O   UNL     1      49.366   2.429  16.399  0.00  0.00    +0.000 OA
ATOM     14  C   UNL     1      51.236   3.444  17.446  0.00  0.00    +0.000 A 
ATOM     15  H   UNL     1      50.393   0.308  17.006  0.00  0.00    +0.000 HD
ENDBRANCH   2   5
BRANCH   3  16
ATOM     16  C   UNL     1      48.495   6.834  15.349  0.00  0.00    +0.000 C 
BRANCH  16  17
ATOM     17  C   UNL     1      47.591   6.018  14.461  0.00  0.00    +0.000 A 
ATOM     18  C   UNL     1      47.177   6.542  13.239  0.00  0.00    +0.000 A 
ATOM     19  C   UNL     1      46.363   5.805  12.393  0.00  0.00    +0.000 A 
ATOM     20  C   UNL     1      45.763   4.658  12.887  0.00  0.00    +0.000 A 
ATOM     21  N   UNL     1      46.216   4.058  14.017  0.00  0.00    +0.000 NA
ATOM     22  C   UNL     1      47.170   4.720  14.736  0.00  0.00    +0.000 A 
BRANCH  20  23
ATOM     23  C   UNL     1      44.498   4.173  12.195  0.00  0.00    +0.000 C 
BRANCH  23  24
ATOM     24  C   UNL     1      44.639   3.167  11.044  0.00  0.00    +0.000 C 
ATOM     25  C   UNL     1      45.022   3.276   9.750  0.00  0.00    +0.000 C 
ATOM     26  C   UNL     1      45.196   2.100   8.809  0.00  0.00    +0.000 C 
ATOM     27  C   UNL     1      46.181   2.662   7.787  0.00  0.00    +0.000 C 
ATOM     28  N   UNL     1      45.722   4.043   7.587  0.00  0.00    +0.000 NA
ATOM     29  C   UNL     1      45.442   4.500   8.974  0.00  0.00    +0.000 C 
ATOM     30  H   UNL     1      44.840   4.026   7.070  0.00  0.00    +0.000 HD
ENDBRANCH  23  24
ENDBRANCH  20  23
ENDBRANCH  16  17
ENDBRANCH   3  16
TORSDOF 5
ENDMDL
MODEL 6
REMARK VINA RESULT:    -7.197      2.233      3.022
REMARK INTER + INTRA:         -10.239
REMARK INTER:                  -9.533
REMARK INTRA:                  -0.706
REMARK UNBOUND:                -0.938
REMARK  Name = 
REMARK  5 active torsions:
REMARK  status: ('A' for Active; 'I' for Inactive)
REMARK    1  A    between atoms: C_2  and  C_18
REMARK    2  A    between atoms: N_3  and  C_4
REMARK    3  A    between atoms: C_4  and  C_5
REMARK    4  A    between atoms: C_8  and  C_9
REMARK    5  A    between atoms: C_9  and  C_10
REMARK                            x       y       z     vdW  Elec       q    Type
REMARK                         _______ _______ _______ _____ _____    ______ ____
ROOT
ATOM      1  O   UNL     1      48.602   4.286  16.414  0.00  0.00    +0.000 OA
ATOM      2  C   UNL     1      48.282   5.353  15.869  0.00  0.00    +0.000 C 
ATOM      3  N   UNL     1      47.336   5.408  14.880  0.00  0.00    +0.000 N 
ATOM      4  H   UNL     1      47.239   6.269  14.339  0.00  0.00    +0.000 HD
ENDROOT
BRANCH   2   5
ATOM      5  C   UNL     1      48.897   6.611  16.296  0.00  0.00    +0.000 A 
ATOM      6  C   UNL     1      49.756   7.328  15.460  0.00  0.00    +0.000 A 
ATOM      7  S   UNL     1      50.277   8.804  16.155  0.00  0.00    +0.000 S 
ATOM      8  C   UNL     1      49.363   8.533  17.565  0.00  0.00    +0.000 A 
ATOM      9  N   UNL     1      49.330   9.445  18.572  0.00  0.00    +0.000 NA
ATOM     10  C   UNL     1      48.572   9.118  19.565  0.00  0.00    +0.000 A 
ATOM     11  N   UNL     1      47.850   7.956  19.660  0.00  0.00    +0.000 N 
ATOM     12  C   UNL     1      47.919   6.967  18.705  0.00  0.00    +0.000 A 
ATOM     13  O   UNL     1      47.417   5.870  18.893  0.00  0.00    +0.000 OA
ATOM     14  C   UNL     1      48.708   7.320  17.530  0.00  0.00    +0.000 A 
ATOM     15  H   UNL     1      47.314   7.722  20.469  0.00  0.00    +0.000 HD
ENDBRANCH   2   5
BRANCH   3  16
ATOM     16  C   UNL     1      46.646   4.236  14.382  0.00  0.00    +0.000 C 
BRANCH  16  17
ATOM     17  C   UNL     1      45.991   4.423  13.037  0.00  0.00    +0.000 A 
ATOM     18  C   UNL     1      45.284   3.367  12.468  0.00  0.00    +0.000 A 
ATOM     19  C   UNL     1      44.653   3.516  11.242  0.00  0.00    +0.000 A 
ATOM     20  C   UNL     1      44.950   4.635  10.480  0.00  0.00    +0.000 A 
ATOM     21  N   UNL     1      45.538   5.726  11.031  0.00  0.00    +0.000 NA
ATOM     22  C   UNL     1      45.979   5.615  12.319  0.00  0.00    +0.000 A 
BRANCH  20  23
ATOM     23  C   UNL     1      44.716   4.543   8.980  0.00  0.00    +0.000 C 
BRANCH  23  24
ATOM     24  C   UNL     1      45.860   4.030   8.095  0.00  0.00    +0.000 C 
ATOM     25  C   UNL     1      46.370   2.801   7.847  0.00  0.00    +0.000 C 
ATOM     26  C   UNL     1      47.454   2.515   6.825  0.00  0.00    +0.000 C 
ATOM     27  C   UNL     1      47.204   1.043   6.508  0.00  0.00    +0.000 C 
ATOM     28  N   UNL     1      46.884   0.457   7.816  0.00  0.00    +0.000 NA
ATOM     29  C   UNL     1      45.962   1.461   8.411  0.00  0.00    +0.000 C 
ATOM     30  H   UNL     1      47.735   0.428   8.383  0.00  0.00    +0.000 HD
ENDBRANCH  23  24
ENDBRANCH  20  23
ENDBRANCH  16  17
ENDBRANCH   3  16
TORSDOF 5
ENDMDL
MODEL 7
REMARK VINA RESULT:    -7.009      2.879      8.243
REMARK INTER + INTRA:          -9.996
REMARK INTER:                  -8.906
REMARK INTRA:                  -1.090
REMARK UNBOUND:                -0.938
REMARK  Name = 
REMARK  5 active torsions:
REMARK  status: ('A' for Active; 'I' for Inactive)
REMARK    1  A    between atoms: C_2  and  C_18
REMARK    2  A    between atoms: N_3  and  C_4
REMARK    3  A    between atoms: C_4  and  C_5
REMARK    4  A    between atoms: C_8  and  C_9
REMARK    5  A    between atoms: C_9  and  C_10
REMARK                            x       y       z     vdW  Elec       q    Type
REMARK                         _______ _______ _______ _____ _____    ______ ____
ROOT
ATOM      1  O   UNL     1      44.388   7.424  11.610  0.00  0.00    +0.000 OA
ATOM      2  C   UNL     1      45.190   6.478  11.589  0.00  0.00    +0.000 C 
ATOM      3  N   UNL     1      46.526   6.654  11.832  0.00  0.00    +0.000 N 
ATOM      4  H   UNL     1      47.169   5.889  11.626  0.00  0.00    +0.000 HD
ENDROOT
BRANCH   2   5
ATOM      5  C   UNL     1      44.717   5.118  11.326  0.00  0.00    +0.000 A 
ATOM      6  C   UNL     1      43.956   4.413  12.260  0.00  0.00    +0.000 A 
ATOM      7  S   UNL     1      43.456   2.879  11.685  0.00  0.00    +0.000 S 
ATOM      8  C   UNL     1      44.219   3.126  10.184  0.00  0.00    +0.000 A 
ATOM      9  N   UNL     1      44.147   2.198   9.193  0.00  0.00    +0.000 NA
ATOM     10  C   UNL     1      44.749   2.534   8.101  0.00  0.00    +0.000 A 
ATOM     11  N   UNL     1      45.433   3.706   7.903  0.00  0.00    +0.000 N 
ATOM     12  C   UNL     1      45.603   4.637   8.904  0.00  0.00    +0.000 A 
ATOM     13  O   UNL     1      46.364   5.581   8.765  0.00  0.00    +0.000 OA
ATOM     14  C   UNL     1      44.883   4.334  10.135  0.00  0.00    +0.000 A 
ATOM     15  H   UNL     1      45.924   3.904   7.057  0.00  0.00    +0.000 HD
ENDBRANCH   2   5
BRANCH   3  16
ATOM     16  C   UNL     1      47.113   7.947  12.120  0.00  0.00    +0.000 C 
BRANCH  16  17
ATOM     17  C   UNL     1      47.902   8.003  13.402  0.00  0.00    +0.000 A 
ATOM     18  C   UNL     1      48.932   7.089  13.613  0.00  0.00    +0.000 A 
ATOM     19  C   UNL     1      49.688   7.131  14.774  0.00  0.00    +0.000 A 
ATOM     20  C   UNL     1      49.243   7.919  15.823  0.00  0.00    +0.000 A 
ATOM     21  N   UNL     1      48.322   8.895  15.628  0.00  0.00    +0.000 NA
ATOM     22  C   UNL     1      47.727   8.957  14.401  0.00  0.00    +0.000 A 
BRANCH  20  23
ATOM     23  C   UNL     1      49.725   7.562  17.221  0.00  0.00    +0.000 C 
BRANCH  23  24
ATOM     24  C   UNL     1      49.837   6.078  17.595  0.00  0.00    +0.000 C 
ATOM     25  C   UNL     1      48.932   5.081  17.740  0.00  0.00    +0.000 C 
ATOM     26  C   UNL     1      49.293   3.633  18.011  0.00  0.00    +0.000 C 
ATOM     27  C   UNL     1      48.067   2.900  17.472  0.00  0.00    +0.000 C 
ATOM     28  N   UNL     1      46.944   3.746  17.895  0.00  0.00    +0.000 NA
ATOM     29  C   UNL     1      47.431   5.118  17.588  0.00  0.00    +0.000 C 
ATOM     30  H   UNL     1      46.832   3.665  18.909  0.00  0.00    +0.000 HD
ENDBRANCH  23  24
ENDBRANCH  20  23
ENDBRANCH  16  17
ENDBRANCH   3  16
TORSDOF 5
ENDMDL
MODEL 8
REMARK VINA RESULT:    -6.874      3.323      7.920
REMARK INTER + INTRA:          -9.820
REMARK INTER:                  -8.353
REMARK INTRA:                  -1.468
REMARK UNBOUND:                -0.938
REMARK  Name = 
REMARK  5 active torsions:
REMARK  status: ('A' for Active; 'I' for Inactive)
REMARK    1  A    between atoms: C_2  and  C_18
REMARK    2  A    between atoms: N_3  and  C_4
REMARK    3  A    between atoms: C_4  and  C_5
REMARK    4  A    between atoms: C_8  and  C_9
REMARK    5  A    between atoms: C_9  and  C_10
REMARK                            x       y       z     vdW  Elec       q    Type
REMARK                         _______ _______ _______ _____ _____    ______ ____
ROOT
ATOM      1  O   UNL     1      48.717   7.650  13.261  0.00  0.00    +0.000 OA
ATOM      2  C   UNL     1      47.545   7.898  13.581  0.00  0.00    +0.000 C 
ATOM      3  N   UNL     1      47.236   8.809  14.556  0.00  0.00    +0.000 N 
ATOM      4  H   UNL     1      46.280   8.846  14.911  0.00  0.00    +0.000 HD
ENDROOT
BRANCH   2   5
ATOM      5  C   UNL     1      46.437   7.231  12.895  0.00  0.00    +0.000 A 
ATOM      6  C   UNL     1      45.559   7.933  12.068  0.00  0.00    +0.000 A 
ATOM      7  S   UNL     1      44.402   6.917  11.316  0.00  0.00    +0.000 S 
ATOM      8  C   UNL     1      45.054   5.528  12.053  0.00  0.00    +0.000 A 
ATOM      9  N   UNL     1      44.548   4.291  11.804  0.00  0.00    +0.000 NA
ATOM     10  C   UNL     1      45.160   3.330  12.411  0.00  0.00    +0.000 A 
ATOM     11  N   UNL     1      46.226   3.483  13.260  0.00  0.00    +0.000 N 
ATOM     12  C   UNL     1      46.718   4.721  13.608  0.00  0.00    +0.000 A 
ATOM     13  O   UNL     1      47.541   4.845  14.500  0.00  0.00    +0.000 OA
ATOM     14  C   UNL     1      46.104   5.834  12.894  0.00  0.00    +0.000 A 
ATOM     15  H   UNL     1      46.639   2.715  13.745  0.00  0.00    +0.000 HD
ENDBRANCH   2   5
BRANCH   3  16
ATOM     16  C   UNL     1      48.241   9.544  15.296  0.00  0.00    +0.000 C 
BRANCH  16  17
ATOM     17  C   UNL     1      48.613   8.932  16.622  0.00  0.00    +0.000 A 
ATOM     18  C   UNL     1      49.757   8.144  16.716  0.00  0.00    +0.000 A 
ATOM     19  C   UNL     1      50.134   7.585  17.927  0.00  0.00    +0.000 A 
ATOM     20  C   UNL     1      49.227   7.607  18.974  0.00  0.00    +0.000 A 
ATOM     21  N   UNL     1      48.161   8.446  18.964  0.00  0.00    +0.000 NA
ATOM     22  C   UNL     1      47.923   9.140  17.813  0.00  0.00    +0.000 A 
BRANCH  20  23
ATOM     23  C   UNL     1      49.395   6.564  20.069  0.00  0.00    +0.000 C 
BRANCH  23  24
ATOM     24  C   UNL     1      49.282   5.083  19.687  0.00  0.00    +0.000 C 
ATOM     25  C   UNL     1      48.442   4.387  18.884  0.00  0.00    +0.000 C 
ATOM     26  C   UNL     1      48.593   2.913  18.562  0.00  0.00    +0.000 C 
ATOM     27  C   UNL     1      47.857   2.808  17.230  0.00  0.00    +0.000 C 
ATOM     28  N   UNL     1      46.686   3.677  17.411  0.00  0.00    +0.000 NA
ATOM     29  C   UNL     1      47.265   4.875  18.074  0.00  0.00    +0.000 C 
ATOM     30  H   UNL     1      46.041   3.228  18.066  0.00  0.00    +0.000 HD
ENDBRANCH  23  24
ENDBRANCH  20  23
ENDBRANCH  16  17
ENDBRANCH   3  16
TORSDOF 5
ENDMDL
MODEL 9
REMARK VINA RESULT:    -6.861      3.735      8.213
REMARK INTER + INTRA:          -9.804
REMARK INTER:                  -8.817
REMARK INTRA:                  -0.987
REMARK UNBOUND:                -0.938
REMARK  Name = 
REMARK  5 active torsions:
REMARK  status: ('A' for Active; 'I' for Inactive)
REMARK    1  A    between atoms: C_2  and  C_18
REMARK    2  A    between atoms: N_3  and  C_4
REMARK    3  A    between atoms: C_4  and  C_5
REMARK    4  A    between atoms: C_8  and  C_9
REMARK    5  A    between atoms: C_9  and  C_10
REMARK                            x       y       z     vdW  Elec       q    Type
REMARK                         _______ _______ _______ _____ _____    ______ ____
ROOT
ATOM      1  O   UNL     1      47.153   3.080  14.086  0.00  0.00    +0.000 OA
ATOM      2  C   UNL     1      46.777   4.155  14.576  0.00  0.00    +0.000 C 
ATOM      3  N   UNL     1      46.751   4.366  15.930  0.00  0.00    +0.000 N 
ATOM      4  H   UNL     1      46.267   5.189  16.290  0.00  0.00    +0.000 HD
ENDROOT
BRANCH   2   5
ATOM      5  C   UNL     1      46.371   5.259  13.705  0.00  0.00    +0.000 A 
ATOM      6  C   UNL     1      47.219   6.337  13.445  0.00  0.00    +0.000 A 
ATOM      7  S   UNL     1      46.548   7.454  12.333  0.00  0.00    +0.000 S 
ATOM      8  C   UNL     1      45.133   6.523  12.159  0.00  0.00    +0.000 A 
ATOM      9  N   UNL     1      44.140   6.897  11.309  0.00  0.00    +0.000 NA
ATOM     10  C   UNL     1      43.142   6.080  11.261  0.00  0.00    +0.000 A 
ATOM     11  N   UNL     1      43.028   4.926  11.992  0.00  0.00    +0.000 N 
ATOM     12  C   UNL     1      43.968   4.550  12.926  0.00  0.00    +0.000 A 
ATOM     13  O   UNL     1      43.762   3.623  13.692  0.00  0.00    +0.000 OA
ATOM     14  C   UNL     1      45.148   5.406  12.968  0.00  0.00    +0.000 A 
ATOM     15  H   UNL     1      42.215   4.347  11.958  0.00  0.00    +0.000 HD
ENDBRANCH   2   5
BRANCH   3  16
ATOM     16  C   UNL     1      47.143   3.359  16.894  0.00  0.00    +0.000 C 
BRANCH  16  17
ATOM     17  C   UNL     1      48.509   3.568  17.495  0.00  0.00    +0.000 A 
ATOM     18  C   UNL     1      48.677   4.516  18.500  0.00  0.00    +0.000 A 
ATOM     19  C   UNL     1      49.917   4.715  19.086  0.00  0.00    +0.000 A 
ATOM     20  C   UNL     1      51.029   4.147  18.484  0.00  0.00    +0.000 A 
ATOM     21  N   UNL     1      50.904   3.142  17.582  0.00  0.00    +0.000 NA
ATOM     22  C   UNL     1      49.642   2.830  17.165  0.00  0.00    +0.000 A 
BRANCH  20  23
ATOM     23  C   UNL     1      52.382   4.781  18.771  0.00  0.00    +0.000 C 
BRANCH  23  24
ATOM     24  C   UNL     1      53.168   5.381  17.598  0.00  0.00    +0.000 C 
ATOM     25  C   UNL     1      52.827   6.171  16.553  0.00  0.00    +0.000 C 
ATOM     26  C   UNL     1      53.817   6.745  15.557  0.00  0.00    +0.000 C 
ATOM     27  C   UNL     1      53.068   7.972  15.045  0.00  0.00    +0.000 C 
ATOM     28  N   UNL     1      51.681   7.504  14.919  0.00  0.00    +0.000 NA
ATOM     29  C   UNL     1      51.479   6.734  16.176  0.00  0.00    +0.000 C 
ATOM     30  H   UNL     1      51.623   6.853  14.131  0.00  0.00    +0.000 HD
ENDBRANCH  23  24
ENDBRANCH  20  23
ENDBRANCH  16  17
ENDBRANCH   3  16
TORSDOF 5
ENDMDL
