MODEL 1
REMARK VINA RESULT:    -8.807      0.000      0.000
REMARK INTER + INTRA:         -13.380
REMARK INTER:                 -12.411
REMARK INTRA:                  -0.969
REMARK UNBOUND:                -0.969
REMARK  Name = 
REMARK  7 active torsions:
REMARK  status: ('A' for Active; 'I' for Inactive)
REMARK    1  A    between atoms: C_2  and  C_20
REMARK    2  A    between atoms: N_3  and  C_4
REMARK    3  A    between atoms: C_4  and  C_5
REMARK    4  A    between atoms: C_8  and  C_9
REMARK    5  A    between atoms: C_9  and  N_10
REMARK    6  A    between atoms: N_10  and  C_11
REMARK    7  A    between atoms: C_11  and  C_12
REMARK                            x       y       z     vdW  Elec       q    Type
REMARK                         _______ _______ _______ _____ _____    ______ ____
ROOT
ATOM      1  C   UNL     1      45.986   4.388  14.608  0.00  0.00    +0.000 C 
ENDROOT
BRANCH   1   2
ATOM      2  C   UNL     1      46.081   4.979  13.193  0.00  0.00    +0.000 C 
ATOM      3  C   UNL     1      46.144   3.870  12.127  0.00  0.00    +0.000 C 
ATOM      4  C   UNL     1      44.824   3.112  12.029  0.00  0.00    +0.000 C 
ATOM      5  C   UNL     1      43.652   4.060  11.724  0.00  0.00    +0.000 C 
ATOM      6  C   UNL     1      43.570   5.176  12.767  0.00  0.00    +0.000 C 
ATOM      7  C   UNL     1      44.893   5.920  12.933  0.00  0.00    +0.000 C 
BRANCH   5   8
ATOM      8  C   UNL     1      43.708   4.645  10.296  0.00  0.00    +0.000 C 
BRANCH   8   9
ATOM      9  N   UNL     1      44.120   3.676   9.284  0.00  0.00    +0.000 NA
ATOM     10  H   UNL     1      43.318   3.405   8.716  0.00  0.00    +0.000 HD
BRANCH   9  11
ATOM     11  C   UNL     1      45.163   4.218   8.415  0.00  0.00    +0.000 C 
BRANCH  11  12
ATOM     12  C   UNL     1      45.987   3.120   7.811  0.00  0.00    +0.000 A 
ATOM     13  C   UNL     1      46.009   1.836   8.357  0.00  0.00    +0.000 A 
ATOM     14  C   UNL     1      46.790   0.872   7.737  0.00  0.00    +0.000 A 
ATOM     15  N   UNL     1      47.536   1.099   6.638  0.00  0.00    +0.000 NA
ATOM     16  C   UNL     1      47.503   2.351   6.134  0.00  0.00    +0.000 A 
ATOM     17  C   UNL     1      46.752   3.380   6.671  0.00  0.00    +0.000 A 
ENDBRANCH  11  12
ENDBRANCH   9  11
ENDBRANCH   8   9
ENDBRANCH   5   8
ENDBRANCH   1   2
BRANCH   1  20
ATOM     18  O   UNL     1      46.583   3.272  17.087  0.00  0.00    +0.000 OA
ATOM     19  C   UNL     1      47.367   4.096  16.599  0.00  0.00    +0.000 C 
ATOM     20  N   UNL     1      47.130   4.714  15.406  0.00  0.00    +0.000 N 
ATOM     21  H   UNL     1      47.911   5.126  14.907  0.00  0.00    +0.000 HD
BRANCH  19  22
ATOM     22  C   UNL     1      48.592   4.472  17.285  0.00  0.00    +0.000 A 
ATOM     23  C   UNL     1      48.726   5.706  17.908  0.00  0.00    +0.000 A 
ATOM     24  S   UNL     1      50.248   5.909  18.653  0.00  0.00    +0.000 S 
ATOM     25  C   UNL     1      50.752   4.355  18.182  0.00  0.00    +0.000 A 
ATOM     26  N   UNL     1      51.977   3.871  18.515  0.00  0.00    +0.000 NA
ATOM     27  C   UNL     1      52.203   2.663  18.110  0.00  0.00    +0.000 A 
ATOM     28  N   UNL     1      51.320   1.892  17.403  0.00  0.00    +0.000 N 
ATOM     29  C   UNL     1      50.101   2.357  16.995  0.00  0.00    +0.000 A 
ATOM     30  O   UNL     1      49.398   1.671  16.264  0.00  0.00    +0.000 OA
ATOM     31  C   UNL     1      49.782   3.694  17.450  0.00  0.00    +0.000 A 
ATOM     32  H   UNL     1      51.567   0.969  17.084  0.00  0.00    +0.000 HD
ENDBRANCH  19  22
ENDBRANCH   1  20
TORSDOF 7
ENDMDL
MODEL 2
REMARK VINA RESULT:    -8.146      1.305      1.876
REMARK INTER + INTRA:         -12.448
REMARK INTER:                 -11.680
REMARK INTRA:                  -0.769
REMARK UNBOUND:                -0.969
REMARK  Name = 
REMARK  7 active torsions:
REMARK  status: ('A' for Active; 'I' for Inactive)
REMARK    1  A    between atoms: C_2  and  C_20
REMARK    2  A    between atoms: N_3  and  C_4
REMARK    3  A    between atoms: C_4  and  C_5
REMARK    4  A    between atoms: C_8  and  C_9
REMARK    5  A    between atoms: C_9  and  N_10
REMARK    6  A    between atoms: N_10  and  C_11
REMARK    7  A    between atoms: C_11  and  C_12
REMARK                            x       y       z     vdW  Elec       q    Type
REMARK                         _______ _______ _______ _____ _____    ______ ____
ROOT
ATOM      1  C   UNL     1      46.147   4.575  14.614  0.00  0.00    +0.000 C 
ENDROOT
BRANCH   1   2
ATOM      2  C   UNL     1      46.255   4.819  13.101  0.00  0.00    +0.000 C 
ATOM      3  C   UNL     1      45.904   3.550  12.304  0.00  0.00    +0.000 C 
ATOM      4  C   UNL     1      44.424   3.201  12.429  0.00  0.00    +0.000 C 
ATOM      5  C   UNL     1      43.532   4.366  11.971  0.00  0.00    +0.000 C 
ATOM      6  C   UNL     1      43.863   5.644  12.745  0.00  0.00    +0.000 C 
ATOM      7  C   UNL     1      45.349   5.992  12.689  0.00  0.00    +0.000 C 
BRANCH   5   8
ATOM      8  C   UNL     1      43.599   4.614  10.448  0.00  0.00    +0.000 C 
BRANCH   8   9
ATOM      9  N   UNL     1      44.197   3.509   9.704  0.00  0.00    +0.000 NA
ATOM     10  H   UNL     1      43.496   2.791   9.525  0.00  0.00    +0.000 HD
BRANCH   9  11
ATOM     11  C   UNL     1      44.757   3.959   8.431  0.00  0.00    +0.000 C 
BRANCH  11  12
ATOM     12  C   UNL     1      45.798   3.002   7.929  0.00  0.00    +0.000 A 
ATOM     13  C   UNL     1      45.824   1.668   8.339  0.00  0.00    +0.000 A 
ATOM     14  C   UNL     1      46.811   0.841   7.825  0.00  0.00    +0.000 A 
ATOM     15  N   UNL     1      47.755   1.249   6.954  0.00  0.00    +0.000 NA
ATOM     16  C   UNL     1      47.712   2.545   6.578  0.00  0.00    +0.000 A 
ATOM     17  C   UNL     1      46.765   3.447   7.025  0.00  0.00    +0.000 A 
ENDBRANCH  11  12
ENDBRANCH   9  11
ENDBRANCH   8   9
ENDBRANCH   5   8
ENDBRANCH   1   2
BRANCH   1  20
ATOM     18  O   UNL     1      46.524   3.266  17.042  0.00  0.00    +0.000 OA
ATOM     19  C   UNL     1      47.517   3.607  16.386  0.00  0.00    +0.000 C 
ATOM     20  N   UNL     1      47.419   4.283  15.206  0.00  0.00    +0.000 N 
ATOM     21  H   UNL     1      48.206   4.266  14.567  0.00  0.00    +0.000 HD
BRANCH  19  22
ATOM     22  C   UNL     1      48.864   3.319  16.852  0.00  0.00    +0.000 A 
ATOM     23  C   UNL     1      49.398   2.039  16.788  0.00  0.00    +0.000 A 
ATOM     24  S   UNL     1      50.995   1.957  17.382  0.00  0.00    +0.000 S 
ATOM     25  C   UNL     1      51.018   3.624  17.718  0.00  0.00    +0.000 A 
ATOM     26  N   UNL     1      52.116   4.231  18.238  0.00  0.00    +0.000 NA
ATOM     27  C   UNL     1      51.991   5.506  18.411  0.00  0.00    +0.000 A 
ATOM     28  N   UNL     1      50.870   6.235  18.112  0.00  0.00    +0.000 N 
ATOM     29  C   UNL     1      49.723   5.659  17.643  0.00  0.00    +0.000 A 
ATOM     30  O   UNL     1      48.711   6.334  17.505  0.00  0.00    +0.000 OA
ATOM     31  C   UNL     1      49.819   4.235  17.399  0.00  0.00    +0.000 A 
ATOM     32  H   UNL     1      50.820   7.222  18.302  0.00  0.00    +0.000 HD
ENDBRANCH  19  22
ENDBRANCH   1  20
TORSDOF 7
ENDMDL
MODEL 3
REMARK VINA RESULT:    -7.787      2.081      2.565
REMARK INTER + INTRA:         -11.943
REMARK INTER:                 -11.063
REMARK INTRA:                  -0.879
REMARK UNBOUND:                -0.969
REMARK  Name = 
REMARK  7 active torsions:
REMARK  status: ('A' for Active; 'I' for Inactive)
REMARK    1  A    between atoms: C_2  and  C_20
REMARK    2  A    between atoms: N_3  and  C_4
REMARK    3  A    between atoms: C_4  and  C_5
REMARK    4  A    between atoms: C_8  and  C_9
REMARK    5  A    between atoms: C_9  and  N_10
REMARK    6  A    between atoms: N_10  and  C_11
REMARK    7  A    between atoms: C_11  and  C_12
REMARK                            x       y       z     vdW  Elec       q    Type
REMARK                         _______ _______ _______ _____ _____    ______ ____
ROOT
ATOM      1  C   UNL     1      47.516   7.490  13.778  0.00  0.00    +0.000 C 
ENDROOT
BRANCH   1   2
ATOM      2  C   UNL     1      47.656   6.263  12.864  0.00  0.00    +0.000 C 
ATOM      3  C   UNL     1      46.746   5.112  13.331  0.00  0.00    +0.000 C 
ATOM      4  C   UNL     1      45.271   5.448  13.131  0.00  0.00    +0.000 C 
ATOM      5  C   UNL     1      44.966   5.789  11.663  0.00  0.00    +0.000 C 
ATOM      6  C   UNL     1      45.861   6.928  11.171  0.00  0.00    +0.000 C 
ATOM      7  C   UNL     1      47.344   6.651  11.408  0.00  0.00    +0.000 C 
BRANCH   5   8
ATOM      8  C   UNL     1      45.070   4.565  10.726  0.00  0.00    +0.000 C 
BRANCH   8   9
ATOM      9  N   UNL     1      45.183   4.921   9.314  0.00  0.00    +0.000 NA
ATOM     10  H   UNL     1      46.159   5.097   9.077  0.00  0.00    +0.000 HD
BRANCH   9  11
ATOM     11  C   UNL     1      44.664   3.862   8.451  0.00  0.00    +0.000 C 
BRANCH  11  12
ATOM     12  C   UNL     1      45.772   2.992   7.935  0.00  0.00    +0.000 A 
ATOM     13  C   UNL     1      45.856   1.640   8.269  0.00  0.00    +0.000 A 
ATOM     14  C   UNL     1      46.905   0.898   7.747  0.00  0.00    +0.000 A 
ATOM     15  N   UNL     1      47.856   1.405   6.937  0.00  0.00    +0.000 NA
ATOM     16  C   UNL     1      47.755   2.717   6.635  0.00  0.00    +0.000 A 
ATOM     17  C   UNL     1      46.745   3.540   7.096  0.00  0.00    +0.000 A 
ENDBRANCH  11  12
ENDBRANCH   9  11
ENDBRANCH   8   9
ENDBRANCH   5   8
ENDBRANCH   1   2
BRANCH   1  20
ATOM     18  O   UNL     1      50.125   7.058  14.650  0.00  0.00    +0.000 OA
ATOM     19  C   UNL     1      49.207   7.035  15.479  0.00  0.00    +0.000 C 
ATOM     20  N   UNL     1      47.899   7.202  15.129  0.00  0.00    +0.000 N 
ATOM     21  H   UNL     1      47.235   7.483  15.842  0.00  0.00    +0.000 HD
BRANCH  19  22
ATOM     22  C   UNL     1      49.469   6.808  16.891  0.00  0.00    +0.000 A 
ATOM     23  C   UNL     1      50.135   7.748  17.667  0.00  0.00    +0.000 A 
ATOM     24  S   UNL     1      50.313   7.258  19.292  0.00  0.00    +0.000 S 
ATOM     25  C   UNL     1      49.492   5.796  19.003  0.00  0.00    +0.000 A 
ATOM     26  N   UNL     1      49.273   4.894  19.994  0.00  0.00    +0.000 NA
ATOM     27  C   UNL     1      48.611   3.846  19.626  0.00  0.00    +0.000 A 
ATOM     28  N   UNL     1      48.144   3.614  18.359  0.00  0.00    +0.000 N 
ATOM     29  C   UNL     1      48.391   4.464  17.318  0.00  0.00    +0.000 A 
ATOM     30  O   UNL     1      48.057   4.155  16.182  0.00  0.00    +0.000 OA
ATOM     31  C   UNL     1      49.102   5.672  17.681  0.00  0.00    +0.000 A 
ATOM     32  H   UNL     1      47.664   2.761  18.124  0.00  0.00    +0.000 HD
ENDBRANCH  19  22
ENDBRANCH   1  20
TORSDOF 7
ENDMDL
MODEL 4
REMARK VINA RESULT:    -7.512      2.576      3.573
REMARK INTER + INTRA:         -11.555
REMARK INTER:                 -10.551
REMARK INTRA:                  -1.004
REMARK UNBOUND:                -0.969
REMARK  Name = 
REMARK  7 active torsions:
REMARK  status: ('A' for Active; 'I' for Inactive)
REMARK    1  A    between atoms: C_2  and  C_20
REMARK    2  A    between atoms: N_3  and  C_4
REMARK    3  A    between atoms: C_4  and  C_5
REMARK    4  A    between atoms: C_8  and  C_9
REMARK    5  A    between atoms: C_9  and  N_10
REMARK    6  A    between atoms: N_10  and  C_11
REMARK    7  A    between atoms: C_11  and  C_12
REMARK                            x       y       z     vdW  Elec       q    Type
REMARK                         _______ _______ _______ _____ _____    ______ ____
ROOT
ATOM      1  C   UNL     1      47.613   7.184  13.981  0.00  0.00    +0.000 C 
ENDROOT
BRANCH   1   2
ATOM      2  C   UNL     1      47.791   6.084  12.923  0.00  0.00    +0.000 C 
ATOM      3  C   UNL     1      47.006   4.814  13.301  0.00  0.00    +0.000 C 
ATOM      4  C   UNL     1      45.500   5.043  13.221  0.00  0.00    +0.000 C 
ATOM      5  C   UNL     1      45.077   5.519  11.822  0.00  0.00    +0.000 C 
ATOM      6  C   UNL     1      45.846   6.779  11.419  0.00  0.00    +0.000 C 
ATOM      7  C   UNL     1      47.359   6.604  11.543  0.00  0.00    +0.000 C 
BRANCH   5   8
ATOM      8  C   UNL     1      45.218   4.422  10.744  0.00  0.00    +0.000 C 
BRANCH   8   9
ATOM      9  N   UNL     1      45.115   4.930   9.379  0.00  0.00    +0.000 NA
ATOM     10  H   UNL     1      46.028   5.252   9.058  0.00  0.00    +0.000 HD
BRANCH   9  11
ATOM     11  C   UNL     1      44.618   3.906   8.461  0.00  0.00    +0.000 C 
BRANCH  11  12
ATOM     12  C   UNL     1      45.738   3.053   7.944  0.00  0.00    +0.000 A 
ATOM     13  C   UNL     1      46.754   3.583   7.147  0.00  0.00    +0.000 A 
ATOM     14  C   UNL     1      47.761   2.733   6.714  0.00  0.00    +0.000 A 
ATOM     15  N   UNL     1      47.817   1.420   7.012  0.00  0.00    +0.000 NA
ATOM     16  C   UNL     1      46.819   0.930   7.779  0.00  0.00    +0.000 A 
ATOM     17  C   UNL     1      45.776   1.695   8.268  0.00  0.00    +0.000 A 
ENDBRANCH  11  12
ENDBRANCH   9  11
ENDBRANCH   8   9
ENDBRANCH   5   8
ENDBRANCH   1   2
BRANCH   1  20
ATOM     18  O   UNL     1      50.180   6.947  15.034  0.00  0.00    +0.000 OA
ATOM     19  C   UNL     1      49.212   6.665  15.751  0.00  0.00    +0.000 C 
ATOM     20  N   UNL     1      47.925   6.720  15.300  0.00  0.00    +0.000 N 
ATOM     21  H   UNL     1      47.174   6.786  15.978  0.00  0.00    +0.000 HD
BRANCH  19  22
ATOM     22  C   UNL     1      49.392   6.232  17.128  0.00  0.00    +0.000 A 
ATOM     23  C   UNL     1      49.999   5.022  17.436  0.00  0.00    +0.000 A 
ATOM     24  S   UNL     1      50.105   4.744  19.116  0.00  0.00    +0.000 S 
ATOM     25  C   UNL     1      49.365   6.234  19.469  0.00  0.00    +0.000 A 
ATOM     26  N   UNL     1      49.159   6.642  20.748  0.00  0.00    +0.000 NA
ATOM     27  C   UNL     1      48.613   7.809  20.856  0.00  0.00    +0.000 A 
ATOM     28  N   UNL     1      48.252   8.610  19.804  0.00  0.00    +0.000 N 
ATOM     29  C   UNL     1      48.386   8.216  18.502  0.00  0.00    +0.000 A 
ATOM     30  O   UNL     1      47.939   8.916  17.602  0.00  0.00    +0.000 OA
ATOM     31  C   UNL     1      49.024   6.929  18.322  0.00  0.00    +0.000 A 
ATOM     32  H   UNL     1      47.797   9.496  19.950  0.00  0.00    +0.000 HD
ENDBRANCH  19  22
ENDBRANCH   1  20
TORSDOF 7
ENDMDL
MODEL 5
REMARK VINA RESULT:    -7.291      1.654      2.616
REMARK INTER + INTRA:         -11.244
REMARK INTER:                 -10.854
REMARK INTRA:                  -0.389
REMARK UNBOUND:                -0.969
REMARK  Name = 
REMARK  7 active torsions:
REMARK  status: ('A' for Active; 'I' for Inactive)
REMARK    1  A    between atoms: C_2  and  C_20
REMARK    2  A    between atoms: N_3  and  C_4
REMARK    3  A    between atoms: C_4  and  C_5
REMARK    4  A    between atoms: C_8  and  C_9
REMARK    5  A    between atoms: C_9  and  N_10
REMARK    6  A    between atoms: N_10  and  C_11
REMARK    7  A    between atoms: C_11  and  C_12
REMARK                            x       y       z     vdW  Elec       q    Type
REMARK                         _______ _______ _______ _____ _____    ______ ____
ROOT
ATOM      1  C   UNL     1      46.205   4.381  14.771  0.00  0.00    +0.000 C 
ENDROOT
BRANCH   1   2
ATOM      2  C   UNL     1      46.449   4.942  13.361  0.00  0.00    +0.000 C 
ATOM      3  C   UNL     1      46.325   3.840  12.293  0.00  0.00    +0.000 C 
ATOM      4  C   UNL     1      44.886   3.351  12.158  0.00  0.00    +0.000 C 
ATOM      5  C   UNL     1      43.928   4.507  11.827  0.00  0.00    +0.000 C 
ATOM      6  C   UNL     1      44.035   5.620  12.872  0.00  0.00    +0.000 C 
ATOM      7  C   UNL     1      45.473   6.094  13.075  0.00  0.00    +0.000 C 
BRANCH   5   8
ATOM      8  C   UNL     1      44.133   5.070  10.403  0.00  0.00    +0.000 C 
BRANCH   8   9
ATOM      9  N   UNL     1      45.228   4.433   9.677  0.00  0.00    +0.000 NA
ATOM     10  H   UNL     1      45.708   3.769  10.284  0.00  0.00    +0.000 HD
BRANCH   9  11
ATOM     11  C   UNL     1      44.749   3.735   8.486  0.00  0.00    +0.000 C 
BRANCH  11  12
ATOM     12  C   UNL     1      45.832   2.889   7.883  0.00  0.00    +0.000 A 
ATOM     13  C   UNL     1      46.744   3.414   6.965  0.00  0.00    +0.000 A 
ATOM     14  C   UNL     1      47.722   2.572   6.457  0.00  0.00    +0.000 A 
ATOM     15  N   UNL     1      47.845   1.272   6.791  0.00  0.00    +0.000 NA
ATOM     16  C   UNL     1      46.946   0.788   7.675  0.00  0.00    +0.000 A 
ATOM     17  C   UNL     1      45.939   1.545   8.246  0.00  0.00    +0.000 A 
ENDBRANCH  11  12
ENDBRANCH   9  11
ENDBRANCH   8   9
ENDBRANCH   5   8
ENDBRANCH   1   2
BRANCH   1  20
ATOM     18  O   UNL     1      46.667   3.158  17.229  0.00  0.00    +0.000 OA
ATOM     19  C   UNL     1      47.439   4.049  16.851  0.00  0.00    +0.000 C 
ATOM     20  N   UNL     1      47.262   4.722  15.677  0.00  0.00    +0.000 N 
ATOM     21  H   UNL     1      48.055   5.201  15.266  0.00  0.00    +0.000 HD
BRANCH  19  22
ATOM     22  C   UNL     1      48.582   4.449  17.654  0.00  0.00    +0.000 A 
ATOM     23  C   UNL     1      49.861   3.981  17.382  0.00  0.00    +0.000 A 
ATOM     24  S   UNL     1      51.035   4.601  18.455  0.00  0.00    +0.000 S 
ATOM     25  C   UNL     1      49.872   5.519  19.290  0.00  0.00    +0.000 A 
ATOM     26  N   UNL     1      50.210   6.315  20.337  0.00  0.00    +0.000 NA
ATOM     27  C   UNL     1      49.222   6.973  20.850  0.00  0.00    +0.000 A 
ATOM     28  N   UNL     1      47.924   6.910  20.415  0.00  0.00    +0.000 N 
ATOM     29  C   UNL     1      47.527   6.080  19.405  0.00  0.00    +0.000 A 
ATOM     30  O   UNL     1      46.339   5.971  19.133  0.00  0.00    +0.000 OA
ATOM     31  C   UNL     1      48.601   5.344  18.772  0.00  0.00    +0.000 A 
ATOM     32  H   UNL     1      47.190   7.420  20.879  0.00  0.00    +0.000 HD
ENDBRANCH  19  22
ENDBRANCH   1  20
TORSDOF 7
ENDMDL
MODEL 6
REMARK VINA RESULT:    -6.945      4.429      4.743
REMARK INTER + INTRA:         -10.756
REMARK INTER:                  -9.683
REMARK INTRA:                  -1.073
REMARK UNBOUND:                -0.969
REMARK  Name = 
REMARK  7 active torsions:
REMARK  status: ('A' for Active; 'I' for Inactive)
REMARK    1  A    between atoms: C_2  and  C_20
REMARK    2  A    between atoms: N_3  and  C_4
REMARK    3  A    between atoms: C_4  and  C_5
REMARK    4  A    between atoms: C_8  and  C_9
REMARK    5  A    between atoms: C_9  and  N_10
REMARK    6  A    between atoms: N_10  and  C_11
REMARK    7  A    between atoms: C_11  and  C_12
REMARK                            x       y       z     vdW  Elec       q    Type
REMARK                         _______ _______ _______ _____ _____    ______ ____
ROOT
ATOM      1  C   UNL     1      45.842   7.236  12.997  0.00  0.00    +0.000 C 
ENDROOT
BRANCH   1   2
ATOM      2  C   UNL     1      45.944   5.748  12.632  0.00  0.00    +0.000 C 
ATOM      3  C   UNL     1      44.913   4.909  13.408  0.00  0.00    +0.000 C 
ATOM      4  C   UNL     1      43.488   5.215  12.956  0.00  0.00    +0.000 C 
ATOM      5  C   UNL     1      43.316   4.982  11.446  0.00  0.00    +0.000 C 
ATOM      6  C   UNL     1      44.334   5.801  10.649  0.00  0.00    +0.000 C 
ATOM      7  C   UNL     1      45.769   5.563  11.115  0.00  0.00    +0.000 C 
BRANCH   5   8
ATOM      8  C   UNL     1      43.386   3.489  11.055  0.00  0.00    +0.000 C 
BRANCH   8   9
ATOM      9  N   UNL     1      43.798   3.268   9.671  0.00  0.00    +0.000 NA
ATOM     10  H   UNL     1      44.257   4.102   9.308  0.00  0.00    +0.000 HD
BRANCH   9  11
ATOM     11  C   UNL     1      44.710   2.131   9.558  0.00  0.00    +0.000 C 
BRANCH  11  12
ATOM     12  C   UNL     1      45.682   2.328   8.432  0.00  0.00    +0.000 A 
ATOM     13  C   UNL     1      45.842   3.568   7.812  0.00  0.00    +0.000 A 
ATOM     14  C   UNL     1      46.767   3.674   6.784  0.00  0.00    +0.000 A 
ATOM     15  N   UNL     1      47.520   2.648   6.340  0.00  0.00    +0.000 NA
ATOM     16  C   UNL     1      47.341   1.458   6.952  0.00  0.00    +0.000 A 
ATOM     17  C   UNL     1      46.453   1.250   7.991  0.00  0.00    +0.000 A 
ENDBRANCH  11  12
ENDBRANCH   9  11
ENDBRANCH   8   9
ENDBRANCH   5   8
ENDBRANCH   1   2
BRANCH   1  20
ATOM     18  O   UNL     1      47.369   9.297  11.914  0.00  0.00    +0.000 OA
ATOM     19  C   UNL     1      47.734   8.778  12.977  0.00  0.00    +0.000 C 
ATOM     20  N   UNL     1      47.062   7.741  13.554  0.00  0.00    +0.000 N 
ATOM     21  H   UNL     1      47.201   7.559  14.542  0.00  0.00    +0.000 HD
BRANCH  19  22
ATOM     22  C   UNL     1      48.927   9.236  13.671  0.00  0.00    +0.000 A 
ATOM     23  C   UNL     1      48.846  10.030  14.807  0.00  0.00    +0.000 A 
ATOM     24  S   UNL     1      50.377  10.429  15.446  0.00  0.00    +0.000 S 
ATOM     25  C   UNL     1      51.178   9.539  14.238  0.00  0.00    +0.000 A 
ATOM     26  N   UNL     1      52.532   9.444  14.203  0.00  0.00    +0.000 NA
ATOM     27  C   UNL     1      52.992   8.709  13.243  0.00  0.00    +0.000 A 
ATOM     28  N   UNL     1      52.225   8.059  12.312  0.00  0.00    +0.000 N 
ATOM     29  C   UNL     1      50.864   8.174  12.273  0.00  0.00    +0.000 A 
ATOM     30  O   UNL     1      50.234   7.671  11.352  0.00  0.00    +0.000 OA
ATOM     31  C   UNL     1      50.293   8.959  13.347  0.00  0.00    +0.000 A 
ATOM     32  H   UNL     1      52.643   7.529  11.565  0.00  0.00    +0.000 HD
ENDBRANCH  19  22
ENDBRANCH   1  20
TORSDOF 7
ENDMDL
MODEL 7
REMARK VINA RESULT:    -6.877      3.951      9.711
REMARK INTER + INTRA:         -10.661
REMARK INTER:                  -9.098
REMARK INTRA:                  -1.562
REMARK UNBOUND:                -0.969
REMARK  Name = 
REMARK  7 active torsions:
REMARK  status: ('A' for Active; 'I' for Inactive)
REMARK    1  A    between atoms: C_2  and  C_20
REMARK    2  A    between atoms: N_3  and  C_4
REMARK    3  A    between atoms: C_4  and  C_5
REMARK    4  A    between atoms: C_8  and  C_9
REMARK    5  A    between atoms: C_9  and  N_10
REMARK    6  A    between atoms: N_10  and  C_11
REMARK    7  A    between atoms: C_11  and  C_12
REMARK                            x       y       z     vdW  Elec       q    Type
REMARK                         _______ _______ _______ _____ _____    ______ ____
ROOT
ATOM      1  C   UNL     1      47.350   3.547  16.430  0.00  0.00    +0.000 C 
ENDROOT
BRANCH   1   2
ATOM      2  C   UNL     1      47.762   4.165  17.775  0.00  0.00    +0.000 C 
ATOM      3  C   UNL     1      48.807   3.292  18.494  0.00  0.00    +0.000 C 
ATOM      4  C   UNL     1      50.143   3.299  17.758  0.00  0.00    +0.000 C 
ATOM      5  C   UNL     1      50.686   4.727  17.591  0.00  0.00    +0.000 C 
ATOM      6  C   UNL     1      49.664   5.619  16.883  0.00  0.00    +0.000 C 
ATOM      7  C   UNL     1      48.295   5.591  17.560  0.00  0.00    +0.000 C 
BRANCH   5   8
ATOM      8  C   UNL     1      51.135   5.361  18.926  0.00  0.00    +0.000 C 
BRANCH   8   9
ATOM      9  N   UNL     1      51.619   6.731  18.787  0.00  0.00    +0.000 NA
ATOM     10  H   UNL     1      51.261   7.141  17.924  0.00  0.00    +0.000 HD
BRANCH   9  11
ATOM     11  C   UNL     1      51.212   7.563  19.917  0.00  0.00    +0.000 C 
BRANCH  11  12
ATOM     12  C   UNL     1      49.806   8.058  19.746  0.00  0.00    +0.000 A 
ATOM     13  C   UNL     1      48.791   7.702  20.635  0.00  0.00    +0.000 A 
ATOM     14  C   UNL     1      47.518   8.206  20.416  0.00  0.00    +0.000 A 
ATOM     15  N   UNL     1      47.197   9.020  19.390  0.00  0.00    +0.000 NA
ATOM     16  C   UNL     1      48.196   9.344  18.540  0.00  0.00    +0.000 A 
ATOM     17  C   UNL     1      49.499   8.901  18.676  0.00  0.00    +0.000 A 
ENDBRANCH  11  12
ENDBRANCH   9  11
ENDBRANCH   8   9
ENDBRANCH   5   8
ENDBRANCH   1   2
BRANCH   1  20
ATOM     18  O   UNL     1      47.145   3.241  13.671  0.00  0.00    +0.000 OA
ATOM     19  C   UNL     1      46.723   4.282  14.189  0.00  0.00    +0.000 C 
ATOM     20  N   UNL     1      46.818   4.525  15.528  0.00  0.00    +0.000 N 
ATOM     21  H   UNL     1      46.204   5.216  15.943  0.00  0.00    +0.000 HD
BRANCH  19  22
ATOM     22  C   UNL     1      46.111   5.330  13.388  0.00  0.00    +0.000 A 
ATOM     23  C   UNL     1      46.782   6.513  13.104  0.00  0.00    +0.000 A 
ATOM     24  S   UNL     1      45.862   7.580  12.140  0.00  0.00    +0.000 S 
ATOM     25  C   UNL     1      44.563   6.484  12.063  0.00  0.00    +0.000 A 
ATOM     26  N   UNL     1      43.433   6.767  11.365  0.00  0.00    +0.000 NA
ATOM     27  C   UNL     1      42.547   5.825  11.377  0.00  0.00    +0.000 A 
ATOM     28  N   UNL     1      42.685   4.623  12.020  0.00  0.00    +0.000 N 
ATOM     29  C   UNL     1      43.777   4.319  12.782  0.00  0.00    +0.000 A 
ATOM     30  O   UNL     1      43.800   3.283  13.434  0.00  0.00    +0.000 OA
ATOM     31  C   UNL     1      44.817   5.327  12.777  0.00  0.00    +0.000 A 
ATOM     32  H   UNL     1      41.944   3.942  12.023  0.00  0.00    +0.000 HD
ENDBRANCH  19  22
ENDBRANCH   1  20
TORSDOF 7
ENDMDL
MODEL 8
REMARK VINA RESULT:    -6.852      3.642      8.802
REMARK INTER + INTRA:         -10.625
REMARK INTER:                  -9.749
REMARK INTRA:                  -0.876
REMARK UNBOUND:                -0.969
REMARK  Name = 
REMARK  7 active torsions:
REMARK  status: ('A' for Active; 'I' for Inactive)
REMARK    1  A    between atoms: C_2  and  C_20
REMARK    2  A    between atoms: N_3  and  C_4
REMARK    3  A    between atoms: C_4  and  C_5
REMARK    4  A    between atoms: C_8  and  C_9
REMARK    5  A    between atoms: C_9  and  N_10
REMARK    6  A    between atoms: N_10  and  C_11
REMARK    7  A    between atoms: C_11  and  C_12
REMARK                            x       y       z     vdW  Elec       q    Type
REMARK                         _______ _______ _______ _____ _____    ______ ____
ROOT
ATOM      1  C   UNL     1      46.913   8.214  12.323  0.00  0.00    +0.000 C 
ENDROOT
BRANCH   1   2
ATOM      2  C   UNL     1      48.418   8.117  12.616  0.00  0.00    +0.000 C 
ATOM      3  C   UNL     1      48.837   9.102  13.722  0.00  0.00    +0.000 C 
ATOM      4  C   UNL     1      48.259   8.701  15.076  0.00  0.00    +0.000 C 
ATOM      5  C   UNL     1      48.677   7.273  15.465  0.00  0.00    +0.000 C 
ATOM      6  C   UNL     1      48.277   6.273  14.379  0.00  0.00    +0.000 C 
ATOM      7  C   UNL     1      48.790   6.674  12.997  0.00  0.00    +0.000 C 
BRANCH   5   8
ATOM      8  C   UNL     1      50.182   7.155  15.793  0.00  0.00    +0.000 C 
BRANCH   8   9
ATOM      9  N   UNL     1      50.449   6.795  17.183  0.00  0.00    +0.000 NA
ATOM     10  H   UNL     1      50.530   7.638  17.750  0.00  0.00    +0.000 HD
BRANCH   9  11
ATOM     11  C   UNL     1      49.392   5.948  17.732  0.00  0.00    +0.000 C 
BRANCH  11  12
ATOM     12  C   UNL     1      49.641   4.502  17.421  0.00  0.00    +0.000 A 
ATOM     13  C   UNL     1      48.633   3.676  16.922  0.00  0.00    +0.000 A 
ATOM     14  C   UNL     1      48.942   2.352  16.651  0.00  0.00    +0.000 A 
ATOM     15  N   UNL     1      50.160   1.808  16.846  0.00  0.00    +0.000 NA
ATOM     16  C   UNL     1      51.116   2.626  17.336  0.00  0.00    +0.000 A 
ATOM     17  C   UNL     1      50.912   3.962  17.630  0.00  0.00    +0.000 A 
ENDBRANCH  11  12
ENDBRANCH   9  11
ENDBRANCH   8   9
ENDBRANCH   5   8
ENDBRANCH   1   2
BRANCH   1  20
ATOM     18  O   UNL     1      44.488   7.682  11.063  0.00  0.00    +0.000 OA
ATOM     19  C   UNL     1      45.121   6.743  11.561  0.00  0.00    +0.000 C 
ATOM     20  N   UNL     1      46.298   6.923  12.227  0.00  0.00    +0.000 N 
ATOM     21  H   UNL     1      46.920   6.131  12.340  0.00  0.00    +0.000 HD
BRANCH  19  22
ATOM     22  C   UNL     1      44.630   5.376  11.483  0.00  0.00    +0.000 A 
ATOM     23  C   UNL     1      43.898   4.806  12.516  0.00  0.00    +0.000 A 
ATOM     24  S   UNL     1      43.426   3.200  12.185  0.00  0.00    +0.000 S 
ATOM     25  C   UNL     1      44.167   3.235  10.655  0.00  0.00    +0.000 A 
ATOM     26  N   UNL     1      44.126   2.166   9.818  0.00  0.00    +0.000 NA
ATOM     27  C   UNL     1      44.709   2.355   8.679  0.00  0.00    +0.000 A 
ATOM     28  N   UNL     1      45.330   3.514   8.296  0.00  0.00    +0.000 N 
ATOM     29  C   UNL     1      45.448   4.594   9.126  0.00  0.00    +0.000 A 
ATOM     30  O   UNL     1      46.115   5.561   8.781  0.00  0.00    +0.000 OA
ATOM     31  C   UNL     1      44.783   4.448  10.404  0.00  0.00    +0.000 A 
ATOM     32  H   UNL     1      45.799   3.590   7.408  0.00  0.00    +0.000 HD
ENDBRANCH  19  22
ENDBRANCH   1  20
TORSDOF 7
ENDMDL
MODEL 9
REMARK VINA RESULT:    -6.823      1.667      2.061
REMARK INTER + INTRA:         -10.583
REMARK INTER:                 -10.146
REMARK INTRA:                  -0.437
REMARK UNBOUND:                -0.969
REMARK  Name = 
REMARK  7 active torsions:
REMARK  status: ('A' for Active; 'I' for Inactive)
REMARK    1  A    between atoms: C_2  and  C_20
REMARK    2  A    between atoms: N_3  and  C_4
REMARK    3  A    between atoms: C_4  and  C_5
REMARK    4  A    between atoms: C_8  and  C_9
REMARK    5  A    between atoms: C_9  and  N_10
REMARK    6  A    between atoms: N_10  and  C_11
REMARK    7  A    between atoms: C_11  and  C_12
REMARK                            x       y       z     vdW  Elec       q    Type
REMARK                         _______ _______ _______ _____ _____    ______ ____
ROOT
ATOM      1  C   UNL     1      47.896   6.846  14.690  0.00  0.00    +0.000 C 
ENDROOT
BRANCH   1   2
ATOM      2  C   UNL     1      48.069   6.074  13.373  0.00  0.00    +0.000 C 
ATOM      3  C   UNL     1      47.102   4.879  13.295  0.00  0.00    +0.000 C 
ATOM      4  C   UNL     1      45.653   5.338  13.165  0.00  0.00    +0.000 C 
ATOM      5  C   UNL     1      45.458   6.245  11.939  0.00  0.00    +0.000 C 
ATOM      6  C   UNL     1      46.412   7.440  11.989  0.00  0.00    +0.000 C 
ATOM      7  C   UNL     1      47.868   7.019  12.176  0.00  0.00    +0.000 C 
BRANCH   5   8
ATOM      8  C   UNL     1      45.598   5.487  10.601  0.00  0.00    +0.000 C 
BRANCH   8   9
ATOM      9  N   UNL     1      44.318   5.143   9.989  0.00  0.00    +0.000 NA
ATOM     10  H   UNL     1      44.248   5.569   9.066  0.00  0.00    +0.000 HD
BRANCH   9  11
ATOM     11  C   UNL     1      44.153   3.696   9.862  0.00  0.00    +0.000 C 
BRANCH  11  12
ATOM     12  C   UNL     1      45.109   3.129   8.855  0.00  0.00    +0.000 A 
ATOM     13  C   UNL     1      45.512   1.794   8.900  0.00  0.00    +0.000 A 
ATOM     14  C   UNL     1      46.392   1.340   7.929  0.00  0.00    +0.000 A 
ATOM     15  N   UNL     1      46.889   2.113   6.943  0.00  0.00    +0.000 NA
ATOM     16  C   UNL     1      46.488   3.402   6.926  0.00  0.00    +0.000 A 
ATOM     17  C   UNL     1      45.609   3.950   7.841  0.00  0.00    +0.000 A 
ENDBRANCH  11  12
ENDBRANCH   9  11
ENDBRANCH   8   9
ENDBRANCH   5   8
ENDBRANCH   1   2
BRANCH   1  20
ATOM     18  O   UNL     1      48.017   5.243  16.963  0.00  0.00    +0.000 OA
ATOM     19  C   UNL     1      49.024   5.879  16.626  0.00  0.00    +0.000 C 
ATOM     20  N   UNL     1      49.036   6.713  15.547  0.00  0.00    +0.000 N 
ATOM     21  H   UNL     1      49.928   6.961  15.132  0.00  0.00    +0.000 HD
BRANCH  19  22
ATOM     22  C   UNL     1      50.263   5.787  17.382  0.00  0.00    +0.000 A 
ATOM     23  C   UNL     1      50.871   6.915  17.918  0.00  0.00    +0.000 A 
ATOM     24  S   UNL     1      52.305   6.550  18.770  0.00  0.00    +0.000 S 
ATOM     25  C   UNL     1      52.135   4.887  18.461  0.00  0.00    +0.000 A 
ATOM     26  N   UNL     1      53.031   3.980  18.930  0.00  0.00    +0.000 NA
ATOM     27  C   UNL     1      52.752   2.751  18.638  0.00  0.00    +0.000 A 
ATOM     28  N   UNL     1      51.659   2.342  17.919  0.00  0.00    +0.000 N 
ATOM     29  C   UNL     1      50.765   3.222  17.378  0.00  0.00    +0.000 A 
ATOM     30  O   UNL     1      49.873   2.814  16.644  0.00  0.00    +0.000 OA
ATOM     31  C   UNL     1      51.011   4.611  17.703  0.00  0.00    +0.000 A 
ATOM     32  H   UNL     1      51.514   1.372  17.692  0.00  0.00    +0.000 HD
ENDBRANCH  19  22
ENDBRANCH   1  20
TORSDOF 7
ENDMDL
