MODEL 1
REMARK VINA RESULT:    -7.916      0.000      0.000
REMARK INTER + INTRA:         -12.738
REMARK INTER:                 -11.618
REMARK INTRA:                  -1.120
REMARK UNBOUND:                -1.120
REMARK  Name = 
REMARK  9 active torsions:
REMARK  status: ('A' for Active; 'I' for Inactive)
REMARK    1  A    between atoms: C_1  and  O_2
REMARK    2  A    between atoms: O_2  and  C_3
REMARK    3  A    between atoms: C_10  and  C_11
REMARK    4  A    between atoms: N_13  and  C_14
REMARK    5  A    between atoms: C_14  and  C_15
REMARK    6  A    between atoms: C_18  and  C_19
REMARK    7  A    between atoms: C_19  and  S_20
REMARK    8  A    between atoms: S_20  and  C_21
REMARK    9  A    between atoms: C_21  and  C_22
REMARK                            x       y       z     vdW  Elec       q    Type
REMARK                         _______ _______ _______ _____ _____    ______ ____
ROOT
ATOM      1  C   UNL     1      47.891   7.718  13.254  0.00  0.00    +0.000 C 
ENDROOT
BRANCH   1   2
ATOM      2  C   UNL     1      46.828   6.814  12.685  0.00  0.00    +0.000 A 
ATOM      3  C   UNL     1      45.808   7.335  11.879  0.00  0.00    +0.000 A 
ATOM      4  C   UNL     1      44.800   6.504  11.381  0.00  0.00    +0.000 A 
ATOM      5  C   UNL     1      44.790   5.133  11.671  0.00  0.00    +0.000 A 
ATOM      6  C   UNL     1      45.806   4.617  12.489  0.00  0.00    +0.000 A 
ATOM      7  C   UNL     1      46.812   5.448  12.992  0.00  0.00    +0.000 A 
BRANCH   5   8
ATOM      8  C   UNL     1      43.677   4.236  11.186  0.00  0.00    +0.000 C 
BRANCH   8   9
ATOM      9  S   UNL     1      44.203   2.860  10.121  0.00  0.00    +0.000 S 
BRANCH   9  10
ATOM     10  C   UNL     1      45.000   3.783   8.766  0.00  0.00    +0.000 C 
BRANCH  10  11
ATOM     11  C   UNL     1      45.949   2.886   8.008  0.00  0.00    +0.000 A 
ATOM     12  C   UNL     1      46.012   1.518   8.293  0.00  0.00    +0.000 A 
ATOM     13  C   UNL     1      46.932   0.735   7.610  0.00  0.00    +0.000 A 
ATOM     14  N   UNL     1      47.781   1.214   6.677  0.00  0.00    +0.000 NA
ATOM     15  C   UNL     1      47.712   2.538   6.421  0.00  0.00    +0.000 A 
ATOM     16  C   UNL     1      46.826   3.403   7.049  0.00  0.00    +0.000 A 
ENDBRANCH  10  11
ENDBRANCH   9  10
ENDBRANCH   8   9
ENDBRANCH   5   8
ENDBRANCH   1   2
BRANCH   1  19
ATOM     17  C   UNL     1      48.876   7.193  15.436  0.00  0.00    +0.000 C 
ATOM     18  O   UNL     1      49.854   6.683  14.888  0.00  0.00    +0.000 OA
ATOM     19  N   UNL     1      47.856   7.726  14.696  0.00  0.00    +0.000 N 
ATOM     20  H   UNL     1      47.038   8.107  15.153  0.00  0.00    +0.000 HD
BRANCH  17  28
ATOM     21  C   UNL     1      48.778   4.780  17.898  0.00  0.00    +0.000 A 
ATOM     22  N   UNL     1      48.732   4.068  19.043  0.00  0.00    +0.000 NA
ATOM     23  C   UNL     1      48.624   4.733  20.196  0.00  0.00    +0.000 A 
ATOM     24  N   UNL     1      48.551   6.051  20.352  0.00  0.00    +0.000 NA
ATOM     25  C   UNL     1      48.607   6.724  19.190  0.00  0.00    +0.000 A 
ATOM     26  S   UNL     1      48.519   8.418  19.204  0.00  0.00    +0.000 S 
ATOM     27  C   UNL     1      48.646   8.486  17.512  0.00  0.00    +0.000 A 
ATOM     28  C   UNL     1      48.765   7.241  16.903  0.00  0.00    +0.000 A 
ATOM     29  C   UNL     1      48.731   6.185  17.912  0.00  0.00    +0.000 A 
BRANCH  21  31
ATOM     30  C   UNL     1      47.673   3.667  16.167  0.00  0.00    +0.000 C 
ATOM     31  O   UNL     1      48.923   4.088  16.713  0.00  0.00    +0.000 OA
ENDBRANCH  21  31
ENDBRANCH  17  28
ENDBRANCH   1  19
TORSDOF 8
ENDMDL
MODEL 2
REMARK VINA RESULT:    -7.781      1.572      2.622
REMARK INTER + INTRA:         -12.540
REMARK INTER:                 -11.392
REMARK INTRA:                  -1.148
REMARK UNBOUND:                -1.120
REMARK  Name = 
REMARK  9 active torsions:
REMARK  status: ('A' for Active; 'I' for Inactive)
REMARK    1  A    between atoms: C_1  and  O_2
REMARK    2  A    between atoms: O_2  and  C_3
REMARK    3  A    between atoms: C_10  and  C_11
REMARK    4  A    between atoms: N_13  and  C_14
REMARK    5  A    between atoms: C_14  and  C_15
REMARK    6  A    between atoms: C_18  and  C_19
REMARK    7  A    between atoms: C_19  and  S_20
REMARK    8  A    between atoms: S_20  and  C_21
REMARK    9  A    between atoms: C_21  and  C_22
REMARK                            x       y       z     vdW  Elec       q    Type
REMARK                         _______ _______ _______ _____ _____    ______ ____
ROOT
ATOM      1  C   UNL     1      48.449   6.798  13.915  0.00  0.00    +0.000 C 
ENDROOT
BRANCH   1   2
ATOM      2  C   UNL     1      47.261   6.274  13.150  0.00  0.00    +0.000 A 
ATOM      3  C   UNL     1      46.428   5.299  13.713  0.00  0.00    +0.000 A 
ATOM      4  C   UNL     1      45.347   4.784  12.991  0.00  0.00    +0.000 A 
ATOM      5  C   UNL     1      45.070   5.235  11.692  0.00  0.00    +0.000 A 
ATOM      6  C   UNL     1      45.914   6.203  11.128  0.00  0.00    +0.000 A 
ATOM      7  C   UNL     1      46.999   6.714  11.847  0.00  0.00    +0.000 A 
BRANCH   5   8
ATOM      8  C   UNL     1      43.940   4.648  10.882  0.00  0.00    +0.000 C 
BRANCH   8   9
ATOM      9  S   UNL     1      44.329   3.088  10.033  0.00  0.00    +0.000 S 
BRANCH   9  10
ATOM     10  C   UNL     1      44.763   3.717   8.378  0.00  0.00    +0.000 C 
BRANCH  10  11
ATOM     11  C   UNL     1      45.853   2.871   7.765  0.00  0.00    +0.000 A 
ATOM     12  C   UNL     1      45.988   1.524   8.117  0.00  0.00    +0.000 A 
ATOM     13  C   UNL     1      47.033   0.792   7.570  0.00  0.00    +0.000 A 
ATOM     14  N   UNL     1      47.939   1.302   6.710  0.00  0.00    +0.000 NA
ATOM     15  C   UNL     1      47.798   2.606   6.388  0.00  0.00    +0.000 A 
ATOM     16  C   UNL     1      46.786   3.420   6.880  0.00  0.00    +0.000 A 
ENDBRANCH  10  11
ENDBRANCH   9  10
ENDBRANCH   8   9
ENDBRANCH   5   8
ENDBRANCH   1   2
BRANCH   1  19
ATOM     17  C   UNL     1      49.160   6.506  16.243  0.00  0.00    +0.000 C 
ATOM     18  O   UNL     1      50.288   6.175  15.873  0.00  0.00    +0.000 OA
ATOM     19  N   UNL     1      48.189   6.828  15.334  0.00  0.00    +0.000 N 
ATOM     20  H   UNL     1      47.255   7.060  15.644  0.00  0.00    +0.000 HD
BRANCH  17  28
ATOM     21  C   UNL     1      47.820   8.948  18.275  0.00  0.00    +0.000 A 
ATOM     22  N   UNL     1      47.309   9.694  19.277  0.00  0.00    +0.000 NA
ATOM     23  C   UNL     1      47.228   9.147  20.492  0.00  0.00    +0.000 A 
ATOM     24  N   UNL     1      47.606   7.921  20.843  0.00  0.00    +0.000 NA
ATOM     25  C   UNL     1      48.102   7.210  19.816  0.00  0.00    +0.000 A 
ATOM     26  S   UNL     1      48.641   5.624  20.087  0.00  0.00    +0.000 S 
ATOM     27  C   UNL     1      49.074   5.441  18.455  0.00  0.00    +0.000 A 
ATOM     28  C   UNL     1      48.815   6.562  17.672  0.00  0.00    +0.000 A 
ATOM     29  C   UNL     1      48.242   7.625  18.494  0.00  0.00    +0.000 A 
BRANCH  21  31
ATOM     30  C   UNL     1      49.073  10.241  16.787  0.00  0.00    +0.000 C 
ATOM     31  O   UNL     1      47.869   9.507  17.014  0.00  0.00    +0.000 OA
ENDBRANCH  21  31
ENDBRANCH  17  28
ENDBRANCH   1  19
TORSDOF 8
ENDMDL
MODEL 3
REMARK VINA RESULT:    -7.418      2.314      2.985
REMARK INTER + INTRA:         -12.006
REMARK INTER:                 -11.090
REMARK INTRA:                  -0.917
REMARK UNBOUND:                -1.120
REMARK  Name = 
REMARK  9 active torsions:
REMARK  status: ('A' for Active; 'I' for Inactive)
REMARK    1  A    between atoms: C_1  and  O_2
REMARK    2  A    between atoms: O_2  and  C_3
REMARK    3  A    between atoms: C_10  and  C_11
REMARK    4  A    between atoms: N_13  and  C_14
REMARK    5  A    between atoms: C_14  and  C_15
REMARK    6  A    between atoms: C_18  and  C_19
REMARK    7  A    between atoms: C_19  and  S_20
REMARK    8  A    between atoms: S_20  and  C_21
REMARK    9  A    between atoms: C_21  and  C_22
REMARK                            x       y       z     vdW  Elec       q    Type
REMARK                         _______ _______ _______ _____ _____    ______ ____
ROOT
ATOM      1  C   UNL     1      48.358   7.276  15.350  0.00  0.00    +0.000 C 
ENDROOT
BRANCH   1   2
ATOM      2  C   UNL     1      47.710   6.772  14.086  0.00  0.00    +0.000 A 
ATOM      3  C   UNL     1      47.847   7.481  12.886  0.00  0.00    +0.000 A 
ATOM      4  C   UNL     1      47.216   7.036  11.721  0.00  0.00    +0.000 A 
ATOM      5  C   UNL     1      46.437   5.870  11.726  0.00  0.00    +0.000 A 
ATOM      6  C   UNL     1      46.291   5.170  12.932  0.00  0.00    +0.000 A 
ATOM      7  C   UNL     1      46.918   5.618  14.100  0.00  0.00    +0.000 A 
BRANCH   5   8
ATOM      8  C   UNL     1      45.705   5.409  10.488  0.00  0.00    +0.000 C 
BRANCH   8   9
ATOM      9  S   UNL     1      44.989   3.742  10.590  0.00  0.00    +0.000 S 
BRANCH   9  10
ATOM     10  C   UNL     1      44.619   3.437   8.831  0.00  0.00    +0.000 C 
BRANCH  10  11
ATOM     11  C   UNL     1      45.767   2.715   8.170  0.00  0.00    +0.000 A 
ATOM     12  C   UNL     1      46.671   3.411   7.361  0.00  0.00    +0.000 A 
ATOM     13  C   UNL     1      47.685   2.704   6.730  0.00  0.00    +0.000 A 
ATOM     14  N   UNL     1      47.858   1.370   6.848  0.00  0.00    +0.000 NA
ATOM     15  C   UNL     1      46.971   0.714   7.627  0.00  0.00    +0.000 A 
ATOM     16  C   UNL     1      45.925   1.331   8.300  0.00  0.00    +0.000 A 
ENDBRANCH  10  11
ENDBRANCH   9  10
ENDBRANCH   8   9
ENDBRANCH   5   8
ENDBRANCH   1   2
BRANCH   1  19
ATOM     17  C   UNL     1      49.544   6.019  17.089  0.00  0.00    +0.000 C 
ATOM     18  O   UNL     1      48.750   6.420  17.942  0.00  0.00    +0.000 OA
ATOM     19  N   UNL     1      49.420   6.399  15.781  0.00  0.00    +0.000 N 
ATOM     20  H   UNL     1      50.099   6.097  15.094  0.00  0.00    +0.000 HD
BRANCH  17  28
ATOM     21  C   UNL     1      49.986   2.602  16.943  0.00  0.00    +0.000 A 
ATOM     22  N   UNL     1      50.430   1.329  16.984  0.00  0.00    +0.000 NA
ATOM     23  C   UNL     1      51.660   1.104  17.452  0.00  0.00    +0.000 A 
ATOM     24  N   UNL     1      52.523   2.013  17.897  0.00  0.00    +0.000 NA
ATOM     25  C   UNL     1      52.046   3.268  17.833  0.00  0.00    +0.000 A 
ATOM     26  S   UNL     1      53.013   4.554  18.369  0.00  0.00    +0.000 S 
ATOM     27  C   UNL     1      51.804   5.684  17.991  0.00  0.00    +0.000 A 
ATOM     28  C   UNL     1      50.654   5.122  17.447  0.00  0.00    +0.000 A 
ATOM     29  C   UNL     1      50.798   3.670  17.363  0.00  0.00    +0.000 A 
BRANCH  21  31
ATOM     30  C   UNL     1      47.722   2.887  17.440  0.00  0.00    +0.000 C 
ATOM     31  O   UNL     1      48.727   2.831  16.427  0.00  0.00    +0.000 OA
ENDBRANCH  21  31
ENDBRANCH  17  28
ENDBRANCH   1  19
TORSDOF 8
ENDMDL
MODEL 4
REMARK VINA RESULT:    -7.380      1.719      2.271
REMARK INTER + INTRA:         -11.952
REMARK INTER:                 -10.813
REMARK INTRA:                  -1.138
REMARK UNBOUND:                -1.120
REMARK  Name = 
REMARK  9 active torsions:
REMARK  status: ('A' for Active; 'I' for Inactive)
REMARK    1  A    between atoms: C_1  and  O_2
REMARK    2  A    between atoms: O_2  and  C_3
REMARK    3  A    between atoms: C_10  and  C_11
REMARK    4  A    between atoms: N_13  and  C_14
REMARK    5  A    between atoms: C_14  and  C_15
REMARK    6  A    between atoms: C_18  and  C_19
REMARK    7  A    between atoms: C_19  and  S_20
REMARK    8  A    between atoms: S_20  and  C_21
REMARK    9  A    between atoms: C_21  and  C_22
REMARK                            x       y       z     vdW  Elec       q    Type
REMARK                         _______ _______ _______ _____ _____    ______ ____
ROOT
ATOM      1  C   UNL     1      47.733   7.939  13.409  0.00  0.00    +0.000 C 
ENDROOT
BRANCH   1   2
ATOM      2  C   UNL     1      46.664   7.038  12.846  0.00  0.00    +0.000 A 
ATOM      3  C   UNL     1      46.426   5.779  13.410  0.00  0.00    +0.000 A 
ATOM      4  C   UNL     1      45.461   4.926  12.866  0.00  0.00    +0.000 A 
ATOM      5  C   UNL     1      44.707   5.313  11.749  0.00  0.00    +0.000 A 
ATOM      6  C   UNL     1      44.957   6.570  11.179  0.00  0.00    +0.000 A 
ATOM      7  C   UNL     1      45.926   7.421  11.719  0.00  0.00    +0.000 A 
BRANCH   5   8
ATOM      8  C   UNL     1      43.702   4.380  11.119  0.00  0.00    +0.000 C 
BRANCH   8   9
ATOM      9  S   UNL     1      44.415   2.959  10.238  0.00  0.00    +0.000 S 
BRANCH   9  10
ATOM     10  C   UNL     1      44.883   3.751   8.664  0.00  0.00    +0.000 C 
BRANCH  10  11
ATOM     11  C   UNL     1      45.897   2.906   7.933  0.00  0.00    +0.000 A 
ATOM     12  C   UNL     1      46.611   3.432   6.850  0.00  0.00    +0.000 A 
ATOM     13  C   UNL     1      47.497   2.609   6.171  0.00  0.00    +0.000 A 
ATOM     14  N   UNL     1      47.719   1.316   6.490  0.00  0.00    +0.000 NA
ATOM     15  C   UNL     1      47.016   0.823   7.532  0.00  0.00    +0.000 A 
ATOM     16  C   UNL     1      46.108   1.566   8.275  0.00  0.00    +0.000 A 
ENDBRANCH  10  11
ENDBRANCH   9  10
ENDBRANCH   8   9
ENDBRANCH   5   8
ENDBRANCH   1   2
BRANCH   1  19
ATOM     17  C   UNL     1      49.474   7.782  15.127  0.00  0.00    +0.000 C 
ATOM     18  O   UNL     1      49.351   8.980  15.383  0.00  0.00    +0.000 OA
ATOM     19  N   UNL     1      48.711   7.189  14.158  0.00  0.00    +0.000 N 
ATOM     20  H   UNL     1      48.847   6.214  13.926  0.00  0.00    +0.000 HD
BRANCH  17  28
ATOM     21  C   UNL     1      49.213   4.911  17.019  0.00  0.00    +0.000 A 
ATOM     22  N   UNL     1      49.404   3.810  17.774  0.00  0.00    +0.000 NA
ATOM     23  C   UNL     1      50.647   3.522  18.168  0.00  0.00    +0.000 A 
ATOM     24  N   UNL     1      51.750   4.215  17.898  0.00  0.00    +0.000 NA
ATOM     25  C   UNL     1      51.518   5.299  17.138  0.00  0.00    +0.000 A 
ATOM     26  S   UNL     1      52.814   6.303  16.704  0.00  0.00    +0.000 S 
ATOM     27  C   UNL     1      51.784   7.338  15.836  0.00  0.00    +0.000 A 
ATOM     28  C   UNL     1      50.449   6.947  15.847  0.00  0.00    +0.000 A 
ATOM     29  C   UNL     1      50.291   5.729  16.638  0.00  0.00    +0.000 A 
BRANCH  21  31
ATOM     30  C   UNL     1      47.067   4.050  16.686  0.00  0.00    +0.000 C 
ATOM     31  O   UNL     1      47.931   5.183  16.587  0.00  0.00    +0.000 OA
ENDBRANCH  21  31
ENDBRANCH  17  28
ENDBRANCH   1  19
TORSDOF 8
ENDMDL
MODEL 5
REMARK VINA RESULT:    -7.167      1.520      2.256
REMARK INTER + INTRA:         -11.638
REMARK INTER:                 -10.560
REMARK INTRA:                  -1.078
REMARK UNBOUND:                -1.120
REMARK  Name = 
REMARK  9 active torsions:
REMARK  status: ('A' for Active; 'I' for Inactive)
REMARK    1  A    between atoms: C_1  and  O_2
REMARK    2  A    between atoms: O_2  and  C_3
REMARK    3  A    between atoms: C_10  and  C_11
REMARK    4  A    between atoms: N_13  and  C_14
REMARK    5  A    between atoms: C_14  and  C_15
REMARK    6  A    between atoms: C_18  and  C_19
REMARK    7  A    between atoms: C_19  and  S_20
REMARK    8  A    between atoms: S_20  and  C_21
REMARK    9  A    between atoms: C_21  and  C_22
REMARK                            x       y       z     vdW  Elec       q    Type
REMARK                         _______ _______ _______ _____ _____    ______ ____
ROOT
ATOM      1  C   UNL     1      47.782   4.292  15.531  0.00  0.00    +0.000 C 
ENDROOT
BRANCH   1   2
ATOM      2  C   UNL     1      46.905   4.417  14.312  0.00  0.00    +0.000 A 
ATOM      3  C   UNL     1      46.425   5.668  13.906  0.00  0.00    +0.000 A 
ATOM      4  C   UNL     1      45.580   5.781  12.798  0.00  0.00    +0.000 A 
ATOM      5  C   UNL     1      45.200   4.647  12.066  0.00  0.00    +0.000 A 
ATOM      6  C   UNL     1      45.672   3.394  12.482  0.00  0.00    +0.000 A 
ATOM      7  C   UNL     1      46.513   3.280  13.595  0.00  0.00    +0.000 A 
BRANCH   5   8
ATOM      8  C   UNL     1      44.244   4.749  10.901  0.00  0.00    +0.000 C 
BRANCH   8   9
ATOM      9  S   UNL     1      44.238   3.319   9.780  0.00  0.00    +0.000 S 
BRANCH   9  10
ATOM     10  C   UNL     1      45.095   4.032   8.337  0.00  0.00    +0.000 C 
BRANCH  10  11
ATOM     11  C   UNL     1      46.053   3.027   7.747  0.00  0.00    +0.000 A 
ATOM     12  C   UNL     1      46.037   1.694   8.174  0.00  0.00    +0.000 A 
ATOM     13  C   UNL     1      46.967   0.811   7.645  0.00  0.00    +0.000 A 
ATOM     14  N   UNL     1      47.898   1.158   6.732  0.00  0.00    +0.000 NA
ATOM     15  C   UNL     1      47.905   2.449   6.337  0.00  0.00    +0.000 A 
ATOM     16  C   UNL     1      47.016   3.407   6.807  0.00  0.00    +0.000 A 
ENDBRANCH  10  11
ENDBRANCH   9  10
ENDBRANCH   8   9
ENDBRANCH   5   8
ENDBRANCH   1   2
BRANCH   1  19
ATOM     17  C   UNL     1      48.723   6.398  16.362  0.00  0.00    +0.000 C 
ATOM     18  O   UNL     1      49.730   6.239  15.670  0.00  0.00    +0.000 OA
ATOM     19  N   UNL     1      47.712   5.477  16.352  0.00  0.00    +0.000 N 
ATOM     20  H   UNL     1      46.906   5.595  16.952  0.00  0.00    +0.000 HD
BRANCH  17  28
ATOM     21  C   UNL     1      47.754   6.843  19.641  0.00  0.00    +0.000 A 
ATOM     22  N   UNL     1      47.436   7.301  20.869  0.00  0.00    +0.000 NA
ATOM     23  C   UNL     1      47.499   8.616  21.089  0.00  0.00    +0.000 A 
ATOM     24  N   UNL     1      47.847   9.555  20.214  0.00  0.00    +0.000 NA
ATOM     25  C   UNL     1      48.164   9.059  19.007  0.00  0.00    +0.000 A 
ATOM     26  S   UNL     1      48.624  10.119  17.765  0.00  0.00    +0.000 S 
ATOM     27  C   UNL     1      48.835   8.832  16.678  0.00  0.00    +0.000 A 
ATOM     28  C   UNL     1      48.574   7.580  17.226  0.00  0.00    +0.000 A 
ATOM     29  C   UNL     1      48.161   7.720  18.620  0.00  0.00    +0.000 A 
BRANCH  21  31
ATOM     30  C   UNL     1      48.706   4.782  20.191  0.00  0.00    +0.000 C 
ATOM     31  O   UNL     1      47.719   5.480  19.430  0.00  0.00    +0.000 OA
ENDBRANCH  21  31
ENDBRANCH  17  28
ENDBRANCH   1  19
TORSDOF 8
ENDMDL
MODEL 6
REMARK VINA RESULT:    -6.981      1.644      3.042
REMARK INTER + INTRA:         -11.366
REMARK INTER:                 -10.221
REMARK INTRA:                  -1.145
REMARK UNBOUND:                -1.120
REMARK  Name = 
REMARK  9 active torsions:
REMARK  status: ('A' for Active; 'I' for Inactive)
REMARK    1  A    between atoms: C_1  and  O_2
REMARK    2  A    between atoms: O_2  and  C_3
REMARK    3  A    between atoms: C_10  and  C_11
REMARK    4  A    between atoms: N_13  and  C_14
REMARK    5  A    between atoms: C_14  and  C_15
REMARK    6  A    between atoms: C_18  and  C_19
REMARK    7  A    between atoms: C_19  and  S_20
REMARK    8  A    between atoms: S_20  and  C_21
REMARK    9  A    between atoms: C_21  and  C_22
REMARK                            x       y       z     vdW  Elec       q    Type
REMARK                         _______ _______ _______ _____ _____    ______ ____
ROOT
ATOM      1  C   UNL     1      47.750   4.081  15.632  0.00  0.00    +0.000 C 
ENDROOT
BRANCH   1   2
ATOM      2  C   UNL     1      46.925   4.331  14.396  0.00  0.00    +0.000 A 
ATOM      3  C   UNL     1      46.465   3.261  13.620  0.00  0.00    +0.000 A 
ATOM      4  C   UNL     1      45.732   3.492  12.453  0.00  0.00    +0.000 A 
ATOM      5  C   UNL     1      45.436   4.798  12.036  0.00  0.00    +0.000 A 
ATOM      6  C   UNL     1      45.909   5.868  12.809  0.00  0.00    +0.000 A 
ATOM      7  C   UNL     1      46.647   5.637  13.975  0.00  0.00    +0.000 A 
BRANCH   5   8
ATOM      8  C   UNL     1      44.693   5.061  10.749  0.00  0.00    +0.000 C 
BRANCH   8   9
ATOM      9  S   UNL     1      44.435   3.604   9.694  0.00  0.00    +0.000 S 
BRANCH   9  10
ATOM     10  C   UNL     1      45.179   4.191   8.137  0.00  0.00    +0.000 C 
BRANCH  10  11
ATOM     11  C   UNL     1      46.038   3.111   7.526  0.00  0.00    +0.000 A 
ATOM     12  C   UNL     1      46.153   1.861   8.144  0.00  0.00    +0.000 A 
ATOM     13  C   UNL     1      46.992   0.911   7.579  0.00  0.00    +0.000 A 
ATOM     14  N   UNL     1      47.713   1.116   6.457  0.00  0.00    +0.000 NA
ATOM     15  C   UNL     1      47.595   2.331   5.878  0.00  0.00    +0.000 A 
ATOM     16  C   UNL     1      46.783   3.346   6.366  0.00  0.00    +0.000 A 
ENDBRANCH  10  11
ENDBRANCH   9  10
ENDBRANCH   8   9
ENDBRANCH   5   8
ENDBRANCH   1   2
BRANCH   1  19
ATOM     17  C   UNL     1      48.226   5.111  17.806  0.00  0.00    +0.000 C 
ATOM     18  O   UNL     1      49.005   4.198  18.085  0.00  0.00    +0.000 OA
ATOM     19  N   UNL     1      47.561   5.126  16.610  0.00  0.00    +0.000 N 
ATOM     20  H   UNL     1      46.894   5.858  16.405  0.00  0.00    +0.000 HD
BRANCH  17  28
ATOM     21  C   UNL     1      48.228   8.546  17.504  0.00  0.00    +0.000 A 
ATOM     22  N   UNL     1      48.146   9.882  17.669  0.00  0.00    +0.000 NA
ATOM     23  C   UNL     1      47.847  10.351  18.883  0.00  0.00    +0.000 A 
ATOM     24  N   UNL     1      47.616   9.636  19.980  0.00  0.00    +0.000 NA
ATOM     25  C   UNL     1      47.700   8.312  19.772  0.00  0.00    +0.000 A 
ATOM     26  S   UNL     1      47.442   7.248  21.068  0.00  0.00    +0.000 S 
ATOM     27  C   UNL     1      47.702   5.896  20.074  0.00  0.00    +0.000 A 
ATOM     28  C   UNL     1      47.980   6.214  18.748  0.00  0.00    +0.000 A 
ATOM     29  C   UNL     1      47.988   7.665  18.572  0.00  0.00    +0.000 A 
BRANCH  21  31
ATOM     30  C   UNL     1      49.882   8.207  15.890  0.00  0.00    +0.000 C 
ATOM     31  O   UNL     1      48.504   8.067  16.239  0.00  0.00    +0.000 OA
ENDBRANCH  21  31
ENDBRANCH  17  28
ENDBRANCH   1  19
TORSDOF 8
ENDMDL
MODEL 7
REMARK VINA RESULT:    -6.798      3.771      5.658
REMARK INTER + INTRA:         -11.097
REMARK INTER:                  -9.526
REMARK INTRA:                  -1.571
REMARK UNBOUND:                -1.120
REMARK  Name = 
REMARK  9 active torsions:
REMARK  status: ('A' for Active; 'I' for Inactive)
REMARK    1  A    between atoms: C_1  and  O_2
REMARK    2  A    between atoms: O_2  and  C_3
REMARK    3  A    between atoms: C_10  and  C_11
REMARK    4  A    between atoms: N_13  and  C_14
REMARK    5  A    between atoms: C_14  and  C_15
REMARK    6  A    between atoms: C_18  and  C_19
REMARK    7  A    between atoms: C_19  and  S_20
REMARK    8  A    between atoms: S_20  and  C_21
REMARK    9  A    between atoms: C_21  and  C_22
REMARK                            x       y       z     vdW  Elec       q    Type
REMARK                         _______ _______ _______ _____ _____    ______ ____
ROOT
ATOM      1  C   UNL     1      47.898   3.173  17.490  0.00  0.00    +0.000 C 
ENDROOT
BRANCH   1   2
ATOM      2  C   UNL     1      47.738   4.076  16.294  0.00  0.00    +0.000 A 
ATOM      3  C   UNL     1      47.129   3.606  15.124  0.00  0.00    +0.000 A 
ATOM      4  C   UNL     1      47.014   4.431  14.001  0.00  0.00    +0.000 A 
ATOM      5  C   UNL     1      47.499   5.747  14.023  0.00  0.00    +0.000 A 
ATOM      6  C   UNL     1      48.119   6.210  15.193  0.00  0.00    +0.000 A 
ATOM      7  C   UNL     1      48.239   5.383  16.314  0.00  0.00    +0.000 A 
BRANCH   5   8
ATOM      8  C   UNL     1      47.430   6.629  12.800  0.00  0.00    +0.000 C 
BRANCH   8   9
ATOM      9  S   UNL     1      45.985   7.728  12.721  0.00  0.00    +0.000 S 
BRANCH   9  10
ATOM     10  C   UNL     1      45.077   6.976  11.331  0.00  0.00    +0.000 C 
BRANCH  10  11
ATOM     11  C   UNL     1      44.566   5.609  11.716  0.00  0.00    +0.000 A 
ATOM     12  C   UNL     1      43.751   5.448  12.841  0.00  0.00    +0.000 A 
ATOM     13  C   UNL     1      43.342   4.169  13.192  0.00  0.00    +0.000 A 
ATOM     14  N   UNL     1      43.684   3.056  12.510  0.00  0.00    +0.000 NA
ATOM     15  C   UNL     1      44.478   3.230  11.432  0.00  0.00    +0.000 A 
ATOM     16  C   UNL     1      44.938   4.467  10.999  0.00  0.00    +0.000 A 
ENDBRANCH  10  11
ENDBRANCH   9  10
ENDBRANCH   8   9
ENDBRANCH   5   8
ENDBRANCH   1   2
BRANCH   1  19
ATOM     17  C   UNL     1      50.125   2.231  17.085  0.00  0.00    +0.000 C 
ATOM     18  O   UNL     1      49.711   1.646  16.082  0.00  0.00    +0.000 OA
ATOM     19  N   UNL     1      49.288   3.006  17.840  0.00  0.00    +0.000 N 
ATOM     20  H   UNL     1      49.625   3.451  18.684  0.00  0.00    +0.000 HD
BRANCH  17  28
ATOM     21  C   UNL     1      52.565   4.525  17.904  0.00  0.00    +0.000 A 
ATOM     22  N   UNL     1      53.681   5.182  18.281  0.00  0.00    +0.000 NA
ATOM     23  C   UNL     1      54.764   4.463  18.588  0.00  0.00    +0.000 A 
ATOM     24  N   UNL     1      54.875   3.139  18.563  0.00  0.00    +0.000 NA
ATOM     25  C   UNL     1      53.741   2.522  18.190  0.00  0.00    +0.000 A 
ATOM     26  S   UNL     1      53.707   0.828  18.095  0.00  0.00    +0.000 S 
ATOM     27  C   UNL     1      52.082   0.840  17.603  0.00  0.00    +0.000 A 
ATOM     28  C   UNL     1      51.529   2.113  17.509  0.00  0.00    +0.000 A 
ATOM     29  C   UNL     1      52.530   3.121  17.851  0.00  0.00    +0.000 A 
BRANCH  21  31
ATOM     30  C   UNL     1      51.665   6.231  16.586  0.00  0.00    +0.000 C 
ATOM     31  O   UNL     1      51.440   5.272  17.621  0.00  0.00    +0.000 OA
ENDBRANCH  21  31
ENDBRANCH  17  28
ENDBRANCH   1  19
TORSDOF 8
ENDMDL
MODEL 8
REMARK VINA RESULT:    -6.768      2.858      8.167
REMARK INTER + INTRA:         -11.054
REMARK INTER:                  -9.315
REMARK INTRA:                  -1.738
REMARK UNBOUND:                -1.120
REMARK  Name = 
REMARK  9 active torsions:
REMARK  status: ('A' for Active; 'I' for Inactive)
REMARK    1  A    between atoms: C_1  and  O_2
REMARK    2  A    between atoms: O_2  and  C_3
REMARK    3  A    between atoms: C_10  and  C_11
REMARK    4  A    between atoms: N_13  and  C_14
REMARK    5  A    between atoms: C_14  and  C_15
REMARK    6  A    between atoms: C_18  and  C_19
REMARK    7  A    between atoms: C_19  and  S_20
REMARK    8  A    between atoms: S_20  and  C_21
REMARK    9  A    between atoms: C_21  and  C_22
REMARK                            x       y       z     vdW  Elec       q    Type
REMARK                         _______ _______ _______ _____ _____    ______ ____
ROOT
ATOM      1  C   UNL     1      48.354   8.078  12.084  0.00  0.00    +0.000 C 
ENDROOT
BRANCH   1   2
ATOM      2  C   UNL     1      48.506   7.929  13.576  0.00  0.00    +0.000 A 
ATOM      3  C   UNL     1      48.170   8.983  14.434  0.00  0.00    +0.000 A 
ATOM      4  C   UNL     1      48.346   8.860  15.816  0.00  0.00    +0.000 A 
ATOM      5  C   UNL     1      48.856   7.679  16.373  0.00  0.00    +0.000 A 
ATOM      6  C   UNL     1      49.203   6.630  15.510  0.00  0.00    +0.000 A 
ATOM      7  C   UNL     1      49.033   6.755  14.127  0.00  0.00    +0.000 A 
BRANCH   5   8
ATOM      8  C   UNL     1      49.103   7.554  17.857  0.00  0.00    +0.000 C 
BRANCH   8   9
ATOM      9  S   UNL     1      47.736   6.826  18.808  0.00  0.00    +0.000 S 
BRANCH   9  10
ATOM     10  C   UNL     1      48.581   5.392  19.550  0.00  0.00    +0.000 C 
BRANCH  10  11
ATOM     11  C   UNL     1      48.921   4.375  18.487  0.00  0.00    +0.000 A 
ATOM     12  C   UNL     1      47.913   3.810  17.698  0.00  0.00    +0.000 A 
ATOM     13  C   UNL     1      48.258   2.842  16.766  0.00  0.00    +0.000 A 
ATOM     14  N   UNL     1      49.519   2.405  16.567  0.00  0.00    +0.000 NA
ATOM     15  C   UNL     1      50.478   2.956  17.342  0.00  0.00    +0.000 A 
ATOM     16  C   UNL     1      50.233   3.930  18.301  0.00  0.00    +0.000 A 
ENDBRANCH  10  11
ENDBRANCH   9  10
ENDBRANCH   8   9
ENDBRANCH   5   8
ENDBRANCH   1   2
BRANCH   1  19
ATOM     17  C   UNL     1      46.291   6.949  11.391  0.00  0.00    +0.000 C 
ATOM     18  O   UNL     1      45.620   7.909  11.773  0.00  0.00    +0.000 OA
ATOM     19  N   UNL     1      47.654   6.953  11.513  0.00  0.00    +0.000 N 
ATOM     20  H   UNL     1      48.195   6.146  11.233  0.00  0.00    +0.000 HD
BRANCH  17  28
ATOM     21  C   UNL     1      44.506   4.301  12.691  0.00  0.00    +0.000 A 
ATOM     22  N   UNL     1      43.782   3.186  12.916  0.00  0.00    +0.000 NA
ATOM     23  C   UNL     1      43.459   2.420  11.871  0.00  0.00    +0.000 A 
ATOM     24  N   UNL     1      43.780   2.632  10.598  0.00  0.00    +0.000 NA
ATOM     25  C   UNL     1      44.494   3.755  10.415  0.00  0.00    +0.000 A 
ATOM     26  S   UNL     1      44.996   4.176   8.850  0.00  0.00    +0.000 S 
ATOM     27  C   UNL     1      45.764   5.578   9.421  0.00  0.00    +0.000 A 
ATOM     28  C   UNL     1      45.653   5.764  10.796  0.00  0.00    +0.000 A 
ATOM     29  C   UNL     1      44.899   4.663  11.390  0.00  0.00    +0.000 A 
BRANCH  21  31
ATOM     30  C   UNL     1      46.090   4.816  14.329  0.00  0.00    +0.000 C 
ATOM     31  O   UNL     1      44.807   5.105  13.771  0.00  0.00    +0.000 OA
ENDBRANCH  21  31
ENDBRANCH  17  28
ENDBRANCH   1  19
TORSDOF 8
ENDMDL
MODEL 9
REMARK VINA RESULT:    -6.513      3.376      8.354
REMARK INTER + INTRA:         -10.679
REMARK INTER:                  -8.658
REMARK INTRA:                  -2.021
REMARK UNBOUND:                -1.120
REMARK  Name = 
REMARK  9 active torsions:
REMARK  status: ('A' for Active; 'I' for Inactive)
REMARK    1  A    between atoms: C_1  and  O_2
REMARK    2  A    between atoms: O_2  and  C_3
REMARK    3  A    between atoms: C_10  and  C_11
REMARK    4  A    between atoms: N_13  and  C_14
REMARK    5  A    between atoms: C_14  and  C_15
REMARK    6  A    between atoms: C_18  and  C_19
REMARK    7  A    between atoms: C_19  and  S_20
REMARK    8  A    between atoms: S_20  and  C_21
REMARK    9  A    between atoms: C_21  and  C_22
REMARK                            x       y       z     vdW  Elec       q    Type
REMARK                         _______ _______ _______ _____ _____    ______ ____
ROOT
ATOM      1  C   UNL     1      48.403   8.409  14.431  0.00  0.00    +0.000 C 
ENDROOT
BRANCH   1   2
ATOM      2  C   UNL     1      48.894   8.068  15.814  0.00  0.00    +0.000 A 
ATOM      3  C   UNL     1      49.935   7.148  15.992  0.00  0.00    +0.000 A 
ATOM      4  C   UNL     1      50.366   6.801  17.276  0.00  0.00    +0.000 A 
ATOM      5  C   UNL     1      49.772   7.370  18.412  0.00  0.00    +0.000 A 
ATOM      6  C   UNL     1      48.722   8.281  18.230  0.00  0.00    +0.000 A 
ATOM      7  C   UNL     1      48.286   8.624  16.946  0.00  0.00    +0.000 A 
BRANCH   5   8
ATOM      8  C   UNL     1      50.192   6.962  19.804  0.00  0.00    +0.000 C 
BRANCH   8   9
ATOM      9  S   UNL     1      50.469   5.181  20.035  0.00  0.00    +0.000 S 
BRANCH   9  10
ATOM     10  C   UNL     1      48.754   4.569  19.950  0.00  0.00    +0.000 C 
BRANCH  10  11
ATOM     11  C   UNL     1      48.447   4.061  18.562  0.00  0.00    +0.000 A 
ATOM     12  C   UNL     1      47.386   4.601  17.828  0.00  0.00    +0.000 A 
ATOM     13  C   UNL     1      47.102   4.074  16.576  0.00  0.00    +0.000 A 
ATOM     14  N   UNL     1      47.793   3.061  16.013  0.00  0.00    +0.000 NA
ATOM     15  C   UNL     1      48.809   2.546  16.740  0.00  0.00    +0.000 A 
ATOM     16  C   UNL     1      49.170   3.005  17.999  0.00  0.00    +0.000 A 
ENDBRANCH  10  11
ENDBRANCH   9  10
ENDBRANCH   8   9
ENDBRANCH   5   8
ENDBRANCH   1   2
BRANCH   1  19
ATOM     17  C   UNL     1      47.650   6.409  13.230  0.00  0.00    +0.000 C 
ATOM     18  O   UNL     1      48.804   6.171  12.872  0.00  0.00    +0.000 OA
ATOM     19  N   UNL     1      47.366   7.502  14.003  0.00  0.00    +0.000 N 
ATOM     20  H   UNL     1      46.411   7.712  14.260  0.00  0.00    +0.000 HD
BRANCH  17  28
ATOM     21  C   UNL     1      44.506   6.987  11.937  0.00  0.00    +0.000 A 
ATOM     22  N   UNL     1      43.260   6.920  11.426  0.00  0.00    +0.000 NA
ATOM     23  C   UNL     1      42.704   5.715  11.275  0.00  0.00    +0.000 A 
ATOM     24  N   UNL     1      43.249   4.541  11.580  0.00  0.00    +0.000 NA
ATOM     25  C   UNL     1      44.493   4.651  12.078  0.00  0.00    +0.000 A 
ATOM     26  S   UNL     1      45.336   3.250  12.529  0.00  0.00    +0.000 S 
ATOM     27  C   UNL     1      46.686   4.160  13.011  0.00  0.00    +0.000 A 
ATOM     28  C   UNL     1      46.536   5.532  12.836  0.00  0.00    +0.000 A 
ATOM     29  C   UNL     1      45.214   5.824  12.286  0.00  0.00    +0.000 A 
BRANCH  21  31
ATOM     30  C   UNL     1      44.452   9.216  11.241  0.00  0.00    +0.000 C 
ATOM     31  O   UNL     1      45.087   8.233  12.059  0.00  0.00    +0.000 OA
ENDBRANCH  21  31
ENDBRANCH  17  28
ENDBRANCH   1  19
TORSDOF 8
ENDMDL
