MODEL 1
REMARK VINA RESULT:    -8.153      0.000      0.000
REMARK INTER + INTRA:         -11.474
REMARK INTER:                 -10.536
REMARK INTRA:                  -0.938
REMARK UNBOUND:                -0.938
REMARK  Name = 
REMARK  6 active torsions:
REMARK  status: ('A' for Active; 'I' for Inactive)
REMARK    1  A    between atoms: C_1  and  C_2
REMARK    2  A    between atoms: C_4  and  C_5
REMARK    3  A    between atoms: C_10  and  N_11
REMARK    4  A    between atoms: N_11  and  C_12
REMARK    5  A    between atoms: C_12  and  C_13
REMARK    6  A    between atoms: C_17  and  C_18
REMARK                            x       y       z     vdW  Elec       q    Type
REMARK                         _______ _______ _______ _____ _____    ______ ____
ROOT
ATOM      1  C   UNL     1      44.142   7.090  11.868  0.00  0.00    +0.000 C 
ENDROOT
BRANCH   1   2
ATOM      2  C   UNL     1      44.001   5.616  11.493  0.00  0.00    +0.000 A 
ATOM      3  N   UNL     1      43.169   4.856  12.231  0.00  0.00    +0.000 NA
ATOM      4  C   UNL     1      43.070   3.563  11.888  0.00  0.00    +0.000 A 
ATOM      5  C   UNL     1      43.772   2.996  10.852  0.00  0.00    +0.000 A 
ATOM      6  C   UNL     1      44.612   3.832  10.139  0.00  0.00    +0.000 A 
ATOM      7  N   UNL     1      44.716   5.150  10.439  0.00  0.00    +0.000 NA
BRANCH   6   8
ATOM      8  C   UNL     1      45.440   3.352   9.008  0.00  0.00    +0.000 A 
ATOM      9  C   UNL     1      45.970   4.251   8.063  0.00  0.00    +0.000 A 
ATOM     10  C   UNL     1      46.732   3.810   6.973  0.00  0.00    +0.000 A 
ATOM     11  C   UNL     1      46.993   2.450   6.803  0.00  0.00    +0.000 A 
ATOM     12 CL   UNL     1      47.929   1.971   5.433  0.00  0.00    +0.000 Cl
ATOM     13  C   UNL     1      46.495   1.534   7.731  0.00  0.00    +0.000 A 
ATOM     14 CL   UNL     1      46.773  -0.166   7.595  0.00  0.00    +0.000 Cl
ATOM     15  C   UNL     1      45.733   1.984   8.820  0.00  0.00    +0.000 A 
ENDBRANCH   6   8
ENDBRANCH   1   2
BRANCH   1  16
ATOM     16  N   UNL     1      44.994   7.284  13.053  0.00  0.00    +0.000 N 
ATOM     17  H   UNL     1      44.593   7.964  13.689  0.00  0.00    +0.000 HD
BRANCH  16  24
ATOM     18  C   UNL     1      47.003   5.213  13.466  0.00  0.00    +0.000 C 
ATOM     19  C   UNL     1      47.313   6.572  12.906  0.00  0.00    +0.000 A 
ATOM     20  C   UNL     1      48.634   6.855  12.512  0.00  0.00    +0.000 A 
ATOM     21  C   UNL     1      48.965   8.099  11.983  0.00  0.00    +0.000 A 
ATOM     22  C   UNL     1      47.941   9.023  11.889  0.00  0.00    +0.000 A 
ATOM     23  N   UNL     1      46.654   8.785  12.263  0.00  0.00    +0.000 NA
ATOM     24  C   UNL     1      46.337   7.570  12.766  0.00  0.00    +0.000 A 
BRANCH  21  25
ATOM     25  C   UNL     1      50.362   8.351  11.551  0.00  0.00    +0.000 C 
ATOM     26  N   UNL     1      51.181   7.292  11.275  0.00  0.00    +0.000 N 
ATOM     27  O   UNL     1      50.793   9.495  11.444  0.00  0.00    +0.000 OA
ATOM     28  H   UNL     1      50.938   6.317  11.343  0.00  0.00    +0.000 HD
ATOM     29  H   UNL     1      52.131   7.517  11.002  0.00  0.00    +0.000 HD
ENDBRANCH  21  25
ENDBRANCH  16  24
ENDBRANCH   1  16
TORSDOF 5
ENDMDL
MODEL 2
REMARK VINA RESULT:    -8.035      4.311      7.024
REMARK INTER + INTRA:         -11.321
REMARK INTER:                 -10.555
REMARK INTRA:                  -0.766
REMARK UNBOUND:                -0.938
REMARK  Name = 
REMARK  6 active torsions:
REMARK  status: ('A' for Active; 'I' for Inactive)
REMARK    1  A    between atoms: C_1  and  C_2
REMARK    2  A    between atoms: C_4  and  C_5
REMARK    3  A    between atoms: C_10  and  N_11
REMARK    4  A    between atoms: N_11  and  C_12
REMARK    5  A    between atoms: C_12  and  C_13
REMARK    6  A    between atoms: C_17  and  C_18
REMARK                            x       y       z     vdW  Elec       q    Type
REMARK                         _______ _______ _______ _____ _____    ______ ____
ROOT
ATOM      1  C   UNL     1      44.485   6.192  10.613  0.00  0.00    +0.000 C 
ENDROOT
BRANCH   1   2
ATOM      2  C   UNL     1      45.460   5.835  11.733  0.00  0.00    +0.000 A 
ATOM      3  N   UNL     1      45.100   4.863  12.594  0.00  0.00    +0.000 NA
ATOM      4  C   UNL     1      45.968   4.575  13.575  0.00  0.00    +0.000 A 
ATOM      5  C   UNL     1      47.170   5.219  13.740  0.00  0.00    +0.000 A 
ATOM      6  C   UNL     1      47.475   6.209  12.823  0.00  0.00    +0.000 A 
ATOM      7  N   UNL     1      46.635   6.508  11.802  0.00  0.00    +0.000 NA
BRANCH   6   8
ATOM      8  C   UNL     1      48.730   6.996  12.889  0.00  0.00    +0.000 A 
ATOM      9  C   UNL     1      49.330   7.504  11.721  0.00  0.00    +0.000 A 
ATOM     10  C   UNL     1      50.531   8.225  11.765  0.00  0.00    +0.000 A 
ATOM     11  C   UNL     1      51.161   8.468  12.986  0.00  0.00    +0.000 A 
ATOM     12 CL   UNL     1      52.642   9.354  12.969  0.00  0.00    +0.000 Cl
ATOM     13  C   UNL     1      50.582   7.991  14.163  0.00  0.00    +0.000 A 
ATOM     14 CL   UNL     1      51.296   8.248  15.716  0.00  0.00    +0.000 Cl
ATOM     15  C   UNL     1      49.380   7.269  14.111  0.00  0.00    +0.000 A 
ENDBRANCH   6   8
ENDBRANCH   1   2
BRANCH   1  16
ATOM     16  N   UNL     1      43.911   4.997   9.972  0.00  0.00    +0.000 N 
ATOM     17  H   UNL     1      43.378   4.443  10.634  0.00  0.00    +0.000 HD
BRANCH  16  24
ATOM     18  C   UNL     1      43.987   2.122  10.447  0.00  0.00    +0.000 C 
ATOM     19  C   UNL     1      44.852   2.821   9.437  0.00  0.00    +0.000 A 
ATOM     20  C   UNL     1      45.715   2.049   8.638  0.00  0.00    +0.000 A 
ATOM     21  C   UNL     1      46.530   2.654   7.685  0.00  0.00    +0.000 A 
ATOM     22  C   UNL     1      46.452   4.031   7.591  0.00  0.00    +0.000 A 
ATOM     23  N   UNL     1      45.631   4.809   8.348  0.00  0.00    +0.000 NA
ATOM     24  C   UNL     1      44.834   4.213   9.265  0.00  0.00    +0.000 A 
BRANCH  21  25
ATOM     25  C   UNL     1      47.406   1.805   6.840  0.00  0.00    +0.000 C 
ATOM     26  N   UNL     1      48.460   2.375   6.183  0.00  0.00    +0.000 N 
ATOM     27  O   UNL     1      47.194   0.603   6.720  0.00  0.00    +0.000 OA
ATOM     28  H   UNL     1      48.717   3.349   6.198  0.00  0.00    +0.000 HD
ATOM     29  H   UNL     1      49.017   1.756   5.604  0.00  0.00    +0.000 HD
ENDBRANCH  21  25
ENDBRANCH  16  24
ENDBRANCH   1  16
TORSDOF 5
ENDMDL
MODEL 3
REMARK VINA RESULT:    -7.845      4.581      7.505
REMARK INTER + INTRA:         -11.077
REMARK INTER:                 -11.191
REMARK INTRA:                   0.114
REMARK UNBOUND:                -0.938
REMARK  Name = 
REMARK  6 active torsions:
REMARK  status: ('A' for Active; 'I' for Inactive)
REMARK    1  A    between atoms: C_1  and  C_2
REMARK    2  A    between atoms: C_4  and  C_5
REMARK    3  A    between atoms: C_10  and  N_11
REMARK    4  A    between atoms: N_11  and  C_12
REMARK    5  A    between atoms: C_12  and  C_13
REMARK    6  A    between atoms: C_17  and  C_18
REMARK                            x       y       z     vdW  Elec       q    Type
REMARK                         _______ _______ _______ _____ _____    ______ ____
ROOT
ATOM      1  C   UNL     1      44.006   5.030  11.357  0.00  0.00    +0.000 C 
ENDROOT
BRANCH   1   2
ATOM      2  C   UNL     1      45.317   5.633  11.857  0.00  0.00    +0.000 A 
ATOM      3  N   UNL     1      45.934   6.535  11.070  0.00  0.00    +0.000 NA
ATOM      4  C   UNL     1      47.090   7.043  11.526  0.00  0.00    +0.000 A 
ATOM      5  C   UNL     1      47.658   6.682  12.723  0.00  0.00    +0.000 A 
ATOM      6  C   UNL     1      46.974   5.747  13.479  0.00  0.00    +0.000 A 
ATOM      7  N   UNL     1      45.790   5.233  13.064  0.00  0.00    +0.000 NA
BRANCH   6   8
ATOM      8  C   UNL     1      47.479   5.254  14.783  0.00  0.00    +0.000 A 
ATOM      9  C   UNL     1      47.135   3.974  15.257  0.00  0.00    +0.000 A 
ATOM     10  C   UNL     1      47.581   3.504  16.500  0.00  0.00    +0.000 A 
ATOM     11  C   UNL     1      48.395   4.305  17.302  0.00  0.00    +0.000 A 
ATOM     12 CL   UNL     1      48.902   3.672  18.826  0.00  0.00    +0.000 Cl
ATOM     13  C   UNL     1      48.766   5.573  16.853  0.00  0.00    +0.000 A 
ATOM     14 CL   UNL     1      49.772   6.627  17.783  0.00  0.00    +0.000 Cl
ATOM     15  C   UNL     1      48.315   6.036  15.607  0.00  0.00    +0.000 A 
ENDBRANCH   6   8
ENDBRANCH   1   2
BRANCH   1  16
ATOM     16  N   UNL     1      43.914   5.038   9.888  0.00  0.00    +0.000 N 
ATOM     17  H   UNL     1      42.961   4.884   9.577  0.00  0.00    +0.000 HD
BRANCH  16  24
ATOM     18  C   UNL     1      43.906   2.202  10.564  0.00  0.00    +0.000 C 
ATOM     19  C   UNL     1      44.794   2.804   9.512  0.00  0.00    +0.000 A 
ATOM     20  C   UNL     1      45.637   1.953   8.773  0.00  0.00    +0.000 A 
ATOM     21  C   UNL     1      46.472   2.467   7.784  0.00  0.00    +0.000 A 
ATOM     22  C   UNL     1      46.433   3.836   7.593  0.00  0.00    +0.000 A 
ATOM     23  N   UNL     1      45.633   4.687   8.290  0.00  0.00    +0.000 NA
ATOM     24  C   UNL     1      44.816   4.181   9.242  0.00  0.00    +0.000 A 
BRANCH  21  25
ATOM     25  C   UNL     1      47.326   1.536   7.006  0.00  0.00    +0.000 C 
ATOM     26  N   UNL     1      48.386   2.031   6.299  0.00  0.00    +0.000 N 
ATOM     27  O   UNL     1      47.091   0.333   6.983  0.00  0.00    +0.000 OA
ATOM     28  H   UNL     1      48.661   2.998   6.235  0.00  0.00    +0.000 HD
ATOM     29  H   UNL     1      48.927   1.357   5.769  0.00  0.00    +0.000 HD
ENDBRANCH  21  25
ENDBRANCH  16  24
ENDBRANCH   1  16
TORSDOF 5
ENDMDL
MODEL 4
REMARK VINA RESULT:    -7.821      3.387      4.241
REMARK INTER + INTRA:         -11.045
REMARK INTER:                 -10.416
REMARK INTRA:                  -0.629
REMARK UNBOUND:                -0.938
REMARK  Name = 
REMARK  6 active torsions:
REMARK  status: ('A' for Active; 'I' for Inactive)
REMARK    1  A    between atoms: C_1  and  C_2
REMARK    2  A    between atoms: C_4  and  C_5
REMARK    3  A    between atoms: C_10  and  N_11
REMARK    4  A    between atoms: N_11  and  C_12
REMARK    5  A    between atoms: C_12  and  C_13
REMARK    6  A    between atoms: C_17  and  C_18
REMARK                            x       y       z     vdW  Elec       q    Type
REMARK                         _______ _______ _______ _____ _____    ______ ____
ROOT
ATOM      1  C   UNL     1      45.589   5.519  13.618  0.00  0.00    +0.000 C 
ENDROOT
BRANCH   1   2
ATOM      2  C   UNL     1      44.876   4.562  12.665  0.00  0.00    +0.000 A 
ATOM      3  N   UNL     1      43.729   3.995  13.086  0.00  0.00    +0.000 NA
ATOM      4  C   UNL     1      43.127   3.150  12.235  0.00  0.00    +0.000 A 
ATOM      5  C   UNL     1      43.624   2.840  10.992  0.00  0.00    +0.000 A 
ATOM      6  C   UNL     1      44.808   3.456  10.625  0.00  0.00    +0.000 A 
ATOM      7  N   UNL     1      45.430   4.336  11.448  0.00  0.00    +0.000 NA
BRANCH   6   8
ATOM      8  C   UNL     1      45.466   3.203   9.321  0.00  0.00    +0.000 A 
ATOM      9  C   UNL     1      45.730   4.256   8.425  0.00  0.00    +0.000 A 
ATOM     10  C   UNL     1      46.325   4.029   7.177  0.00  0.00    +0.000 A 
ATOM     11  C   UNL     1      46.683   2.736   6.794  0.00  0.00    +0.000 A 
ATOM     12 CL   UNL     1      47.403   2.523   5.239  0.00  0.00    +0.000 Cl
ATOM     13  C   UNL     1      46.449   1.673   7.667  0.00  0.00    +0.000 A 
ATOM     14 CL   UNL     1      46.863   0.042   7.271  0.00  0.00    +0.000 Cl
ATOM     15  C   UNL     1      45.852   1.908   8.915  0.00  0.00    +0.000 A 
ENDBRANCH   6   8
ENDBRANCH   1   2
BRANCH   1  16
ATOM     16  N   UNL     1      47.048   5.325  13.615  0.00  0.00    +0.000 N 
ATOM     17  H   UNL     1      47.335   4.694  12.875  0.00  0.00    +0.000 HD
BRANCH  16  24
ATOM     18  C   UNL     1      48.660   7.253  15.092  0.00  0.00    +0.000 C 
ATOM     19  C   UNL     1      48.325   5.882  15.606  0.00  0.00    +0.000 A 
ATOM     20  C   UNL     1      48.768   5.517  16.891  0.00  0.00    +0.000 A 
ATOM     21  C   UNL     1      48.476   4.259  17.410  0.00  0.00    +0.000 A 
ATOM     22  C   UNL     1      47.755   3.406  16.595  0.00  0.00    +0.000 A 
ATOM     23  N   UNL     1      47.313   3.725  15.348  0.00  0.00    +0.000 NA
ATOM     24  C   UNL     1      47.591   4.953  14.853  0.00  0.00    +0.000 A 
BRANCH  21  25
ATOM     25  C   UNL     1      48.935   3.919  18.780  0.00  0.00    +0.000 C 
ATOM     26  N   UNL     1      48.253   2.981  19.502  0.00  0.00    +0.000 N 
ATOM     27  O   UNL     1      49.913   4.471  19.273  0.00  0.00    +0.000 OA
ATOM     28  H   UNL     1      47.433   2.477  19.203  0.00  0.00    +0.000 HD
ATOM     29  H   UNL     1      48.595   2.798  20.439  0.00  0.00    +0.000 HD
ENDBRANCH  21  25
ENDBRANCH  16  24
ENDBRANCH   1  16
TORSDOF 5
ENDMDL
MODEL 5
REMARK VINA RESULT:    -7.684      1.819      2.442
REMARK INTER + INTRA:         -10.868
REMARK INTER:                 -10.453
REMARK INTRA:                  -0.414
REMARK UNBOUND:                -0.938
REMARK  Name = 
REMARK  6 active torsions:
REMARK  status: ('A' for Active; 'I' for Inactive)
REMARK    1  A    between atoms: C_1  and  C_2
REMARK    2  A    between atoms: C_4  and  C_5
REMARK    3  A    between atoms: C_10  and  N_11
REMARK    4  A    between atoms: N_11  and  C_12
REMARK    5  A    between atoms: C_12  and  C_13
REMARK    6  A    between atoms: C_17  and  C_18
REMARK                            x       y       z     vdW  Elec       q    Type
REMARK                         _______ _______ _______ _____ _____    ______ ____
ROOT
ATOM      1  C   UNL     1      42.950   6.689  11.477  0.00  0.00    +0.000 C 
ENDROOT
BRANCH   1   2
ATOM      2  C   UNL     1      43.314   5.212  11.336  0.00  0.00    +0.000 A 
ATOM      3  N   UNL     1      42.857   4.360  12.275  0.00  0.00    +0.000 NA
ATOM      4  C   UNL     1      43.199   3.070  12.136  0.00  0.00    +0.000 A 
ATOM      5  C   UNL     1      43.982   2.598  11.112  0.00  0.00    +0.000 A 
ATOM      6  C   UNL     1      44.420   3.527  10.185  0.00  0.00    +0.000 A 
ATOM      7  N   UNL     1      44.072   4.834  10.278  0.00  0.00    +0.000 NA
BRANCH   6   8
ATOM      8  C   UNL     1      45.285   3.160   9.038  0.00  0.00    +0.000 A 
ATOM      9  C   UNL     1      45.774   4.142   8.156  0.00  0.00    +0.000 A 
ATOM     10  C   UNL     1      46.569   3.808   7.051  0.00  0.00    +0.000 A 
ATOM     11  C   UNL     1      46.905   2.477   6.804  0.00  0.00    +0.000 A 
ATOM     12 CL   UNL     1      47.879   2.132   5.420  0.00  0.00    +0.000 Cl
ATOM     13  C   UNL     1      46.448   1.482   7.669  0.00  0.00    +0.000 A 
ATOM     14 CL   UNL     1      46.819  -0.190   7.436  0.00  0.00    +0.000 Cl
ATOM     15  C   UNL     1      45.653   1.824   8.773  0.00  0.00    +0.000 A 
ENDBRANCH   6   8
ENDBRANCH   1   2
BRANCH   1  16
ATOM     16  N   UNL     1      43.962   7.571  10.875  0.00  0.00    +0.000 N 
ATOM     17  H   UNL     1      44.290   7.207   9.988  0.00  0.00    +0.000 HD
BRANCH  16  24
ATOM     18  C   UNL     1      44.451  10.375  11.507  0.00  0.00    +0.000 C 
ATOM     19  C   UNL     1      45.248   9.241  12.086  0.00  0.00    +0.000 A 
ATOM     20  C   UNL     1      46.257   9.534  13.022  0.00  0.00    +0.000 A 
ATOM     21  C   UNL     1      47.016   8.515  13.588  0.00  0.00    +0.000 A 
ATOM     22  C   UNL     1      46.735   7.228  13.168  0.00  0.00    +0.000 A 
ATOM     23  N   UNL     1      45.770   6.909  12.264  0.00  0.00    +0.000 NA
ATOM     24  C   UNL     1      45.027   7.903  11.725  0.00  0.00    +0.000 A 
BRANCH  21  25
ATOM     25  C   UNL     1      48.052   8.859  14.594  0.00  0.00    +0.000 C 
ATOM     26  N   UNL     1      47.672   9.171  15.869  0.00  0.00    +0.000 N 
ATOM     27  O   UNL     1      49.242   8.873  14.296  0.00  0.00    +0.000 OA
ATOM     28  H   UNL     1      46.727   9.205  16.218  0.00  0.00    +0.000 HD
ATOM     29  H   UNL     1      48.415   9.417  16.513  0.00  0.00    +0.000 HD
ENDBRANCH  21  25
ENDBRANCH  16  24
ENDBRANCH   1  16
TORSDOF 5
ENDMDL
MODEL 6
REMARK VINA RESULT:    -7.643      4.301      7.100
REMARK INTER + INTRA:         -10.815
REMARK INTER:                  -9.934
REMARK INTRA:                  -0.881
REMARK UNBOUND:                -0.938
REMARK  Name = 
REMARK  6 active torsions:
REMARK  status: ('A' for Active; 'I' for Inactive)
REMARK    1  A    between atoms: C_1  and  C_2
REMARK    2  A    between atoms: C_4  and  C_5
REMARK    3  A    between atoms: C_10  and  N_11
REMARK    4  A    between atoms: N_11  and  C_12
REMARK    5  A    between atoms: C_12  and  C_13
REMARK    6  A    between atoms: C_17  and  C_18
REMARK                            x       y       z     vdW  Elec       q    Type
REMARK                         _______ _______ _______ _____ _____    ______ ____
ROOT
ATOM      1  C   UNL     1      43.690   4.297  11.677  0.00  0.00    +0.000 C 
ENDROOT
BRANCH   1   2
ATOM      2  C   UNL     1      45.006   4.657  12.364  0.00  0.00    +0.000 A 
ATOM      3  N   UNL     1      45.516   3.775  13.246  0.00  0.00    +0.000 NA
ATOM      4  C   UNL     1      46.667   4.118  13.844  0.00  0.00    +0.000 A 
ATOM      5  C   UNL     1      47.321   5.303  13.610  0.00  0.00    +0.000 A 
ATOM      6  C   UNL     1      46.740   6.164  12.697  0.00  0.00    +0.000 A 
ATOM      7  N   UNL     1      45.592   5.839  12.052  0.00  0.00    +0.000 NA
BRANCH   6   8
ATOM      8  C   UNL     1      47.328   7.483  12.360  0.00  0.00    +0.000 A 
ATOM      9  C   UNL     1      48.717   7.634  12.185  0.00  0.00    +0.000 A 
ATOM     10  C   UNL     1      49.291   8.879  11.895  0.00  0.00    +0.000 A 
ATOM     11  C   UNL     1      48.485  10.010  11.761  0.00  0.00    +0.000 A 
ATOM     12 CL   UNL     1      49.256  11.515  11.413  0.00  0.00    +0.000 Cl
ATOM     13  C   UNL     1      47.103   9.889  11.913  0.00  0.00    +0.000 A 
ATOM     14 CL   UNL     1      46.034  11.240  11.763  0.00  0.00    +0.000 Cl
ATOM     15  C   UNL     1      46.536   8.640  12.204  0.00  0.00    +0.000 A 
ENDBRANCH   6   8
ENDBRANCH   1   2
BRANCH   1  16
ATOM     16  N   UNL     1      43.713   4.600  10.236  0.00  0.00    +0.000 N 
ATOM     17  H   UNL     1      42.776   4.708   9.866  0.00  0.00    +0.000 HD
BRANCH  16  24
ATOM     18  C   UNL     1      46.037   5.613   8.797  0.00  0.00    +0.000 C 
ATOM     19  C   UNL     1      45.630   4.167   8.807  0.00  0.00    +0.000 A 
ATOM     20  C   UNL     1      46.436   3.234   8.127  0.00  0.00    +0.000 A 
ATOM     21  C   UNL     1      46.100   1.884   8.115  0.00  0.00    +0.000 A 
ATOM     22  C   UNL     1      44.942   1.529   8.782  0.00  0.00    +0.000 A 
ATOM     23  N   UNL     1      44.139   2.403   9.447  0.00  0.00    +0.000 NA
ATOM     24  C   UNL     1      44.477   3.713   9.465  0.00  0.00    +0.000 A 
BRANCH  21  25
ATOM     25  C   UNL     1      46.988   0.925   7.411  0.00  0.00    +0.000 C 
ATOM     26  N   UNL     1      47.956   1.400   6.572  0.00  0.00    +0.000 N 
ATOM     27  O   UNL     1      46.862  -0.285   7.568  0.00  0.00    +0.000 OA
ATOM     28  H   UNL     1      48.139   2.367   6.358  0.00  0.00    +0.000 HD
ATOM     29  H   UNL     1      48.525   0.705   6.102  0.00  0.00    +0.000 HD
ENDBRANCH  21  25
ENDBRANCH  16  24
ENDBRANCH   1  16
TORSDOF 5
ENDMDL
MODEL 7
REMARK VINA RESULT:    -7.155      5.131      7.016
REMARK INTER + INTRA:         -10.184
REMARK INTER:                  -9.270
REMARK INTRA:                  -0.914
REMARK UNBOUND:                -0.938
REMARK  Name = 
REMARK  6 active torsions:
REMARK  status: ('A' for Active; 'I' for Inactive)
REMARK    1  A    between atoms: C_1  and  C_2
REMARK    2  A    between atoms: C_4  and  C_5
REMARK    3  A    between atoms: C_10  and  N_11
REMARK    4  A    between atoms: N_11  and  C_12
REMARK    5  A    between atoms: C_12  and  C_13
REMARK    6  A    between atoms: C_17  and  C_18
REMARK                            x       y       z     vdW  Elec       q    Type
REMARK                         _______ _______ _______ _____ _____    ______ ____
ROOT
ATOM      1  C   UNL     1      49.582   7.051  16.461  0.00  0.00    +0.000 C 
ENDROOT
BRANCH   1   2
ATOM      2  C   UNL     1      49.198   7.023  14.983  0.00  0.00    +0.000 A 
ATOM      3  N   UNL     1      49.899   7.804  14.137  0.00  0.00    +0.000 NA
ATOM      4  C   UNL     1      49.536   7.770  12.846  0.00  0.00    +0.000 A 
ATOM      5  C   UNL     1      48.503   7.002  12.366  0.00  0.00    +0.000 A 
ATOM      6  C   UNL     1      47.824   6.228  13.290  0.00  0.00    +0.000 A 
ATOM      7  N   UNL     1      48.180   6.215  14.598  0.00  0.00    +0.000 NA
BRANCH   6   8
ATOM      8  C   UNL     1      46.679   5.364  12.916  0.00  0.00    +0.000 A 
ATOM      9  C   UNL     1      46.694   3.982  13.186  0.00  0.00    +0.000 A 
ATOM     10  C   UNL     1      45.631   3.148  12.814  0.00  0.00    +0.000 A 
ATOM     11  C   UNL     1      44.516   3.678  12.165  0.00  0.00    +0.000 A 
ATOM     12 CL   UNL     1      43.246   2.594  11.723  0.00  0.00    +0.000 Cl
ATOM     13  C   UNL     1      44.465   5.047  11.897  0.00  0.00    +0.000 A 
ATOM     14 CL   UNL     1      43.120   5.784  11.098  0.00  0.00    +0.000 Cl
ATOM     15  C   UNL     1      45.532   5.876  12.273  0.00  0.00    +0.000 A 
ENDBRANCH   6   8
ENDBRANCH   1   2
BRANCH   1  16
ATOM     16  N   UNL     1      48.915   5.988  17.230  0.00  0.00    +0.000 N 
ATOM     17  H   UNL     1      48.542   6.342  18.104  0.00  0.00    +0.000 HD
BRANCH  16  24
ATOM     18  C   UNL     1      47.641   3.375  17.025  0.00  0.00    +0.000 C 
ATOM     19  C   UNL     1      49.109   3.566  17.279  0.00  0.00    +0.000 A 
ATOM     20  C   UNL     1      49.931   2.428  17.377  0.00  0.00    +0.000 A 
ATOM     21  C   UNL     1      51.298   2.559  17.606  0.00  0.00    +0.000 A 
ATOM     22  C   UNL     1      51.781   3.847  17.746  0.00  0.00    +0.000 A 
ATOM     23  N   UNL     1      51.015   4.968  17.660  0.00  0.00    +0.000 NA
ATOM     24  C   UNL     1      49.689   4.835  17.426  0.00  0.00    +0.000 A 
BRANCH  21  25
ATOM     25  C   UNL     1      52.138   1.338  17.675  0.00  0.00    +0.000 C 
ATOM     26  N   UNL     1      51.588   0.169  18.120  0.00  0.00    +0.000 N 
ATOM     27  O   UNL     1      53.319   1.364  17.343  0.00  0.00    +0.000 OA
ATOM     28  H   UNL     1      50.639   0.036  18.430  0.00  0.00    +0.000 HD
ATOM     29  H   UNL     1      52.209  -0.632  18.166  0.00  0.00    +0.000 HD
ENDBRANCH  21  25
ENDBRANCH  16  24
ENDBRANCH   1  16
TORSDOF 5
ENDMDL
MODEL 8
REMARK VINA RESULT:    -7.049      4.006      6.984
REMARK INTER + INTRA:         -10.048
REMARK INTER:                  -9.414
REMARK INTRA:                  -0.634
REMARK UNBOUND:                -0.938
REMARK  Name = 
REMARK  6 active torsions:
REMARK  status: ('A' for Active; 'I' for Inactive)
REMARK    1  A    between atoms: C_1  and  C_2
REMARK    2  A    between atoms: C_4  and  C_5
REMARK    3  A    between atoms: C_10  and  N_11
REMARK    4  A    between atoms: N_11  and  C_12
REMARK    5  A    between atoms: C_12  and  C_13
REMARK    6  A    between atoms: C_17  and  C_18
REMARK                            x       y       z     vdW  Elec       q    Type
REMARK                         _______ _______ _______ _____ _____    ______ ____
ROOT
ATOM      1  C   UNL     1      44.985   2.732  11.908  0.00  0.00    +0.000 C 
ENDROOT
BRANCH   1   2
ATOM      2  C   UNL     1      45.038   4.197  12.339  0.00  0.00    +0.000 A 
ATOM      3  N   UNL     1      43.874   4.871  12.418  0.00  0.00    +0.000 NA
ATOM      4  C   UNL     1      43.948   6.158  12.789  0.00  0.00    +0.000 A 
ATOM      5  C   UNL     1      45.128   6.801  13.072  0.00  0.00    +0.000 A 
ATOM      6  C   UNL     1      46.285   6.051  12.967  0.00  0.00    +0.000 A 
ATOM      7  N   UNL     1      46.248   4.740  12.622  0.00  0.00    +0.000 NA
BRANCH   6   8
ATOM      8  C   UNL     1      47.629   6.620  13.227  0.00  0.00    +0.000 A 
ATOM      9  C   UNL     1      48.101   6.794  14.542  0.00  0.00    +0.000 A 
ATOM     10  C   UNL     1      49.357   7.356  14.806  0.00  0.00    +0.000 A 
ATOM     11  C   UNL     1      50.183   7.753  13.753  0.00  0.00    +0.000 A 
ATOM     12 CL   UNL     1      51.714   8.448  14.146  0.00  0.00    +0.000 Cl
ATOM     13  C   UNL     1      49.750   7.579  12.438  0.00  0.00    +0.000 A 
ATOM     14 CL   UNL     1      50.712   8.043  11.079  0.00  0.00    +0.000 Cl
ATOM     15  C   UNL     1      48.491   7.015  12.183  0.00  0.00    +0.000 A 
ENDBRANCH   6   8
ENDBRANCH   1   2
BRANCH   1  16
ATOM     16  N   UNL     1      44.165   2.536  10.701  0.00  0.00    +0.000 N 
ATOM     17  H   UNL     1      43.573   1.718  10.785  0.00  0.00    +0.000 HD
BRANCH  16  24
ATOM     18  C   UNL     1      44.237   4.960   9.083  0.00  0.00    +0.000 C 
ATOM     19  C   UNL     1      44.980   3.702   8.731  0.00  0.00    +0.000 A 
ATOM     20  C   UNL     1      45.797   3.700   7.585  0.00  0.00    +0.000 A 
ATOM     21  C   UNL     1      46.508   2.559   7.224  0.00  0.00    +0.000 A 
ATOM     22  C   UNL     1      46.349   1.450   8.034  0.00  0.00    +0.000 A 
ATOM     23  N   UNL     1      45.567   1.416   9.147  0.00  0.00    +0.000 NA
ATOM     24  C   UNL     1      44.887   2.532   9.499  0.00  0.00    +0.000 A 
BRANCH  21  25
ATOM     25  C   UNL     1      47.382   2.601   6.025  0.00  0.00    +0.000 C 
ATOM     26  N   UNL     1      48.720   2.360   6.161  0.00  0.00    +0.000 N 
ATOM     27  O   UNL     1      46.921   2.855   4.917  0.00  0.00    +0.000 OA
ATOM     28  H   UNL     1      49.205   2.157   7.020  0.00  0.00    +0.000 HD
ATOM     29  H   UNL     1      49.276   2.419   5.316  0.00  0.00    +0.000 HD
ENDBRANCH  21  25
ENDBRANCH  16  24
ENDBRANCH   1  16
TORSDOF 5
ENDMDL
MODEL 9
REMARK VINA RESULT:    -7.038      6.352      8.935
REMARK INTER + INTRA:         -10.034
REMARK INTER:                  -9.522
REMARK INTRA:                  -0.512
REMARK UNBOUND:                -0.938
REMARK  Name = 
REMARK  6 active torsions:
REMARK  status: ('A' for Active; 'I' for Inactive)
REMARK    1  A    between atoms: C_1  and  C_2
REMARK    2  A    between atoms: C_4  and  C_5
REMARK    3  A    between atoms: C_10  and  N_11
REMARK    4  A    between atoms: N_11  and  C_12
REMARK    5  A    between atoms: C_12  and  C_13
REMARK    6  A    between atoms: C_17  and  C_18
REMARK                            x       y       z     vdW  Elec       q    Type
REMARK                         _______ _______ _______ _____ _____    ______ ____
ROOT
ATOM      1  C   UNL     1      47.062   4.280  15.761  0.00  0.00    +0.000 C 
ENDROOT
BRANCH   1   2
ATOM      2  C   UNL     1      48.147   4.525  16.808  0.00  0.00    +0.000 A 
ATOM      3  N   UNL     1      47.983   5.561  17.653  0.00  0.00    +0.000 NA
ATOM      4  C   UNL     1      48.955   5.761  18.556  0.00  0.00    +0.000 A 
ATOM      5  C   UNL     1      50.083   4.983  18.644  0.00  0.00    +0.000 A 
ATOM      6  C   UNL     1      50.189   3.939  17.743  0.00  0.00    +0.000 A 
ATOM      7  N   UNL     1      49.215   3.689  16.835  0.00  0.00    +0.000 NA
BRANCH   6   8
ATOM      8  C   UNL     1      51.360   3.030  17.713  0.00  0.00    +0.000 A 
ATOM      9  C   UNL     1      51.209   1.662  17.413  0.00  0.00    +0.000 A 
ATOM     10  C   UNL     1      52.300   0.784  17.409  0.00  0.00    +0.000 A 
ATOM     11  C   UNL     1      53.582   1.256  17.697  0.00  0.00    +0.000 A 
ATOM     12 CL   UNL     1      54.883   0.120  17.685  0.00  0.00    +0.000 Cl
ATOM     13  C   UNL     1      53.767   2.609  17.983  0.00  0.00    +0.000 A 
ATOM     14 CL   UNL     1      55.320   3.274  18.348  0.00  0.00    +0.000 Cl
ATOM     15  C   UNL     1      52.668   3.482  17.985  0.00  0.00    +0.000 A 
ENDBRANCH   6   8
ENDBRANCH   1   2
BRANCH   1  16
ATOM     16  N   UNL     1      47.157   5.218  14.630  0.00  0.00    +0.000 N 
ATOM     17  H   UNL     1      46.963   6.169  14.921  0.00  0.00    +0.000 HD
BRANCH  16  24
ATOM     18  C   UNL     1      46.743   7.175  12.511  0.00  0.00    +0.000 C 
ATOM     19  C   UNL     1      46.235   5.763  12.449  0.00  0.00    +0.000 A 
ATOM     20  C   UNL     1      45.564   5.338  11.288  0.00  0.00    +0.000 A 
ATOM     21  C   UNL     1      45.082   4.036  11.185  0.00  0.00    +0.000 A 
ATOM     22  C   UNL     1      45.284   3.213  12.277  0.00  0.00    +0.000 A 
ATOM     23  N   UNL     1      45.927   3.592  13.416  0.00  0.00    +0.000 NA
ATOM     24  C   UNL     1      46.403   4.855  13.505  0.00  0.00    +0.000 A 
BRANCH  21  25
ATOM     25  C   UNL     1      44.404   3.614   9.934  0.00  0.00    +0.000 C 
ATOM     26  N   UNL     1      43.830   4.559   9.130  0.00  0.00    +0.000 N 
ATOM     27  O   UNL     1      44.346   2.431   9.614  0.00  0.00    +0.000 OA
ATOM     28  H   UNL     1      43.805   5.551   9.301  0.00  0.00    +0.000 HD
ATOM     29  H   UNL     1      43.364   4.218   8.297  0.00  0.00    +0.000 HD
ENDBRANCH  21  25
ENDBRANCH  16  24
ENDBRANCH   1  16
TORSDOF 5
ENDMDL
