MODEL 1
REMARK VINA RESULT:    -7.874      0.000      0.000
REMARK INTER + INTRA:         -10.951
REMARK INTER:                 -10.176
REMARK INTRA:                  -0.775
REMARK UNBOUND:                -0.775
REMARK  Name = 
REMARK  6 active torsions:
REMARK  status: ('A' for Active; 'I' for Inactive)
REMARK    1  A    between atoms: C_1  and  C_2
REMARK    2  A    between atoms: C_2  and  C_3
REMARK    3  A    between atoms: C_2  and  C_14
REMARK    4  A    between atoms: C_3  and  N_4
REMARK    5  A    between atoms: N_4  and  C_5
REMARK    6  A    between atoms: C_8  and  C_9
REMARK                            x       y       z     vdW  Elec       q    Type
REMARK                         _______ _______ _______ _____ _____    ______ ____
ROOT
ATOM      1  N   UNL     1      43.745   4.975   9.781  0.00  0.00    +0.000 N 
ATOM      2  H   UNL     1      44.071   5.915   9.575  0.00  0.00    +0.000 HD
ENDROOT
BRANCH   1   3
ATOM      3  C   UNL     1      44.590   4.007   9.200  0.00  0.00    +0.000 A 
ATOM      4  C   UNL     1      44.446   2.634   9.439  0.00  0.00    +0.000 A 
ATOM      5  C   UNL     1      45.283   1.694   8.832  0.00  0.00    +0.000 A 
ATOM      6  C   UNL     1      46.257   2.103   7.923  0.00  0.00    +0.000 A 
ATOM      7  C   UNL     1      46.377   3.462   7.618  0.00  0.00    +0.000 A 
ATOM      8  C   UNL     1      45.535   4.400   8.240  0.00  0.00    +0.000 A 
BRANCH   6   9
ATOM      9  C   UNL     1      47.131   1.055   7.334  0.00  0.00    +0.000 C 
ATOM     10  N   UNL     1      46.869  -0.246   7.656  0.00  0.00    +0.000 N 
ATOM     11  O   UNL     1      48.083   1.340   6.616  0.00  0.00    +0.000 OA
ATOM     12  H   UNL     1      46.279  -0.500   8.434  0.00  0.00    +0.000 HD
ATOM     13  H   UNL     1      47.559  -0.920   7.348  0.00  0.00    +0.000 HD
ENDBRANCH   6   9
ENDBRANCH   1   3
BRANCH   1  14
ATOM     14  C   UNL     1      43.462   4.804  11.200  0.00  0.00    +0.000 C 
BRANCH  14  16
ATOM     15  C   UNL     1      44.116   7.223  11.340  0.00  0.00    +0.000 C 
ATOM     16  C   UNL     1      44.096   5.884  12.031  0.00  0.00    +0.000 C 
BRANCH  16  17
ATOM     17  C   UNL     1      45.203   5.556  13.018  0.00  0.00    +0.000 C 
ATOM     18  C   UNL     1      46.384   6.537  12.932  0.00  0.00    +0.000 C 
ATOM     19  C   UNL     1      47.498   6.126  13.883  0.00  0.00    +0.000 C 
ATOM     20  O   UNL     1      47.921   4.791  13.608  0.00  0.00    +0.000 OA
ATOM     21  C   UNL     1      46.872   3.844  13.810  0.00  0.00    +0.000 C 
ATOM     22  C   UNL     1      45.708   4.112  12.864  0.00  0.00    +0.000 C 
ENDBRANCH  16  17
ENDBRANCH  14  16
ENDBRANCH   1  14
TORSDOF 5
ENDMDL
MODEL 2
REMARK VINA RESULT:    -7.752      1.459      1.876
REMARK INTER + INTRA:         -10.793
REMARK INTER:                 -10.088
REMARK INTRA:                  -0.704
REMARK UNBOUND:                -0.775
REMARK  Name = 
REMARK  6 active torsions:
REMARK  status: ('A' for Active; 'I' for Inactive)
REMARK    1  A    between atoms: C_1  and  C_2
REMARK    2  A    between atoms: C_2  and  C_3
REMARK    3  A    between atoms: C_2  and  C_14
REMARK    4  A    between atoms: C_3  and  N_4
REMARK    5  A    between atoms: N_4  and  C_5
REMARK    6  A    between atoms: C_8  and  C_9
REMARK                            x       y       z     vdW  Elec       q    Type
REMARK                         _______ _______ _______ _____ _____    ______ ____
ROOT
ATOM      1  N   UNL     1      43.664   3.576  10.473  0.00  0.00    +0.000 N 
ATOM      2  H   UNL     1      43.242   4.488  10.326  0.00  0.00    +0.000 HD
ENDROOT
BRANCH   1   3
ATOM      3  C   UNL     1      44.589   3.275   9.453  0.00  0.00    +0.000 A 
ATOM      4  C   UNL     1      45.202   4.262   8.671  0.00  0.00    +0.000 A 
ATOM      5  C   UNL     1      46.132   3.938   7.680  0.00  0.00    +0.000 A 
ATOM      6  C   UNL     1      46.515   2.613   7.481  0.00  0.00    +0.000 A 
ATOM      7  C   UNL     1      45.966   1.615   8.294  0.00  0.00    +0.000 A 
ATOM      8  C   UNL     1      45.026   1.952   9.282  0.00  0.00    +0.000 A 
BRANCH   6   9
ATOM      9  C   UNL     1      47.490   2.334   6.394  0.00  0.00    +0.000 C 
ATOM     10  N   UNL     1      47.433   3.113   5.274  0.00  0.00    +0.000 N 
ATOM     11  O   UNL     1      48.292   1.410   6.471  0.00  0.00    +0.000 OA
ATOM     12  H   UNL     1      46.635   3.694   5.061  0.00  0.00    +0.000 HD
ATOM     13  H   UNL     1      48.016   2.813   4.503  0.00  0.00    +0.000 HD
ENDBRANCH   6   9
ENDBRANCH   1   3
BRANCH   1  14
ATOM     14  C   UNL     1      44.149   3.424  11.838  0.00  0.00    +0.000 C 
BRANCH  14  16
ATOM     15  C   UNL     1      42.779   5.473  12.311  0.00  0.00    +0.000 C 
ATOM     16  C   UNL     1      44.039   4.704  12.617  0.00  0.00    +0.000 C 
BRANCH  16  17
ATOM     17  C   UNL     1      45.282   5.476  13.025  0.00  0.00    +0.000 C 
ATOM     18  C   UNL     1      46.070   6.012  11.818  0.00  0.00    +0.000 C 
ATOM     19  C   UNL     1      47.343   6.712  12.271  0.00  0.00    +0.000 C 
ATOM     20  O   UNL     1      48.145   5.828  13.054  0.00  0.00    +0.000 OA
ATOM     21  C   UNL     1      47.481   5.420  14.251  0.00  0.00    +0.000 C 
ATOM     22  C   UNL     1      46.208   4.647  13.930  0.00  0.00    +0.000 C 
ENDBRANCH  16  17
ENDBRANCH  14  16
ENDBRANCH   1  14
TORSDOF 5
ENDMDL
MODEL 3
REMARK VINA RESULT:    -7.599      1.454      2.176
REMARK INTER + INTRA:         -10.595
REMARK INTER:                  -9.924
REMARK INTRA:                  -0.671
REMARK UNBOUND:                -0.775
REMARK  Name = 
REMARK  6 active torsions:
REMARK  status: ('A' for Active; 'I' for Inactive)
REMARK    1  A    between atoms: C_1  and  C_2
REMARK    2  A    between atoms: C_2  and  C_3
REMARK    3  A    between atoms: C_2  and  C_14
REMARK    4  A    between atoms: C_3  and  N_4
REMARK    5  A    between atoms: N_4  and  C_5
REMARK    6  A    between atoms: C_8  and  C_9
REMARK                            x       y       z     vdW  Elec       q    Type
REMARK                         _______ _______ _______ _____ _____    ______ ____
ROOT
ATOM      1  N   UNL     1      43.724   4.732   9.989  0.00  0.00    +0.000 N 
ATOM      2  H   UNL     1      43.717   5.681   9.625  0.00  0.00    +0.000 HD
ENDROOT
BRANCH   1   3
ATOM      3  C   UNL     1      44.636   3.924   9.279  0.00  0.00    +0.000 A 
ATOM      4  C   UNL     1      44.611   2.525   9.335  0.00  0.00    +0.000 A 
ATOM      5  C   UNL     1      45.513   1.747   8.604  0.00  0.00    +0.000 A 
ATOM      6  C   UNL     1      46.433   2.353   7.750  0.00  0.00    +0.000 A 
ATOM      7  C   UNL     1      46.433   3.746   7.625  0.00  0.00    +0.000 A 
ATOM      8  C   UNL     1      45.527   4.518   8.372  0.00  0.00    +0.000 A 
BRANCH   6   9
ATOM      9  C   UNL     1      47.380   1.469   7.020  0.00  0.00    +0.000 C 
ATOM     10  N   UNL     1      48.519   2.034   6.521  0.00  0.00    +0.000 N 
ATOM     11  O   UNL     1      47.137   0.283   6.831  0.00  0.00    +0.000 OA
ATOM     12  H   UNL     1      48.627   3.032   6.422  0.00  0.00    +0.000 HD
ATOM     13  H   UNL     1      49.073   1.438   5.918  0.00  0.00    +0.000 HD
ENDBRANCH   6   9
ENDBRANCH   1   3
BRANCH   1  14
ATOM     14  C   UNL     1      43.853   4.715  11.439  0.00  0.00    +0.000 C 
BRANCH  14  16
ATOM     15  C   UNL     1      45.687   3.627  12.763  0.00  0.00    +0.000 C 
ATOM     16  C   UNL     1      45.290   4.778  11.875  0.00  0.00    +0.000 C 
BRANCH  16  17
ATOM     17  C   UNL     1      45.988   6.114  12.058  0.00  0.00    +0.000 C 
ATOM     18  C   UNL     1      46.899   6.142  13.296  0.00  0.00    +0.000 C 
ATOM     19  C   UNL     1      47.518   7.520  13.481  0.00  0.00    +0.000 C 
ATOM     20  O   UNL     1      46.500   8.515  13.572  0.00  0.00    +0.000 OA
ATOM     21  C   UNL     1      45.722   8.598  12.378  0.00  0.00    +0.000 C 
ATOM     22  C   UNL     1      44.995   7.286  12.110  0.00  0.00    +0.000 C 
ENDBRANCH  16  17
ENDBRANCH  14  16
ENDBRANCH   1  14
TORSDOF 5
ENDMDL
MODEL 4
REMARK VINA RESULT:    -6.819      1.907      6.167
REMARK INTER + INTRA:          -9.588
REMARK INTER:                  -9.553
REMARK INTRA:                  -0.035
REMARK UNBOUND:                -0.775
REMARK  Name = 
REMARK  6 active torsions:
REMARK  status: ('A' for Active; 'I' for Inactive)
REMARK    1  A    between atoms: C_1  and  C_2
REMARK    2  A    between atoms: C_2  and  C_3
REMARK    3  A    between atoms: C_2  and  C_14
REMARK    4  A    between atoms: C_3  and  N_4
REMARK    5  A    between atoms: N_4  and  C_5
REMARK    6  A    between atoms: C_8  and  C_9
REMARK                            x       y       z     vdW  Elec       q    Type
REMARK                         _______ _______ _______ _____ _____    ______ ____
ROOT
ATOM      1  N   UNL     1      43.823   5.071  10.241  0.00  0.00    +0.000 N 
ATOM      2  H   UNL     1      42.849   5.130  10.525  0.00  0.00    +0.000 HD
ENDROOT
BRANCH   1   3
ATOM      3  C   UNL     1      44.660   4.831  11.350  0.00  0.00    +0.000 A 
ATOM      4  C   UNL     1      45.160   5.861  12.159  0.00  0.00    +0.000 A 
ATOM      5  C   UNL     1      45.970   5.594  13.266  0.00  0.00    +0.000 A 
ATOM      6  C   UNL     1      46.257   4.279  13.626  0.00  0.00    +0.000 A 
ATOM      7  C   UNL     1      45.715   3.232  12.874  0.00  0.00    +0.000 A 
ATOM      8  C   UNL     1      44.909   3.512  11.758  0.00  0.00    +0.000 A 
BRANCH   6   9
ATOM      9  C   UNL     1      47.145   4.066  14.799  0.00  0.00    +0.000 C 
ATOM     10  N   UNL     1      47.366   5.127  15.630  0.00  0.00    +0.000 N 
ATOM     11  O   UNL     1      47.700   2.991  14.999  0.00  0.00    +0.000 OA
ATOM     12  H   UNL     1      47.151   6.076  15.362  0.00  0.00    +0.000 HD
ATOM     13  H   UNL     1      48.076   4.987  16.338  0.00  0.00    +0.000 HD
ENDBRANCH   6   9
ENDBRANCH   1   3
BRANCH   1  14
ATOM     14  C   UNL     1      43.997   4.175   9.106  0.00  0.00    +0.000 C 
BRANCH  14  16
ATOM     15  C   UNL     1      46.169   5.375   8.727  0.00  0.00    +0.000 C 
ATOM     16  C   UNL     1      45.440   4.056   8.703  0.00  0.00    +0.000 C 
BRANCH  16  17
ATOM     17  C   UNL     1      45.886   2.995   7.711  0.00  0.00    +0.000 C 
ATOM     18  C   UNL     1      46.339   1.695   8.397  0.00  0.00    +0.000 C 
ATOM     19  C   UNL     1      46.845   0.692   7.371  0.00  0.00    +0.000 C 
ATOM     20  O   UNL     1      47.902   1.259   6.599  0.00  0.00    +0.000 OA
ATOM     21  C   UNL     1      47.469   2.393   5.848  0.00  0.00    +0.000 C 
ATOM     22  C   UNL     1      46.989   3.506   6.772  0.00  0.00    +0.000 C 
ENDBRANCH  16  17
ENDBRANCH  14  16
ENDBRANCH   1  14
TORSDOF 5
ENDMDL
MODEL 5
REMARK VINA RESULT:    -6.487      2.283      5.961
REMARK INTER + INTRA:          -9.159
REMARK INTER:                  -8.270
REMARK INTRA:                  -0.889
REMARK UNBOUND:                -0.775
REMARK  Name = 
REMARK  6 active torsions:
REMARK  status: ('A' for Active; 'I' for Inactive)
REMARK    1  A    between atoms: C_1  and  C_2
REMARK    2  A    between atoms: C_2  and  C_3
REMARK    3  A    between atoms: C_2  and  C_14
REMARK    4  A    between atoms: C_3  and  N_4
REMARK    5  A    between atoms: N_4  and  C_5
REMARK    6  A    between atoms: C_8  and  C_9
REMARK                            x       y       z     vdW  Elec       q    Type
REMARK                         _______ _______ _______ _____ _____    ______ ____
ROOT
ATOM      1  N   UNL     1      43.613   5.345  12.385  0.00  0.00    +0.000 N 
ATOM      2  H   UNL     1      43.321   4.601  13.012  0.00  0.00    +0.000 HD
ENDROOT
BRANCH   1   3
ATOM      3  C   UNL     1      44.927   5.766  12.678  0.00  0.00    +0.000 A 
ATOM      4  C   UNL     1      45.772   5.062  13.546  0.00  0.00    +0.000 A 
ATOM      5  C   UNL     1      47.078   5.490  13.802  0.00  0.00    +0.000 A 
ATOM      6  C   UNL     1      47.593   6.608  13.149  0.00  0.00    +0.000 A 
ATOM      7  C   UNL     1      46.790   7.289  12.228  0.00  0.00    +0.000 A 
ATOM      8  C   UNL     1      45.476   6.856  11.985  0.00  0.00    +0.000 A 
BRANCH   6   9
ATOM      9  C   UNL     1      48.979   7.023  13.486  0.00  0.00    +0.000 C 
ATOM     10  N   UNL     1      49.652   7.788  12.576  0.00  0.00    +0.000 N 
ATOM     11  O   UNL     1      49.526   6.661  14.521  0.00  0.00    +0.000 OA
ATOM     12  H   UNL     1      49.346   7.881  11.619  0.00  0.00    +0.000 HD
ATOM     13  H   UNL     1      50.634   7.939  12.774  0.00  0.00    +0.000 HD
ENDBRANCH   6   9
ENDBRANCH   1   3
BRANCH   1  14
ATOM     14  C   UNL     1      43.347   5.010  10.993  0.00  0.00    +0.000 C 
BRANCH  14  16
ATOM     15  C   UNL     1      43.405   2.622  11.763  0.00  0.00    +0.000 C 
ATOM     16  C   UNL     1      43.752   3.600  10.669  0.00  0.00    +0.000 C 
BRANCH  16  17
ATOM     17  C   UNL     1      44.964   3.319   9.798  0.00  0.00    +0.000 C 
ATOM     18  C   UNL     1      45.179   4.391   8.717  0.00  0.00    +0.000 C 
ATOM     19  C   UNL     1      46.357   4.031   7.824  0.00  0.00    +0.000 C 
ATOM     20  O   UNL     1      46.162   2.745   7.238  0.00  0.00    +0.000 OA
ATOM     21  C   UNL     1      46.092   1.712   8.221  0.00  0.00    +0.000 C 
ATOM     22  C   UNL     1      44.904   1.927   9.151  0.00  0.00    +0.000 C 
ENDBRANCH  16  17
ENDBRANCH  14  16
ENDBRANCH   1  14
TORSDOF 5
ENDMDL
MODEL 6
REMARK VINA RESULT:    -6.424      2.426      5.886
REMARK INTER + INTRA:          -9.077
REMARK INTER:                  -8.154
REMARK INTRA:                  -0.923
REMARK UNBOUND:                -0.775
REMARK  Name = 
REMARK  6 active torsions:
REMARK  status: ('A' for Active; 'I' for Inactive)
REMARK    1  A    between atoms: C_1  and  C_2
REMARK    2  A    between atoms: C_2  and  C_3
REMARK    3  A    between atoms: C_2  and  C_14
REMARK    4  A    between atoms: C_3  and  N_4
REMARK    5  A    between atoms: N_4  and  C_5
REMARK    6  A    between atoms: C_8  and  C_9
REMARK                            x       y       z     vdW  Elec       q    Type
REMARK                         _______ _______ _______ _____ _____    ______ ____
ROOT
ATOM      1  N   UNL     1      43.788   5.191  12.657  0.00  0.00    +0.000 N 
ATOM      2  H   UNL     1      43.657   4.432  13.320  0.00  0.00    +0.000 HD
ENDROOT
BRANCH   1   3
ATOM      3  C   UNL     1      45.122   5.649  12.669  0.00  0.00    +0.000 A 
ATOM      4  C   UNL     1      45.576   6.681  11.838  0.00  0.00    +0.000 A 
ATOM      5  C   UNL     1      46.898   7.131  11.886  0.00  0.00    +0.000 A 
ATOM      6  C   UNL     1      47.792   6.592  12.810  0.00  0.00    +0.000 A 
ATOM      7  C   UNL     1      47.344   5.607  13.696  0.00  0.00    +0.000 A 
ATOM      8  C   UNL     1      46.015   5.156  13.633  0.00  0.00    +0.000 A 
BRANCH   6   9
ATOM      9  C   UNL     1      49.189   7.098  12.791  0.00  0.00    +0.000 C 
ATOM     10  N   UNL     1      49.846   7.194  13.984  0.00  0.00    +0.000 N 
ATOM     11  O   UNL     1      49.728   7.459  11.751  0.00  0.00    +0.000 OA
ATOM     12  H   UNL     1      49.363   7.163  14.870  0.00  0.00    +0.000 HD
ATOM     13  H   UNL     1      50.742   7.665  13.953  0.00  0.00    +0.000 HD
ENDBRANCH   6   9
ENDBRANCH   1   3
BRANCH   1  14
ATOM     14  C   UNL     1      43.240   4.860  11.349  0.00  0.00    +0.000 C 
BRANCH  14  16
ATOM     15  C   UNL     1      43.386   2.419  11.914  0.00  0.00    +0.000 C 
ATOM     16  C   UNL     1      43.665   3.492  10.893  0.00  0.00    +0.000 C 
BRANCH  16  17
ATOM     17  C   UNL     1      44.848   3.318   9.957  0.00  0.00    +0.000 C 
ATOM     18  C   UNL     1      44.966   4.458   8.932  0.00  0.00    +0.000 C 
ATOM     19  C   UNL     1      46.118   4.203   7.970  0.00  0.00    +0.000 C 
ATOM     20  O   UNL     1      45.952   2.945   7.318  0.00  0.00    +0.000 OA
ATOM     21  C   UNL     1      45.971   1.856   8.241  0.00  0.00    +0.000 C 
ATOM     22  C   UNL     1      44.819   1.963   9.232  0.00  0.00    +0.000 C 
ENDBRANCH  16  17
ENDBRANCH  14  16
ENDBRANCH   1  14
TORSDOF 5
ENDMDL
MODEL 7
REMARK VINA RESULT:    -5.778      2.870      6.574
REMARK INTER + INTRA:          -8.242
REMARK INTER:                  -7.649
REMARK INTRA:                  -0.593
REMARK UNBOUND:                -0.775
REMARK  Name = 
REMARK  6 active torsions:
REMARK  status: ('A' for Active; 'I' for Inactive)
REMARK    1  A    between atoms: C_1  and  C_2
REMARK    2  A    between atoms: C_2  and  C_3
REMARK    3  A    between atoms: C_2  and  C_14
REMARK    4  A    between atoms: C_3  and  N_4
REMARK    5  A    between atoms: N_4  and  C_5
REMARK    6  A    between atoms: C_8  and  C_9
REMARK                            x       y       z     vdW  Elec       q    Type
REMARK                         _______ _______ _______ _____ _____    ______ ____
ROOT
ATOM      1  N   UNL     1      44.666   5.391  12.322  0.00  0.00    +0.000 N 
ATOM      2  H   UNL     1      45.184   4.552  12.566  0.00  0.00    +0.000 HD
ENDROOT
BRANCH   1   3
ATOM      3  C   UNL     1      45.517   6.514  12.267  0.00  0.00    +0.000 A 
ATOM      4  C   UNL     1      45.139   7.775  12.744  0.00  0.00    +0.000 A 
ATOM      5  C   UNL     1      46.010   8.867  12.698  0.00  0.00    +0.000 A 
ATOM      6  C   UNL     1      47.310   8.709  12.220  0.00  0.00    +0.000 A 
ATOM      7  C   UNL     1      47.733   7.444  11.800  0.00  0.00    +0.000 A 
ATOM      8  C   UNL     1      46.845   6.356  11.843  0.00  0.00    +0.000 A 
BRANCH   6   9
ATOM      9  C   UNL     1      48.177   9.916  12.175  0.00  0.00    +0.000 C 
ATOM     10  N   UNL     1      47.988  10.870  13.133  0.00  0.00    +0.000 N 
ATOM     11  O   UNL     1      49.006  10.079  11.287  0.00  0.00    +0.000 OA
ATOM     12  H   UNL     1      47.159  10.901  13.707  0.00  0.00    +0.000 HD
ATOM     13  H   UNL     1      48.498  11.734  12.996  0.00  0.00    +0.000 HD
ENDBRANCH   6   9
ENDBRANCH   1   3
BRANCH   1  14
ATOM     14  C   UNL     1      43.817   5.178  11.158  0.00  0.00    +0.000 C 
BRANCH  14  16
ATOM     15  C   UNL     1      43.338   2.751  11.586  0.00  0.00    +0.000 C 
ATOM     16  C   UNL     1      43.920   3.771  10.640  0.00  0.00    +0.000 C 
BRANCH  16  17
ATOM     17  C   UNL     1      45.071   3.356   9.740  0.00  0.00    +0.000 C 
ATOM     18  C   UNL     1      45.313   4.349   8.590  0.00  0.00    +0.000 C 
ATOM     19  C   UNL     1      46.423   3.855   7.674  0.00  0.00    +0.000 C 
ATOM     20  O   UNL     1      46.114   2.556   7.172  0.00  0.00    +0.000 OA
ATOM     21  C   UNL     1      46.015   1.587   8.215  0.00  0.00    +0.000 C 
ATOM     22  C   UNL     1      44.886   1.938   9.178  0.00  0.00    +0.000 C 
ENDBRANCH  16  17
ENDBRANCH  14  16
ENDBRANCH   1  14
TORSDOF 5
ENDMDL
MODEL 8
REMARK VINA RESULT:    -5.654      3.854      7.151
REMARK INTER + INTRA:          -8.082
REMARK INTER:                  -7.425
REMARK INTRA:                  -0.657
REMARK UNBOUND:                -0.775
REMARK  Name = 
REMARK  6 active torsions:
REMARK  status: ('A' for Active; 'I' for Inactive)
REMARK    1  A    between atoms: C_1  and  C_2
REMARK    2  A    between atoms: C_2  and  C_3
REMARK    3  A    between atoms: C_2  and  C_14
REMARK    4  A    between atoms: C_3  and  N_4
REMARK    5  A    between atoms: N_4  and  C_5
REMARK    6  A    between atoms: C_8  and  C_9
REMARK                            x       y       z     vdW  Elec       q    Type
REMARK                         _______ _______ _______ _____ _____    ______ ____
ROOT
ATOM      1  N   UNL     1      47.214   6.723  13.951  0.00  0.00    +0.000 N 
ATOM      2  H   UNL     1      46.244   6.974  14.124  0.00  0.00    +0.000 HD
ENDROOT
BRANCH   1   3
ATOM      3  C   UNL     1      47.687   5.826  14.931  0.00  0.00    +0.000 A 
ATOM      4  C   UNL     1      48.615   6.197  15.912  0.00  0.00    +0.000 A 
ATOM      5  C   UNL     1      49.051   5.294  16.886  0.00  0.00    +0.000 A 
ATOM      6  C   UNL     1      48.525   4.004  16.935  0.00  0.00    +0.000 A 
ATOM      7  C   UNL     1      47.548   3.631  16.006  0.00  0.00    +0.000 A 
ATOM      8  C   UNL     1      47.123   4.544  15.027  0.00  0.00    +0.000 A 
BRANCH   6   9
ATOM      9  C   UNL     1      49.050   3.086  17.979  0.00  0.00    +0.000 C 
ATOM     10  N   UNL     1      48.475   3.136  19.217  0.00  0.00    +0.000 N 
ATOM     11  O   UNL     1      49.995   2.337  17.761  0.00  0.00    +0.000 OA
ATOM     12  H   UNL     1      47.891   3.906  19.509  0.00  0.00    +0.000 HD
ATOM     13  H   UNL     1      48.941   2.599  19.937  0.00  0.00    +0.000 HD
ENDBRANCH   6   9
ENDBRANCH   1   3
BRANCH   1  14
ATOM     14  C   UNL     1      47.424   6.323  12.566  0.00  0.00    +0.000 C 
BRANCH  14  16
ATOM     15  C   UNL     1      45.269   7.426  11.903  0.00  0.00    +0.000 C 
ATOM     16  C   UNL     1      46.128   6.190  11.818  0.00  0.00    +0.000 C 
BRANCH  16  17
ATOM     17  C   UNL     1      45.448   4.839  11.676  0.00  0.00    +0.000 C 
ATOM     18  C   UNL     1      44.956   4.570  10.244  0.00  0.00    +0.000 C 
ATOM     19  C   UNL     1      44.218   3.242  10.166  0.00  0.00    +0.000 C 
ATOM     20  O   UNL     1      43.133   3.220  11.092  0.00  0.00    +0.000 OA
ATOM     21  C   UNL     1      43.578   3.336  12.443  0.00  0.00    +0.000 C 
ATOM     22  C   UNL     1      44.289   4.665  12.670  0.00  0.00    +0.000 C 
ENDBRANCH  16  17
ENDBRANCH  14  16
ENDBRANCH   1  14
TORSDOF 5
ENDMDL
MODEL 9
REMARK VINA RESULT:    -5.576      3.196      5.259
REMARK INTER + INTRA:          -7.981
REMARK INTER:                  -7.491
REMARK INTRA:                  -0.490
REMARK UNBOUND:                -0.775
REMARK  Name = 
REMARK  6 active torsions:
REMARK  status: ('A' for Active; 'I' for Inactive)
REMARK    1  A    between atoms: C_1  and  C_2
REMARK    2  A    between atoms: C_2  and  C_3
REMARK    3  A    between atoms: C_2  and  C_14
REMARK    4  A    between atoms: C_3  and  N_4
REMARK    5  A    between atoms: N_4  and  C_5
REMARK    6  A    between atoms: C_8  and  C_9
REMARK                            x       y       z     vdW  Elec       q    Type
REMARK                         _______ _______ _______ _____ _____    ______ ____
ROOT
ATOM      1  N   UNL     1      47.153   6.997  13.875  0.00  0.00    +0.000 N 
ATOM      2  H   UNL     1      47.244   7.966  13.580  0.00  0.00    +0.000 HD
ENDROOT
BRANCH   1   3
ATOM      3  C   UNL     1      46.409   6.251  12.939  0.00  0.00    +0.000 A 
ATOM      4  C   UNL     1      46.432   6.519  11.565  0.00  0.00    +0.000 A 
ATOM      5  C   UNL     1      45.702   5.749  10.656  0.00  0.00    +0.000 A 
ATOM      6  C   UNL     1      44.967   4.650  11.096  0.00  0.00    +0.000 A 
ATOM      7  C   UNL     1      44.980   4.322  12.456  0.00  0.00    +0.000 A 
ATOM      8  C   UNL     1      45.712   5.108  13.362  0.00  0.00    +0.000 A 
BRANCH   6   9
ATOM      9  C   UNL     1      44.192   3.889  10.082  0.00  0.00    +0.000 C 
ATOM     10  N   UNL     1      44.079   4.429   8.832  0.00  0.00    +0.000 N 
ATOM     11  O   UNL     1      43.633   2.834  10.357  0.00  0.00    +0.000 OA
ATOM     12  H   UNL     1      44.289   5.398   8.643  0.00  0.00    +0.000 HD
ATOM     13  H   UNL     1      43.437   3.956   8.209  0.00  0.00    +0.000 HD
ENDBRANCH   6   9
ENDBRANCH   1   3
BRANCH   1  14
ATOM     14  C   UNL     1      48.439   6.433  14.264  0.00  0.00    +0.000 C 
BRANCH  14  16
ATOM     15  C   UNL     1      49.915   7.641  15.894  0.00  0.00    +0.000 C 
ATOM     16  C   UNL     1      48.754   6.699  15.709  0.00  0.00    +0.000 C 
BRANCH  16  17
ATOM     17  C   UNL     1      48.498   5.640  16.768  0.00  0.00    +0.000 C 
ATOM     18  C   UNL     1      49.791   5.151  17.441  0.00  0.00    +0.000 C 
ATOM     19  C   UNL     1      49.494   4.041  18.439  0.00  0.00    +0.000 C 
ATOM     20  O   UNL     1      48.812   2.964  17.798  0.00  0.00    +0.000 OA
ATOM     21  C   UNL     1      47.545   3.366  17.278  0.00  0.00    +0.000 C 
ATOM     22  C   UNL     1      47.710   4.443  16.213  0.00  0.00    +0.000 C 
ENDBRANCH  16  17
ENDBRANCH  14  16
ENDBRANCH   1  14
TORSDOF 5
ENDMDL
