MODEL 1
REMARK VINA RESULT:    -9.482      0.000      0.000
REMARK INTER + INTRA:         -13.840
REMARK INTER:                 -12.808
REMARK INTRA:                  -1.032
REMARK UNBOUND:                -1.032
REMARK  Name = 
REMARK  6 active torsions:
REMARK  status: ('A' for Active; 'I' for Inactive)
REMARK    1  A    between atoms: C_2  and  C_4
REMARK    2  A    between atoms: C_7  and  O_8
REMARK    3  A    between atoms: O_8  and  C_9
REMARK    4  A    between atoms: C_9  and  C_10
REMARK    5  A    between atoms: C_10  and  C_13
REMARK    6  A    between atoms: C_17  and  C_18
REMARK                            x       y       z     vdW  Elec       q    Type
REMARK                         _______ _______ _______ _____ _____    ______ ____
ROOT
ATOM      1  C   UNL     1      43.552   5.338  12.153  0.00  0.00    +0.000 C 
ATOM      2  F   UNL     1      43.010   6.493  11.661  0.00  0.00    +0.000 F 
ATOM      3  F   UNL     1      42.826   5.041  13.270  0.00  0.00    +0.000 F 
ENDROOT
BRANCH   1   4
ATOM      4  C   UNL     1      45.032   5.499  12.457  0.00  0.00    +0.000 A 
ATOM      5  C   UNL     1      45.835   6.348  11.685  0.00  0.00    +0.000 A 
ATOM      6  C   UNL     1      47.168   6.555  12.029  0.00  0.00    +0.000 A 
ATOM      7  C   UNL     1      47.705   5.929  13.157  0.00  0.00    +0.000 A 
ATOM      8  C   UNL     1      46.933   5.073  13.962  0.00  0.00    +0.000 A 
ATOM      9  C   UNL     1      45.595   4.860  13.579  0.00  0.00    +0.000 A 
BRANCH   8  10
ATOM     10  C   UNL     1      47.494   4.482  15.195  0.00  0.00    +0.000 A 
ATOM     11  C   UNL     1      47.886   5.244  16.297  0.00  0.00    +0.000 A 
ATOM     12  C   UNL     1      48.473   4.612  17.392  0.00  0.00    +0.000 A 
ATOM     13  C   UNL     1      48.651   3.235  17.368  0.00  0.00    +0.000 A 
ATOM     14  C   UNL     1      48.224   2.545  16.250  0.00  0.00    +0.000 A 
ATOM     15  N   UNL     1      47.651   3.132  15.177  0.00  0.00    +0.000 NA
ENDBRANCH   8  10
ENDBRANCH   1   4
BRANCH   1  16
ATOM     16  C   UNL     1      43.365   4.220  11.119  0.00  0.00    +0.000 C 
BRANCH  16  17
ATOM     17  O   UNL     1      43.604   4.687   9.780  0.00  0.00    +0.000 OA
BRANCH  17  21
ATOM     18  C   UNL     1      46.317   2.269   7.837  0.00  0.00    +0.000 A 
ATOM     19  C   UNL     1      45.463   1.717   8.793  0.00  0.00    +0.000 A 
ATOM     20  C   UNL     1      44.546   2.546   9.448  0.00  0.00    +0.000 A 
ATOM     21  C   UNL     1      44.519   3.892   9.119  0.00  0.00    +0.000 A 
ATOM     22  N   UNL     1      45.338   4.450   8.201  0.00  0.00    +0.000 NA
ATOM     23  C   UNL     1      46.226   3.631   7.590  0.00  0.00    +0.000 A 
BRANCH  18  25
ATOM     24  N   UNL     1      48.399   2.170   6.588  0.00  0.00    +0.000 N 
ATOM     25  C   UNL     1      47.327   1.490   7.093  0.00  0.00    +0.000 C 
ATOM     26  O   UNL     1      47.234   0.276   6.970  0.00  0.00    +0.000 OA
ATOM     27  H   UNL     1      49.135   1.602   6.185  0.00  0.00    +0.000 HD
ATOM     28  H   UNL     1      48.644   3.102   6.889  0.00  0.00    +0.000 HD
ENDBRANCH  18  25
ENDBRANCH  17  21
ENDBRANCH  16  17
ENDBRANCH   1  16
TORSDOF 6
ENDMDL
MODEL 2
REMARK VINA RESULT:    -9.094      2.063      3.664
REMARK INTER + INTRA:         -13.316
REMARK INTER:                 -12.195
REMARK INTRA:                  -1.121
REMARK UNBOUND:                -1.032
REMARK  Name = 
REMARK  6 active torsions:
REMARK  status: ('A' for Active; 'I' for Inactive)
REMARK    1  A    between atoms: C_2  and  C_4
REMARK    2  A    between atoms: C_7  and  O_8
REMARK    3  A    between atoms: O_8  and  C_9
REMARK    4  A    between atoms: C_9  and  C_10
REMARK    5  A    between atoms: C_10  and  C_13
REMARK    6  A    between atoms: C_17  and  C_18
REMARK                            x       y       z     vdW  Elec       q    Type
REMARK                         _______ _______ _______ _____ _____    ______ ____
ROOT
ATOM      1  C   UNL     1      43.376   5.258  12.199  0.00  0.00    +0.000 C 
ATOM      2  F   UNL     1      42.829   6.394  11.671  0.00  0.00    +0.000 F 
ATOM      3  F   UNL     1      42.568   4.914  13.243  0.00  0.00    +0.000 F 
ENDROOT
BRANCH   1   4
ATOM      4  C   UNL     1      44.816   5.479  12.634  0.00  0.00    +0.000 A 
ATOM      5  C   UNL     1      45.531   4.467  13.286  0.00  0.00    +0.000 A 
ATOM      6  C   UNL     1      46.875   4.650  13.599  0.00  0.00    +0.000 A 
ATOM      7  C   UNL     1      47.520   5.838  13.247  0.00  0.00    +0.000 A 
ATOM      8  C   UNL     1      46.841   6.878  12.587  0.00  0.00    +0.000 A 
ATOM      9  C   UNL     1      45.476   6.678  12.304  0.00  0.00    +0.000 A 
BRANCH   8  10
ATOM     10  C   UNL     1      47.558   8.094  12.151  0.00  0.00    +0.000 A 
ATOM     11  C   UNL     1      48.904   8.097  11.784  0.00  0.00    +0.000 A 
ATOM     12  C   UNL     1      49.521   9.303  11.455  0.00  0.00    +0.000 A 
ATOM     13  C   UNL     1      48.782  10.478  11.493  0.00  0.00    +0.000 A 
ATOM     14  C   UNL     1      47.450  10.395  11.849  0.00  0.00    +0.000 A 
ATOM     15  N   UNL     1      46.828   9.240  12.171  0.00  0.00    +0.000 NA
ENDBRANCH   8  10
ENDBRANCH   1   4
BRANCH   1  16
ATOM     16  C   UNL     1      43.332   4.146  11.141  0.00  0.00    +0.000 C 
BRANCH  16  17
ATOM     17  O   UNL     1      43.548   4.663   9.816  0.00  0.00    +0.000 OA
BRANCH  17  21
ATOM     18  C   UNL     1      46.376   2.439   7.807  0.00  0.00    +0.000 A 
ATOM     19  C   UNL     1      45.475   1.800   8.660  0.00  0.00    +0.000 A 
ATOM     20  C   UNL     1      44.519   2.563   9.338  0.00  0.00    +0.000 A 
ATOM     21  C   UNL     1      44.502   3.934   9.135  0.00  0.00    +0.000 A 
ATOM     22  N   UNL     1      45.366   4.576   8.318  0.00  0.00    +0.000 NA
ATOM     23  C   UNL     1      46.290   3.818   7.682  0.00  0.00    +0.000 A 
BRANCH  18  25
ATOM     24  N   UNL     1      48.407   2.494   6.475  0.00  0.00    +0.000 N 
ATOM     25  C   UNL     1      47.429   1.733   7.049  0.00  0.00    +0.000 C 
ATOM     26  O   UNL     1      47.452   0.512   6.974  0.00  0.00    +0.000 OA
ATOM     27  H   UNL     1      49.180   1.985   6.062  0.00  0.00    +0.000 HD
ATOM     28  H   UNL     1      48.570   3.457   6.732  0.00  0.00    +0.000 HD
ENDBRANCH  18  25
ENDBRANCH  17  21
ENDBRANCH  16  17
ENDBRANCH   1  16
TORSDOF 6
ENDMDL
MODEL 3
REMARK VINA RESULT:    -8.722      1.607      2.003
REMARK INTER + INTRA:         -12.814
REMARK INTER:                 -11.659
REMARK INTRA:                  -1.155
REMARK UNBOUND:                -1.032
REMARK  Name = 
REMARK  6 active torsions:
REMARK  status: ('A' for Active; 'I' for Inactive)
REMARK    1  A    between atoms: C_2  and  C_4
REMARK    2  A    between atoms: C_7  and  O_8
REMARK    3  A    between atoms: O_8  and  C_9
REMARK    4  A    between atoms: C_9  and  C_10
REMARK    5  A    between atoms: C_10  and  C_13
REMARK    6  A    between atoms: C_17  and  C_18
REMARK                            x       y       z     vdW  Elec       q    Type
REMARK                         _______ _______ _______ _____ _____    ______ ____
ROOT
ATOM      1  C   UNL     1      44.549   3.940  12.323  0.00  0.00    +0.000 C 
ATOM      2  F   UNL     1      43.648   4.071  13.343  0.00  0.00    +0.000 F 
ATOM      3  F   UNL     1      45.008   2.658  12.404  0.00  0.00    +0.000 F 
ENDROOT
BRANCH   1   4
ATOM      4  C   UNL     1      45.670   4.960  12.431  0.00  0.00    +0.000 A 
ATOM      5  C   UNL     1      45.845   5.940  11.447  0.00  0.00    +0.000 A 
ATOM      6  C   UNL     1      46.819   6.923  11.603  0.00  0.00    +0.000 A 
ATOM      7  C   UNL     1      47.614   6.944  12.753  0.00  0.00    +0.000 A 
ATOM      8  C   UNL     1      47.468   5.982  13.768  0.00  0.00    +0.000 A 
ATOM      9  C   UNL     1      46.493   4.985  13.574  0.00  0.00    +0.000 A 
BRANCH   8  10
ATOM     10  C   UNL     1      48.261   6.066  15.011  0.00  0.00    +0.000 A 
ATOM     11  C   UNL     1      49.202   7.069  15.251  0.00  0.00    +0.000 A 
ATOM     12  C   UNL     1      49.958   7.032  16.421  0.00  0.00    +0.000 A 
ATOM     13  C   UNL     1      49.757   6.001  17.329  0.00  0.00    +0.000 A 
ATOM     14  C   UNL     1      48.797   5.053  17.032  0.00  0.00    +0.000 A 
ATOM     15  N   UNL     1      48.049   5.067  15.907  0.00  0.00    +0.000 NA
ENDBRANCH   8  10
ENDBRANCH   1   4
BRANCH   1  16
ATOM     16  C   UNL     1      43.819   4.129  10.986  0.00  0.00    +0.000 C 
BRANCH  16  17
ATOM     17  O   UNL     1      43.689   2.888  10.270  0.00  0.00    +0.000 OA
BRANCH  17  21
ATOM     18  C   UNL     1      46.552   2.578   7.322  0.00  0.00    +0.000 A 
ATOM     19  C   UNL     1      45.932   3.806   7.553  0.00  0.00    +0.000 A 
ATOM     20  C   UNL     1      44.961   3.902   8.555  0.00  0.00    +0.000 A 
ATOM     21  C   UNL     1      44.650   2.766   9.287  0.00  0.00    +0.000 A 
ATOM     22  N   UNL     1      45.234   1.565   9.078  0.00  0.00    +0.000 NA
ATOM     23  C   UNL     1      46.161   1.494   8.095  0.00  0.00    +0.000 A 
BRANCH  18  25
ATOM     24  N   UNL     1      47.407   2.987   5.085  0.00  0.00    +0.000 N 
ATOM     25  C   UNL     1      47.582   2.362   6.286  0.00  0.00    +0.000 C 
ATOM     26  O   UNL     1      48.577   1.684   6.506  0.00  0.00    +0.000 OA
ATOM     27  H   UNL     1      48.179   2.922   4.433  0.00  0.00    +0.000 HD
ATOM     28  H   UNL     1      46.755   3.749   4.957  0.00  0.00    +0.000 HD
ENDBRANCH  18  25
ENDBRANCH  17  21
ENDBRANCH  16  17
ENDBRANCH   1  16
TORSDOF 6
ENDMDL
MODEL 4
REMARK VINA RESULT:    -7.835      2.517      7.171
REMARK INTER + INTRA:         -11.615
REMARK INTER:                 -10.362
REMARK INTRA:                  -1.253
REMARK UNBOUND:                -1.032
REMARK  Name = 
REMARK  6 active torsions:
REMARK  status: ('A' for Active; 'I' for Inactive)
REMARK    1  A    between atoms: C_2  and  C_4
REMARK    2  A    between atoms: C_7  and  O_8
REMARK    3  A    between atoms: O_8  and  C_9
REMARK    4  A    between atoms: C_9  and  C_10
REMARK    5  A    between atoms: C_10  and  C_13
REMARK    6  A    between atoms: C_17  and  C_18
REMARK                            x       y       z     vdW  Elec       q    Type
REMARK                         _______ _______ _______ _____ _____    ______ ____
ROOT
ATOM      1  C   UNL     1      44.446   6.599  11.440  0.00  0.00    +0.000 C 
ATOM      2  F   UNL     1      43.198   7.148  11.526  0.00  0.00    +0.000 F 
ATOM      3  F   UNL     1      45.103   7.332  10.495  0.00  0.00    +0.000 F 
ENDROOT
BRANCH   1   4
ATOM      4  C   UNL     1      44.386   5.123  11.083  0.00  0.00    +0.000 A 
ATOM      5  C   UNL     1      43.489   4.264  11.731  0.00  0.00    +0.000 A 
ATOM      6  C   UNL     1      43.381   2.935  11.333  0.00  0.00    +0.000 A 
ATOM      7  C   UNL     1      44.155   2.457  10.272  0.00  0.00    +0.000 A 
ATOM      8  C   UNL     1      45.063   3.286   9.591  0.00  0.00    +0.000 A 
ATOM      9  C   UNL     1      45.173   4.619  10.029  0.00  0.00    +0.000 A 
BRANCH   8  10
ATOM     10  C   UNL     1      45.815   2.786   8.421  0.00  0.00    +0.000 A 
ATOM     11  C   UNL     1      46.086   3.567   7.296  0.00  0.00    +0.000 A 
ATOM     12  C   UNL     1      46.739   2.994   6.207  0.00  0.00    +0.000 A 
ATOM     13  C   UNL     1      47.112   1.658   6.262  0.00  0.00    +0.000 A 
ATOM     14  C   UNL     1      46.824   0.952   7.414  0.00  0.00    +0.000 A 
ATOM     15  N   UNL     1      46.195   1.483   8.485  0.00  0.00    +0.000 NA
ENDBRANCH   8  10
ENDBRANCH   1   4
BRANCH   1  16
ATOM     16  C   UNL     1      45.158   6.765  12.790  0.00  0.00    +0.000 C 
BRANCH  16  17
ATOM     17  O   UNL     1      46.566   6.486  12.687  0.00  0.00    +0.000 OA
BRANCH  17  21
ATOM     18  C   UNL     1      47.861   4.131  15.811  0.00  0.00    +0.000 A 
ATOM     19  C   UNL     1      47.049   3.577  14.821  0.00  0.00    +0.000 A 
ATOM     20  C   UNL     1      46.613   4.384  13.765  0.00  0.00    +0.000 A 
ATOM     21  C   UNL     1      47.009   5.712  13.741  0.00  0.00    +0.000 A 
ATOM     22  N   UNL     1      47.791   6.273  14.690  0.00  0.00    +0.000 NA
ATOM     23  C   UNL     1      48.190   5.475  15.708  0.00  0.00    +0.000 A 
BRANCH  18  25
ATOM     24  N   UNL     1      47.470   3.030  17.942  0.00  0.00    +0.000 N 
ATOM     25  C   UNL     1      48.370   3.375  16.973  0.00  0.00    +0.000 C 
ATOM     26  O   UNL     1      49.542   3.031  17.048  0.00  0.00    +0.000 OA
ATOM     27  H   UNL     1      47.815   2.413  18.668  0.00  0.00    +0.000 HD
ATOM     28  H   UNL     1      46.472   3.060  17.794  0.00  0.00    +0.000 HD
ENDBRANCH  18  25
ENDBRANCH  17  21
ENDBRANCH  16  17
ENDBRANCH   1  16
TORSDOF 6
ENDMDL
MODEL 5
REMARK VINA RESULT:    -7.785      2.329      2.924
REMARK INTER + INTRA:         -11.548
REMARK INTER:                 -10.693
REMARK INTRA:                  -0.854
REMARK UNBOUND:                -1.032
REMARK  Name = 
REMARK  6 active torsions:
REMARK  status: ('A' for Active; 'I' for Inactive)
REMARK    1  A    between atoms: C_2  and  C_4
REMARK    2  A    between atoms: C_7  and  O_8
REMARK    3  A    between atoms: O_8  and  C_9
REMARK    4  A    between atoms: C_9  and  C_10
REMARK    5  A    between atoms: C_10  and  C_13
REMARK    6  A    between atoms: C_17  and  C_18
REMARK                            x       y       z     vdW  Elec       q    Type
REMARK                         _______ _______ _______ _____ _____    ______ ____
ROOT
ATOM      1  C   UNL     1      44.556   5.244  12.003  0.00  0.00    +0.000 C 
ATOM      2  F   UNL     1      43.645   5.161  13.018  0.00  0.00    +0.000 F 
ATOM      3  F   UNL     1      45.349   4.141  12.133  0.00  0.00    +0.000 F 
ENDROOT
BRANCH   1   4
ATOM      4  C   UNL     1      45.354   6.536  12.070  0.00  0.00    +0.000 A 
ATOM      5  C   UNL     1      44.785   7.751  11.670  0.00  0.00    +0.000 A 
ATOM      6  C   UNL     1      45.494   8.940  11.821  0.00  0.00    +0.000 A 
ATOM      7  C   UNL     1      46.771   8.925  12.389  0.00  0.00    +0.000 A 
ATOM      8  C   UNL     1      47.377   7.728  12.809  0.00  0.00    +0.000 A 
ATOM      9  C   UNL     1      46.649   6.537  12.623  0.00  0.00    +0.000 A 
BRANCH   8  10
ATOM     10  C   UNL     1      48.693   7.740  13.481  0.00  0.00    +0.000 A 
ATOM     11  C   UNL     1      48.939   7.090  14.691  0.00  0.00    +0.000 A 
ATOM     12  C   UNL     1      50.191   7.213  15.291  0.00  0.00    +0.000 A 
ATOM     13  C   UNL     1      51.171   7.975  14.671  0.00  0.00    +0.000 A 
ATOM     14  C   UNL     1      50.861   8.576  13.466  0.00  0.00    +0.000 A 
ATOM     15  N   UNL     1      49.657   8.472  12.862  0.00  0.00    +0.000 NA
ENDBRANCH   8  10
ENDBRANCH   1   4
BRANCH   1  16
ATOM     16  C   UNL     1      43.815   5.175  10.661  0.00  0.00    +0.000 C 
BRANCH  16  17
ATOM     17  O   UNL     1      43.614   3.816  10.233  0.00  0.00    +0.000 OA
BRANCH  17  21
ATOM     18  C   UNL     1      46.429   2.612   7.475  0.00  0.00    +0.000 A 
ATOM     19  C   UNL     1      45.893   1.679   8.363  0.00  0.00    +0.000 A 
ATOM     20  C   UNL     1      44.939   2.097   9.296  0.00  0.00    +0.000 A 
ATOM     21  C   UNL     1      44.558   3.430   9.303  0.00  0.00    +0.000 A 
ATOM     22  N   UNL     1      45.067   4.352   8.456  0.00  0.00    +0.000 NA
ATOM     23  C   UNL     1      45.997   3.927   7.570  0.00  0.00    +0.000 A 
BRANCH  18  25
ATOM     24  N   UNL     1      47.435   3.007   5.298  0.00  0.00    +0.000 N 
ATOM     25  C   UNL     1      47.447   2.283   6.457  0.00  0.00    +0.000 C 
ATOM     26  O   UNL     1      48.296   1.425   6.657  0.00  0.00    +0.000 OA
ATOM     27  H   UNL     1      48.211   2.846   4.667  0.00  0.00    +0.000 HD
ATOM     28  H   UNL     1      46.935   3.880   5.206  0.00  0.00    +0.000 HD
ENDBRANCH  18  25
ENDBRANCH  17  21
ENDBRANCH  16  17
ENDBRANCH   1  16
TORSDOF 6
ENDMDL
MODEL 6
REMARK VINA RESULT:    -7.044      3.936      6.465
REMARK INTER + INTRA:         -10.547
REMARK INTER:                  -9.672
REMARK INTRA:                  -0.875
REMARK UNBOUND:                -1.032
REMARK  Name = 
REMARK  6 active torsions:
REMARK  status: ('A' for Active; 'I' for Inactive)
REMARK    1  A    between atoms: C_2  and  C_4
REMARK    2  A    between atoms: C_7  and  O_8
REMARK    3  A    between atoms: O_8  and  C_9
REMARK    4  A    between atoms: C_9  and  C_10
REMARK    5  A    between atoms: C_10  and  C_13
REMARK    6  A    between atoms: C_17  and  C_18
REMARK                            x       y       z     vdW  Elec       q    Type
REMARK                         _______ _______ _______ _____ _____    ______ ____
ROOT
ATOM      1  C   UNL     1      47.974   3.146  16.731  0.00  0.00    +0.000 C 
ATOM      2  F   UNL     1      47.141   2.604  17.670  0.00  0.00    +0.000 F 
ATOM      3  F   UNL     1      48.159   2.166  15.799  0.00  0.00    +0.000 F 
ENDROOT
BRANCH   1   4
ATOM      4  C   UNL     1      49.284   3.611  17.345  0.00  0.00    +0.000 A 
ATOM      5  C   UNL     1      49.377   4.856  17.979  0.00  0.00    +0.000 A 
ATOM      6  C   UNL     1      50.558   5.231  18.615  0.00  0.00    +0.000 A 
ATOM      7  C   UNL     1      51.648   4.357  18.638  0.00  0.00    +0.000 A 
ATOM      8  C   UNL     1      51.596   3.096  18.018  0.00  0.00    +0.000 A 
ATOM      9  C   UNL     1      50.400   2.751  17.360  0.00  0.00    +0.000 A 
BRANCH   8  10
ATOM     10  C   UNL     1      52.729   2.154  18.121  0.00  0.00    +0.000 A 
ATOM     11  C   UNL     1      52.761   0.923  17.463  0.00  0.00    +0.000 A 
ATOM     12  C   UNL     1      53.838   0.063  17.671  0.00  0.00    +0.000 A 
ATOM     13  C   UNL     1      54.861   0.449  18.526  0.00  0.00    +0.000 A 
ATOM     14  C   UNL     1      54.769   1.689  19.130  0.00  0.00    +0.000 A 
ATOM     15  N   UNL     1      53.739   2.542  18.943  0.00  0.00    +0.000 NA
ENDBRANCH   8  10
ENDBRANCH   1   4
BRANCH   1  16
ATOM     16  C   UNL     1      47.271   4.341  16.072  0.00  0.00    +0.000 C 
BRANCH  16  17
ATOM     17  O   UNL     1      47.800   4.613  14.762  0.00  0.00    +0.000 OA
BRANCH  17  21
ATOM     18  C   UNL     1      44.891   4.368  11.853  0.00  0.00    +0.000 A 
ATOM     19  C   UNL     1      45.371   5.619  12.244  0.00  0.00    +0.000 A 
ATOM     20  C   UNL     1      46.358   5.692  13.232  0.00  0.00    +0.000 A 
ATOM     21  C   UNL     1      46.825   4.512  13.789  0.00  0.00    +0.000 A 
ATOM     22  N   UNL     1      46.373   3.290  13.431  0.00  0.00    +0.000 NA
ATOM     23  C   UNL     1      45.409   3.245  12.481  0.00  0.00    +0.000 A 
BRANCH  18  25
ATOM     24  N   UNL     1      43.994   4.842   9.645  0.00  0.00    +0.000 N 
ATOM     25  C   UNL     1      43.845   4.175  10.828  0.00  0.00    +0.000 C 
ATOM     26  O   UNL     1      42.904   3.415  11.010  0.00  0.00    +0.000 OA
ATOM     27  H   UNL     1      43.333   4.605   8.915  0.00  0.00    +0.000 HD
ATOM     28  H   UNL     1      44.870   5.257   9.360  0.00  0.00    +0.000 HD
ENDBRANCH  18  25
ENDBRANCH  17  21
ENDBRANCH  16  17
ENDBRANCH   1  16
TORSDOF 6
ENDMDL
MODEL 7
REMARK VINA RESULT:    -7.020      3.491      7.398
REMARK INTER + INTRA:         -10.514
REMARK INTER:                  -9.716
REMARK INTRA:                  -0.798
REMARK UNBOUND:                -1.032
REMARK  Name = 
REMARK  6 active torsions:
REMARK  status: ('A' for Active; 'I' for Inactive)
REMARK    1  A    between atoms: C_2  and  C_4
REMARK    2  A    between atoms: C_7  and  O_8
REMARK    3  A    between atoms: O_8  and  C_9
REMARK    4  A    between atoms: C_9  and  C_10
REMARK    5  A    between atoms: C_10  and  C_13
REMARK    6  A    between atoms: C_17  and  C_18
REMARK                            x       y       z     vdW  Elec       q    Type
REMARK                         _______ _______ _______ _____ _____    ______ ____
ROOT
ATOM      1  C   UNL     1      44.652   6.309  11.926  0.00  0.00    +0.000 C 
ATOM      2  F   UNL     1      44.209   6.422  13.214  0.00  0.00    +0.000 F 
ATOM      3  F   UNL     1      43.928   7.216  11.209  0.00  0.00    +0.000 F 
ENDROOT
BRANCH   1   4
ATOM      4  C   UNL     1      44.485   4.893  11.398  0.00  0.00    +0.000 A 
ATOM      5  C   UNL     1      43.505   4.043  11.925  0.00  0.00    +0.000 A 
ATOM      6  C   UNL     1      43.302   2.781  11.372  0.00  0.00    +0.000 A 
ATOM      7  C   UNL     1      44.064   2.367  10.277  0.00  0.00    +0.000 A 
ATOM      8  C   UNL     1      45.054   3.191   9.714  0.00  0.00    +0.000 A 
ATOM      9  C   UNL     1      45.258   4.451  10.307  0.00  0.00    +0.000 A 
BRANCH   8  10
ATOM     10  C   UNL     1      45.796   2.768   8.508  0.00  0.00    +0.000 A 
ATOM     11  C   UNL     1      46.007   3.604   7.409  0.00  0.00    +0.000 A 
ATOM     12  C   UNL     1      46.655   3.101   6.283  0.00  0.00    +0.000 A 
ATOM     13  C   UNL     1      47.083   1.781   6.275  0.00  0.00    +0.000 A 
ATOM     14  C   UNL     1      46.853   1.018   7.405  0.00  0.00    +0.000 A 
ATOM     15  N   UNL     1      46.230   1.481   8.510  0.00  0.00    +0.000 NA
ENDBRANCH   8  10
ENDBRANCH   1   4
BRANCH   1  16
ATOM     16  C   UNL     1      46.137   6.697  11.874  0.00  0.00    +0.000 C 
BRANCH  16  17
ATOM     17  O   UNL     1      46.558   7.355  13.082  0.00  0.00    +0.000 OA
BRANCH  17  21
ATOM     18  C   UNL     1      50.540   8.398  12.891  0.00  0.00    +0.000 A 
ATOM     19  C   UNL     1      49.698   8.692  11.817  0.00  0.00    +0.000 A 
ATOM     20  C   UNL     1      48.349   8.334  11.891  0.00  0.00    +0.000 A 
ATOM     21  C   UNL     1      47.894   7.697  13.035  0.00  0.00    +0.000 A 
ATOM     22  N   UNL     1      48.691   7.397  14.085  0.00  0.00    +0.000 NA
ATOM     23  C   UNL     1      49.996   7.743  13.986  0.00  0.00    +0.000 A 
BRANCH  18  25
ATOM     24  N   UNL     1      52.838   7.822  12.352  0.00  0.00    +0.000 N 
ATOM     25  C   UNL     1      51.980   8.723  12.916  0.00  0.00    +0.000 C 
ATOM     26  O   UNL     1      52.389   9.777  13.385  0.00  0.00    +0.000 OA
ATOM     27  H   UNL     1      53.804   8.117  12.275  0.00  0.00    +0.000 HD
ATOM     28  H   UNL     1      52.527   7.087  11.733  0.00  0.00    +0.000 HD
ENDBRANCH  18  25
ENDBRANCH  17  21
ENDBRANCH  16  17
ENDBRANCH   1  16
TORSDOF 6
ENDMDL
MODEL 8
REMARK VINA RESULT:    -6.968      3.906      7.615
REMARK INTER + INTRA:         -10.444
REMARK INTER:                  -9.403
REMARK INTRA:                  -1.041
REMARK UNBOUND:                -1.032
REMARK  Name = 
REMARK  6 active torsions:
REMARK  status: ('A' for Active; 'I' for Inactive)
REMARK    1  A    between atoms: C_2  and  C_4
REMARK    2  A    between atoms: C_7  and  O_8
REMARK    3  A    between atoms: O_8  and  C_9
REMARK    4  A    between atoms: C_9  and  C_10
REMARK    5  A    between atoms: C_10  and  C_13
REMARK    6  A    between atoms: C_17  and  C_18
REMARK                            x       y       z     vdW  Elec       q    Type
REMARK                         _______ _______ _______ _____ _____    ______ ____
ROOT
ATOM      1  C   UNL     1      48.737   8.346  12.532  0.00  0.00    +0.000 C 
ATOM      2  F   UNL     1      49.123   9.536  11.981  0.00  0.00    +0.000 F 
ATOM      3  F   UNL     1      49.608   7.417  12.042  0.00  0.00    +0.000 F 
ENDROOT
BRANCH   1   4
ATOM      4  C   UNL     1      47.293   8.014  12.195  0.00  0.00    +0.000 A 
ATOM      5  C   UNL     1      46.287   8.980  12.320  0.00  0.00    +0.000 A 
ATOM      6  C   UNL     1      44.984   8.690  11.922  0.00  0.00    +0.000 A 
ATOM      7  C   UNL     1      44.681   7.439  11.379  0.00  0.00    +0.000 A 
ATOM      8  C   UNL     1      45.661   6.442  11.230  0.00  0.00    +0.000 A 
ATOM      9  C   UNL     1      46.965   6.751  11.664  0.00  0.00    +0.000 A 
BRANCH   8  10
ATOM     10  C   UNL     1      45.341   5.154  10.581  0.00  0.00    +0.000 A 
ATOM     11  C   UNL     1      45.410   4.956   9.202  0.00  0.00    +0.000 A 
ATOM     12  C   UNL     1      45.021   3.730   8.666  0.00  0.00    +0.000 A 
ATOM     13  C   UNL     1      44.575   2.726   9.516  0.00  0.00    +0.000 A 
ATOM     14  C   UNL     1      44.549   2.990  10.872  0.00  0.00    +0.000 A 
ATOM     15  N   UNL     1      44.923   4.167  11.417  0.00  0.00    +0.000 NA
ENDBRANCH   8  10
ENDBRANCH   1   4
BRANCH   1  16
ATOM     16  C   UNL     1      48.895   8.429  14.057  0.00  0.00    +0.000 C 
BRANCH  16  17
ATOM     17  O   UNL     1      49.883   7.501  14.540  0.00  0.00    +0.000 OA
BRANCH  17  21
ATOM     18  C   UNL     1      48.230   4.592  16.946  0.00  0.00    +0.000 A 
ATOM     19  C   UNL     1      49.288   5.365  17.427  0.00  0.00    +0.000 A 
ATOM     20  C   UNL     1      49.843   6.349  16.603  0.00  0.00    +0.000 A 
ATOM     21  C   UNL     1      49.317   6.522  15.332  0.00  0.00    +0.000 A 
ATOM     22  N   UNL     1      48.297   5.784  14.843  0.00  0.00    +0.000 NA
ATOM     23  C   UNL     1      47.784   4.829  15.654  0.00  0.00    +0.000 A 
BRANCH  18  25
ATOM     24  N   UNL     1      48.196   3.110  18.872  0.00  0.00    +0.000 N 
ATOM     25  C   UNL     1      47.576   3.522  17.726  0.00  0.00    +0.000 C 
ATOM     26  O   UNL     1      46.499   3.051  17.386  0.00  0.00    +0.000 OA
ATOM     27  H   UNL     1      47.675   2.462  19.450  0.00  0.00    +0.000 HD
ATOM     28  H   UNL     1      48.928   3.644  19.318  0.00  0.00    +0.000 HD
ENDBRANCH  18  25
ENDBRANCH  17  21
ENDBRANCH  16  17
ENDBRANCH   1  16
TORSDOF 6
ENDMDL
