MODEL 1
REMARK VINA RESULT:    -8.013      0.000      0.000
REMARK INTER + INTRA:          -9.920
REMARK INTER:                  -9.418
REMARK INTRA:                  -0.502
REMARK UNBOUND:                -0.502
REMARK  Name = 
REMARK  3 active torsions:
REMARK  status: ('A' for Active; 'I' for Inactive)
REMARK    1  A    between atoms: C_3  and  N_4
REMARK    2  A    between atoms: N_4  and  C_5
REMARK    3  A    between atoms: C_5  and  C_6
REMARK                            x       y       z     vdW  Elec       q    Type
REMARK                         _______ _______ _______ _____ _____    ______ ____
ROOT
ATOM      1  C   UNL     1      44.182   6.085  11.358  0.00  0.00    +0.000 A 
ATOM      2  C   UNL     1      43.832   4.844  10.853  0.00  0.00    +0.000 A 
ATOM      3  C   UNL     1      44.520   3.710  11.272  0.00  0.00    +0.000 A 
ATOM      4  N   UNL     1      45.529   3.790  12.175  0.00  0.00    +0.000 NA
ATOM      5  C   UNL     1      45.903   5.007  12.650  0.00  0.00    +0.000 A 
ATOM      6  N   UNL     1      46.901   5.113  13.602  0.00  0.00    +0.000 N 
ATOM      7  C   UNL     1      47.238   3.974  14.451  0.00  0.00    +0.000 C 
ATOM      8  C   UNL     1      47.570   4.522  15.867  0.00  0.00    +0.000 C 
ATOM      9  N   UNL     1      48.636   5.556  15.883  0.00  0.00    +0.000 NA
ATOM     10  C   UNL     1      48.276   6.640  14.940  0.00  0.00    +0.000 C 
ATOM     11  C   UNL     1      47.940   6.141  13.515  0.00  0.00    +0.000 C 
ATOM     12  C   UNL     1      45.231   6.160  12.256  0.00  0.00    +0.000 A 
ATOM     13  H   UNL     1      49.494   5.119  15.546  0.00  0.00    +0.000 HD
ENDROOT
BRANCH   3  14
ATOM     14  N   UNL     1      44.208   2.455  10.796  0.00  0.00    +0.000 N 
ATOM     15  H   UNL     1      43.997   1.772  11.512  0.00  0.00    +0.000 HD
BRANCH  14  16
ATOM     16  C   UNL     1      44.218   2.108   9.387  0.00  0.00    +0.000 C 
BRANCH  16  17
ATOM     17  C   UNL     1      45.570   2.395   8.708  0.00  0.00    +0.000 C 
ATOM     18  C   UNL     1      45.455   3.496   7.643  0.00  0.00    +0.000 C 
ATOM     19  C   UNL     1      46.778   3.718   6.912  0.00  0.00    +0.000 C 
ATOM     20  C   UNL     1      47.311   2.427   6.297  0.00  0.00    +0.000 C 
ATOM     21  C   UNL     1      47.426   1.320   7.337  0.00  0.00    +0.000 C 
ATOM     22  C   UNL     1      46.106   1.097   8.068  0.00  0.00    +0.000 C 
ENDBRANCH  16  17
ENDBRANCH  14  16
ENDBRANCH   3  14
TORSDOF 3
ENDMDL
MODEL 2
REMARK VINA RESULT:    -7.669      2.026      2.521
REMARK INTER + INTRA:          -9.516
REMARK INTER:                  -9.141
REMARK INTRA:                  -0.376
REMARK UNBOUND:                -0.502
REMARK  Name = 
REMARK  3 active torsions:
REMARK  status: ('A' for Active; 'I' for Inactive)
REMARK    1  A    between atoms: C_3  and  N_4
REMARK    2  A    between atoms: N_4  and  C_5
REMARK    3  A    between atoms: C_5  and  C_6
REMARK                            x       y       z     vdW  Elec       q    Type
REMARK                         _______ _______ _______ _____ _____    ______ ____
ROOT
ATOM      1  C   UNL     1      43.297   4.561  13.060  0.00  0.00    +0.000 A 
ATOM      2  C   UNL     1      43.247   3.822  11.891  0.00  0.00    +0.000 A 
ATOM      3  C   UNL     1      44.135   4.103  10.858  0.00  0.00    +0.000 A 
ATOM      4  N   UNL     1      45.061   5.088  10.973  0.00  0.00    +0.000 NA
ATOM      5  C   UNL     1      45.096   5.842  12.103  0.00  0.00    +0.000 A 
ATOM      6  N   UNL     1      46.057   6.825  12.262  0.00  0.00    +0.000 N 
ATOM      7  C   UNL     1      47.300   6.775  11.499  0.00  0.00    +0.000 C 
ATOM      8  C   UNL     1      48.444   7.275  12.424  0.00  0.00    +0.000 C 
ATOM      9  N   UNL     1      48.207   8.621  13.006  0.00  0.00    +0.000 NA
ATOM     10  C   UNL     1      46.895   8.630  13.693  0.00  0.00    +0.000 C 
ATOM     11  C   UNL     1      45.725   8.142  12.807  0.00  0.00    +0.000 C 
ATOM     12  C   UNL     1      44.226   5.581  13.156  0.00  0.00    +0.000 A 
ATOM     13  H   UNL     1      48.163   9.287  12.236  0.00  0.00    +0.000 HD
ENDROOT
BRANCH   3  14
ATOM     14  N   UNL     1      44.121   3.395   9.676  0.00  0.00    +0.000 N 
ATOM     15  H   UNL     1      43.797   2.440   9.760  0.00  0.00    +0.000 HD
BRANCH  14  16
ATOM     16  C   UNL     1      44.573   3.941   8.410  0.00  0.00    +0.000 C 
BRANCH  16  17
ATOM     17  C   UNL     1      45.363   2.925   7.566  0.00  0.00    +0.000 C 
ATOM     18  C   UNL     1      45.967   1.807   8.428  0.00  0.00    +0.000 C 
ATOM     19  C   UNL     1      46.821   0.850   7.599  0.00  0.00    +0.000 C 
ATOM     20  C   UNL     1      47.915   1.586   6.830  0.00  0.00    +0.000 C 
ATOM     21  C   UNL     1      47.337   2.704   5.972  0.00  0.00    +0.000 C 
ATOM     22  C   UNL     1      46.483   3.661   6.799  0.00  0.00    +0.000 C 
ENDBRANCH  16  17
ENDBRANCH  14  16
ENDBRANCH   3  14
TORSDOF 3
ENDMDL
MODEL 3
REMARK VINA RESULT:    -6.792      2.082      2.939
REMARK INTER + INTRA:          -8.485
REMARK INTER:                  -8.036
REMARK INTRA:                  -0.449
REMARK UNBOUND:                -0.502
REMARK  Name = 
REMARK  3 active torsions:
REMARK  status: ('A' for Active; 'I' for Inactive)
REMARK    1  A    between atoms: C_3  and  N_4
REMARK    2  A    between atoms: N_4  and  C_5
REMARK    3  A    between atoms: C_5  and  C_6
REMARK                            x       y       z     vdW  Elec       q    Type
REMARK                         _______ _______ _______ _____ _____    ______ ____
ROOT
ATOM      1  C   UNL     1      46.088   4.611  13.809  0.00  0.00    +0.000 A 
ATOM      2  C   UNL     1      45.183   4.629  12.761  0.00  0.00    +0.000 A 
ATOM      3  C   UNL     1      45.360   5.525  11.712  0.00  0.00    +0.000 A 
ATOM      4  N   UNL     1      46.409   6.385  11.688  0.00  0.00    +0.000 NA
ATOM      5  C   UNL     1      47.284   6.399  12.728  0.00  0.00    +0.000 A 
ATOM      6  N   UNL     1      48.384   7.237  12.709  0.00  0.00    +0.000 N 
ATOM      7  C   UNL     1      48.901   7.751  11.444  0.00  0.00    +0.000 C 
ATOM      8  C   UNL     1      50.451   7.790  11.547  0.00  0.00    +0.000 C 
ATOM      9  N   UNL     1      50.962   8.564  12.708  0.00  0.00    +0.000 NA
ATOM     10  C   UNL     1      50.338   8.050  13.948  0.00  0.00    +0.000 C 
ATOM     11  C   UNL     1      48.793   7.996  13.892  0.00  0.00    +0.000 C 
ATOM     12  C   UNL     1      47.138   5.510  13.789  0.00  0.00    +0.000 A 
ATOM     13  H   UNL     1      50.668   9.532  12.586  0.00  0.00    +0.000 HD
ENDROOT
BRANCH   3  14
ATOM     14  N   UNL     1      44.484   5.580  10.650  0.00  0.00    +0.000 N 
ATOM     15  H   UNL     1      44.089   6.495  10.475  0.00  0.00    +0.000 HD
BRANCH  14  16
ATOM     16  C   UNL     1      44.110   4.422   9.860  0.00  0.00    +0.000 C 
BRANCH  16  17
ATOM     17  C   UNL     1      45.320   3.705   9.235  0.00  0.00    +0.000 C 
ATOM     18  C   UNL     1      45.795   4.395   7.947  0.00  0.00    +0.000 C 
ATOM     19  C   UNL     1      46.941   3.632   7.284  0.00  0.00    +0.000 C 
ATOM     20  C   UNL     1      46.570   2.177   7.010  0.00  0.00    +0.000 C 
ATOM     21  C   UNL     1      46.091   1.477   8.274  0.00  0.00    +0.000 C 
ATOM     22  C   UNL     1      44.947   2.237   8.938  0.00  0.00    +0.000 C 
ENDBRANCH  16  17
ENDBRANCH  14  16
ENDBRANCH   3  14
TORSDOF 3
ENDMDL
MODEL 4
REMARK VINA RESULT:    -6.274      2.302      7.489
REMARK INTER + INTRA:          -7.877
REMARK INTER:                  -7.439
REMARK INTRA:                  -0.438
REMARK UNBOUND:                -0.502
REMARK  Name = 
REMARK  3 active torsions:
REMARK  status: ('A' for Active; 'I' for Inactive)
REMARK    1  A    between atoms: C_3  and  N_4
REMARK    2  A    between atoms: N_4  and  C_5
REMARK    3  A    between atoms: C_5  and  C_6
REMARK                            x       y       z     vdW  Elec       q    Type
REMARK                         _______ _______ _______ _____ _____    ______ ____
ROOT
ATOM      1  C   UNL     1      47.700   6.282  13.660  0.00  0.00    +0.000 A 
ATOM      2  C   UNL     1      47.787   5.535  14.822  0.00  0.00    +0.000 A 
ATOM      3  C   UNL     1      46.992   4.404  14.975  0.00  0.00    +0.000 A 
ATOM      4  N   UNL     1      46.131   4.009  14.004  0.00  0.00    +0.000 NA
ATOM      5  C   UNL     1      46.014   4.755  12.874  0.00  0.00    +0.000 A 
ATOM      6  N   UNL     1      45.175   4.352  11.850  0.00  0.00    +0.000 N 
ATOM      7  C   UNL     1      44.779   2.953  11.725  0.00  0.00    +0.000 C 
ATOM      8  C   UNL     1      44.720   2.611  10.211  0.00  0.00    +0.000 C 
ATOM      9  N   UNL     1      43.837   3.507   9.420  0.00  0.00    +0.000 NA
ATOM     10  C   UNL     1      44.236   4.914   9.655  0.00  0.00    +0.000 C 
ATOM     11  C   UNL     1      44.305   5.300  11.152  0.00  0.00    +0.000 C 
ATOM     12  C   UNL     1      46.800   5.888  12.687  0.00  0.00    +0.000 A 
ATOM     13  H   UNL     1      42.887   3.388   9.768  0.00  0.00    +0.000 HD
ENDROOT
BRANCH   3  14
ATOM     14  N   UNL     1      47.043   3.631  16.115  0.00  0.00    +0.000 N 
ATOM     15  H   UNL     1      46.786   2.662  15.979  0.00  0.00    +0.000 HD
BRANCH  14  16
ATOM     16  C   UNL     1      47.390   4.155  17.423  0.00  0.00    +0.000 C 
BRANCH  16  17
ATOM     17  C   UNL     1      48.744   3.634  17.938  0.00  0.00    +0.000 C 
ATOM     18  C   UNL     1      49.791   4.754  18.036  0.00  0.00    +0.000 C 
ATOM     19  C   UNL     1      51.156   4.218  18.465  0.00  0.00    +0.000 C 
ATOM     20  C   UNL     1      51.644   3.105  17.542  0.00  0.00    +0.000 C 
ATOM     21  C   UNL     1      50.617   1.986  17.426  0.00  0.00    +0.000 C 
ATOM     22  C   UNL     1      49.252   2.519  16.999  0.00  0.00    +0.000 C 
ENDBRANCH  16  17
ENDBRANCH  14  16
ENDBRANCH   3  14
TORSDOF 3
ENDMDL
MODEL 5
REMARK VINA RESULT:    -6.105      1.577      3.171
REMARK INTER + INTRA:          -7.678
REMARK INTER:                  -7.248
REMARK INTRA:                  -0.431
REMARK UNBOUND:                -0.502
REMARK  Name = 
REMARK  3 active torsions:
REMARK  status: ('A' for Active; 'I' for Inactive)
REMARK    1  A    between atoms: C_3  and  N_4
REMARK    2  A    between atoms: N_4  and  C_5
REMARK    3  A    between atoms: C_5  and  C_6
REMARK                            x       y       z     vdW  Elec       q    Type
REMARK                         _______ _______ _______ _____ _____    ______ ____
ROOT
ATOM      1  C   UNL     1      47.837   7.079  13.067  0.00  0.00    +0.000 A 
ATOM      2  C   UNL     1      46.883   6.335  12.396  0.00  0.00    +0.000 A 
ATOM      3  C   UNL     1      46.333   5.210  13.002  0.00  0.00    +0.000 A 
ATOM      4  N   UNL     1      46.710   4.826  14.248  0.00  0.00    +0.000 NA
ATOM      5  C   UNL     1      47.671   5.530  14.901  0.00  0.00    +0.000 A 
ATOM      6  N   UNL     1      48.043   5.184  16.188  0.00  0.00    +0.000 N 
ATOM      7  C   UNL     1      47.141   4.413  17.037  0.00  0.00    +0.000 C 
ATOM      8  C   UNL     1      47.285   4.947  18.489  0.00  0.00    +0.000 C 
ATOM      9  N   UNL     1      48.677   4.931  19.006  0.00  0.00    +0.000 NA
ATOM     10  C   UNL     1      49.556   5.656  18.059  0.00  0.00    +0.000 C 
ATOM     11  C   UNL     1      49.448   5.154  16.600  0.00  0.00    +0.000 C 
ATOM     12  C   UNL     1      48.235   6.664  14.324  0.00  0.00    +0.000 A 
ATOM     13  H   UNL     1      48.983   3.959  19.036  0.00  0.00    +0.000 HD
ENDROOT
BRANCH   3  14
ATOM     14  N   UNL     1      45.382   4.438  12.372  0.00  0.00    +0.000 N 
ATOM     15  H   UNL     1      45.391   3.461  12.634  0.00  0.00    +0.000 HD
BRANCH  14  16
ATOM     16  C   UNL     1      44.461   4.955  11.377  0.00  0.00    +0.000 C 
BRANCH  16  17
ATOM     17  C   UNL     1      44.499   4.165  10.056  0.00  0.00    +0.000 C 
ATOM     18  C   UNL     1      44.737   2.666  10.290  0.00  0.00    +0.000 C 
ATOM     19  C   UNL     1      44.859   1.899   8.975  0.00  0.00    +0.000 C 
ATOM     20  C   UNL     1      45.946   2.483   8.076  0.00  0.00    +0.000 C 
ATOM     21  C   UNL     1      45.730   3.972   7.836  0.00  0.00    +0.000 C 
ATOM     22  C   UNL     1      45.608   4.740   9.149  0.00  0.00    +0.000 C 
ENDBRANCH  16  17
ENDBRANCH  14  16
ENDBRANCH   3  14
TORSDOF 3
ENDMDL
MODEL 6
REMARK VINA RESULT:    -5.866      2.836      7.321
REMARK INTER + INTRA:          -7.397
REMARK INTER:                  -7.106
REMARK INTRA:                  -0.291
REMARK UNBOUND:                -0.502
REMARK  Name = 
REMARK  3 active torsions:
REMARK  status: ('A' for Active; 'I' for Inactive)
REMARK    1  A    between atoms: C_3  and  N_4
REMARK    2  A    between atoms: N_4  and  C_5
REMARK    3  A    between atoms: C_5  and  C_6
REMARK                            x       y       z     vdW  Elec       q    Type
REMARK                         _______ _______ _______ _____ _____    ______ ____
ROOT
ATOM      1  C   UNL     1      46.476   8.535  12.708  0.00  0.00    +0.000 A 
ATOM      2  C   UNL     1      47.564   8.220  13.503  0.00  0.00    +0.000 A 
ATOM      3  C   UNL     1      47.712   6.926  13.990  0.00  0.00    +0.000 A 
ATOM      4  N   UNL     1      46.810   5.955  13.698  0.00  0.00    +0.000 NA
ATOM      5  C   UNL     1      45.720   6.262  12.946  0.00  0.00    +0.000 A 
ATOM      6  N   UNL     1      44.807   5.282  12.599  0.00  0.00    +0.000 N 
ATOM      7  C   UNL     1      45.196   3.875  12.599  0.00  0.00    +0.000 C 
ATOM      8  C   UNL     1      44.487   3.189  11.399  0.00  0.00    +0.000 C 
ATOM      9  N   UNL     1      43.011   3.353  11.393  0.00  0.00    +0.000 NA
ATOM     10  C   UNL     1      42.681   4.794  11.479  0.00  0.00    +0.000 C 
ATOM     11  C   UNL     1      43.364   5.519  12.663  0.00  0.00    +0.000 C 
ATOM     12  C   UNL     1      45.548   7.546  12.439  0.00  0.00    +0.000 A 
ATOM     13  H   UNL     1      42.646   2.897  12.228  0.00  0.00    +0.000 HD
ENDROOT
BRANCH   3  14
ATOM     14  N   UNL     1      48.778   6.567  14.786  0.00  0.00    +0.000 N 
ATOM     15  H   UNL     1      49.487   6.018  14.319  0.00  0.00    +0.000 HD
BRANCH  14  16
ATOM     16  C   UNL     1      48.873   6.901  16.196  0.00  0.00    +0.000 C 
BRANCH  16  17
ATOM     17  C   UNL     1      49.035   5.663  17.096  0.00  0.00    +0.000 C 
ATOM     18  C   UNL     1      50.475   5.129  17.086  0.00  0.00    +0.000 C 
ATOM     19  C   UNL     1      50.612   3.851  17.912  0.00  0.00    +0.000 C 
ATOM     20  C   UNL     1      49.635   2.772  17.454  0.00  0.00    +0.000 C 
ATOM     21  C   UNL     1      48.200   3.284  17.452  0.00  0.00    +0.000 C 
ATOM     22  C   UNL     1      48.061   4.561  16.628  0.00  0.00    +0.000 C 
ENDBRANCH  16  17
ENDBRANCH  14  16
ENDBRANCH   3  14
TORSDOF 3
ENDMDL
MODEL 7
REMARK VINA RESULT:    -5.864      2.215      6.690
REMARK INTER + INTRA:          -7.395
REMARK INTER:                  -6.914
REMARK INTRA:                  -0.481
REMARK UNBOUND:                -0.502
REMARK  Name = 
REMARK  3 active torsions:
REMARK  status: ('A' for Active; 'I' for Inactive)
REMARK    1  A    between atoms: C_3  and  N_4
REMARK    2  A    between atoms: N_4  and  C_5
REMARK    3  A    between atoms: C_5  and  C_6
REMARK                            x       y       z     vdW  Elec       q    Type
REMARK                         _______ _______ _______ _____ _____    ______ ____
ROOT
ATOM      1  C   UNL     1      43.758   2.560  10.502  0.00  0.00    +0.000 A 
ATOM      2  C   UNL     1      43.735   3.876  10.928  0.00  0.00    +0.000 A 
ATOM      3  C   UNL     1      44.572   4.811  10.327  0.00  0.00    +0.000 A 
ATOM      4  N   UNL     1      45.413   4.460   9.322  0.00  0.00    +0.000 NA
ATOM      5  C   UNL     1      45.467   3.163   8.919  0.00  0.00    +0.000 A 
ATOM      6  N   UNL     1      46.285   2.788   7.869  0.00  0.00    +0.000 N 
ATOM      7  C   UNL     1      46.725   3.771   6.884  0.00  0.00    +0.000 C 
ATOM      8  C   UNL     1      46.745   3.075   5.495  0.00  0.00    +0.000 C 
ATOM      9  N   UNL     1      47.570   1.841   5.448  0.00  0.00    +0.000 NA
ATOM     10  C   UNL     1      47.131   0.921   6.522  0.00  0.00    +0.000 C 
ATOM     11  C   UNL     1      47.099   1.572   7.926  0.00  0.00    +0.000 C 
ATOM     12  C   UNL     1      44.638   2.207   9.496  0.00  0.00    +0.000 A 
ATOM     13  H   UNL     1      48.535   2.108   5.638  0.00  0.00    +0.000 HD
ENDROOT
BRANCH   3  14
ATOM     14  N   UNL     1      44.586   6.132  10.719  0.00  0.00    +0.000 N 
ATOM     15  H   UNL     1      44.666   6.796   9.961  0.00  0.00    +0.000 HD
BRANCH  14  16
ATOM     16  C   UNL     1      44.534   6.556  12.106  0.00  0.00    +0.000 C 
BRANCH  16  17
ATOM     17  C   UNL     1      45.900   7.021  12.643  0.00  0.00    +0.000 C 
ATOM     18  C   UNL     1      46.850   7.439  11.511  0.00  0.00    +0.000 C 
ATOM     19  C   UNL     1      48.232   7.817  12.041  0.00  0.00    +0.000 C 
ATOM     20  C   UNL     1      48.847   6.695  12.874  0.00  0.00    +0.000 C 
ATOM     21  C   UNL     1      47.917   6.263  14.000  0.00  0.00    +0.000 C 
ATOM     22  C   UNL     1      46.535   5.884  13.472  0.00  0.00    +0.000 C 
ENDBRANCH  16  17
ENDBRANCH  14  16
ENDBRANCH   3  14
TORSDOF 3
ENDMDL
MODEL 8
REMARK VINA RESULT:    -5.788      3.483      6.259
REMARK INTER + INTRA:          -7.305
REMARK INTER:                  -7.015
REMARK INTRA:                  -0.290
REMARK UNBOUND:                -0.502
REMARK  Name = 
REMARK  3 active torsions:
REMARK  status: ('A' for Active; 'I' for Inactive)
REMARK    1  A    between atoms: C_3  and  N_4
REMARK    2  A    between atoms: N_4  and  C_5
REMARK    3  A    between atoms: C_5  and  C_6
REMARK                            x       y       z     vdW  Elec       q    Type
REMARK                         _______ _______ _______ _____ _____    ______ ____
ROOT
ATOM      1  C   UNL     1      47.688   2.915  17.461  0.00  0.00    +0.000 A 
ATOM      2  C   UNL     1      47.083   3.619  16.434  0.00  0.00    +0.000 A 
ATOM      3  C   UNL     1      47.701   4.754  15.920  0.00  0.00    +0.000 A 
ATOM      4  N   UNL     1      48.893   5.187  16.400  0.00  0.00    +0.000 NA
ATOM      5  C   UNL     1      49.479   4.523  17.430  0.00  0.00    +0.000 A 
ATOM      6  N   UNL     1      50.714   4.919  17.910  0.00  0.00    +0.000 N 
ATOM      7  C   UNL     1      51.617   5.703  17.074  0.00  0.00    +0.000 C 
ATOM      8  C   UNL     1      53.066   5.222  17.360  0.00  0.00    +0.000 C 
ATOM      9  N   UNL     1      53.452   5.280  18.793  0.00  0.00    +0.000 NA
ATOM     10  C   UNL     1      52.454   4.538  19.596  0.00  0.00    +0.000 C 
ATOM     11  C   UNL     1      50.995   4.987  19.346  0.00  0.00    +0.000 C 
ATOM     12  C   UNL     1      48.890   3.380  17.962  0.00  0.00    +0.000 A 
ATOM     13  H   UNL     1      53.423   6.257  19.080  0.00  0.00    +0.000 HD
ENDROOT
BRANCH   3  14
ATOM     14  N   UNL     1      47.135   5.488  14.900  0.00  0.00    +0.000 N 
ATOM     15  H   UNL     1      46.874   6.432  15.153  0.00  0.00    +0.000 HD
BRANCH  14  16
ATOM     16  C   UNL     1      46.885   4.955  13.573  0.00  0.00    +0.000 C 
BRANCH  16  17
ATOM     17  C   UNL     1      45.420   4.532  13.363  0.00  0.00    +0.000 C 
ATOM     18  C   UNL     1      45.290   3.399  12.334  0.00  0.00    +0.000 C 
ATOM     19  C   UNL     1      43.829   3.042  12.065  0.00  0.00    +0.000 C 
ATOM     20  C   UNL     1      43.017   4.259  11.631  0.00  0.00    +0.000 C 
ATOM     21  C   UNL     1      43.137   5.396  12.638  0.00  0.00    +0.000 C 
ATOM     22  C   UNL     1      44.596   5.755  12.908  0.00  0.00    +0.000 C 
ENDBRANCH  16  17
ENDBRANCH  14  16
ENDBRANCH   3  14
TORSDOF 3
ENDMDL
MODEL 9
REMARK VINA RESULT:    -5.595      3.115      8.174
REMARK INTER + INTRA:          -7.079
REMARK INTER:                  -6.737
REMARK INTRA:                  -0.342
REMARK UNBOUND:                -0.502
REMARK  Name = 
REMARK  3 active torsions:
REMARK  status: ('A' for Active; 'I' for Inactive)
REMARK    1  A    between atoms: C_3  and  N_4
REMARK    2  A    between atoms: N_4  and  C_5
REMARK    3  A    between atoms: C_5  and  C_6
REMARK                            x       y       z     vdW  Elec       q    Type
REMARK                         _______ _______ _______ _____ _____    ______ ____
ROOT
ATOM      1  C   UNL     1      48.123   7.402  11.887  0.00  0.00    +0.000 A 
ATOM      2  C   UNL     1      48.732   7.233  13.118  0.00  0.00    +0.000 A 
ATOM      3  C   UNL     1      48.121   6.444  14.087  0.00  0.00    +0.000 A 
ATOM      4  N   UNL     1      46.936   5.827  13.850  0.00  0.00    +0.000 NA
ATOM      5  C   UNL     1      46.314   6.014  12.656  0.00  0.00    +0.000 A 
ATOM      6  N   UNL     1      45.126   5.364  12.374  0.00  0.00    +0.000 N 
ATOM      7  C   UNL     1      44.761   4.145  13.090  0.00  0.00    +0.000 C 
ATOM      8  C   UNL     1      44.059   3.195  12.081  0.00  0.00    +0.000 C 
ATOM      9  N   UNL     1      42.891   3.800  11.390  0.00  0.00    +0.000 NA
ATOM     10  C   UNL     1      43.307   5.072  10.756  0.00  0.00    +0.000 C 
ATOM     11  C   UNL     1      44.008   6.052  11.726  0.00  0.00    +0.000 C 
ATOM     12  C   UNL     1      46.902   6.792  11.664  0.00  0.00    +0.000 A 
ATOM     13  H   UNL     1      42.192   4.016  12.099  0.00  0.00    +0.000 HD
ENDROOT
BRANCH   3  14
ATOM     14  N   UNL     1      48.688   6.249  15.328  0.00  0.00    +0.000 N 
ATOM     15  H   UNL     1      49.556   6.746  15.477  0.00  0.00    +0.000 HD
BRANCH  14  16
ATOM     16  C   UNL     1      48.126   5.369  16.336  0.00  0.00    +0.000 C 
BRANCH  16  17
ATOM     17  C   UNL     1      48.342   5.885  17.770  0.00  0.00    +0.000 C 
ATOM     18  C   UNL     1      47.162   5.537  18.690  0.00  0.00    +0.000 C 
ATOM     19  C   UNL     1      47.341   6.125  20.089  0.00  0.00    +0.000 C 
ATOM     20  C   UNL     1      47.562   7.634  20.046  0.00  0.00    +0.000 C 
ATOM     21  C   UNL     1      48.725   8.001  19.134  0.00  0.00    +0.000 C 
ATOM     22  C   UNL     1      48.549   7.415  17.736  0.00  0.00    +0.000 C 
ENDBRANCH  16  17
ENDBRANCH  14  16
ENDBRANCH   3  14
TORSDOF 3
ENDMDL
