MODEL 1
REMARK VINA RESULT:    -7.173      0.000      0.000
REMARK INTER + INTRA:          -9.724
REMARK INTER:                  -9.060
REMARK INTRA:                  -0.664
REMARK UNBOUND:                -0.664
REMARK  Name = 
REMARK  5 active torsions:
REMARK  status: ('A' for Active; 'I' for Inactive)
REMARK    1  A    between atoms: N_1  and  C_2
REMARK    2  A    between atoms: C_2  and  C_3
REMARK    3  A    between atoms: C_6  and  C_7
REMARK    4  A    between atoms: C_7  and  N_8
REMARK    5  A    between atoms: C_13  and  C_14
REMARK                            x       y       z     vdW  Elec       q    Type
REMARK                         _______ _______ _______ _____ _____    ______ ____
ROOT
ATOM      1  N   UNL     1      44.594   5.057  10.595  0.00  0.00    +0.000 N 
ATOM      2  C   UNL     1      43.827   4.092  11.210  0.00  0.00    +0.000 A 
ATOM      3  C   UNL     1      44.123   2.879  10.627  0.00  0.00    +0.000 A 
ATOM      4  C   UNL     1      44.995   3.131   9.545  0.00  0.00    +0.000 A 
ATOM      5  C   UNL     1      45.584   2.329   8.554  0.00  0.00    +0.000 A 
ATOM      6  C   UNL     1      46.356   2.955   7.576  0.00  0.00    +0.000 A 
ATOM      7  C   UNL     1      46.543   4.336   7.669  0.00  0.00    +0.000 A 
ATOM      8  N   UNL     1      46.032   5.156   8.630  0.00  0.00    +0.000 NA
ATOM      9  C   UNL     1      45.261   4.501   9.528  0.00  0.00    +0.000 A 
ENDROOT
BRANCH   6  10
ATOM     10  C   UNL     1      46.954   2.214   6.437  0.00  0.00    +0.000 C 
ATOM     11  N   UNL     1      47.315   2.920   5.318  0.00  0.00    +0.000 N 
ATOM     12  O   UNL     1      47.137   1.004   6.490  0.00  0.00    +0.000 OA
ATOM     13  H   UNL     1      47.233   3.916   5.200  0.00  0.00    +0.000 HD
ATOM     14  H   UNL     1      47.751   2.400   4.566  0.00  0.00    +0.000 HD
ENDBRANCH   6  10
BRANCH   1  15
ATOM     15  C   UNL     1      44.673   6.447  11.031  0.00  0.00    +0.000 C 
BRANCH  15  19
ATOM     16  C   UNL     1      47.710   8.498  12.181  0.00  0.00    +0.000 C 
ATOM     17  C   UNL     1      47.754   7.047  11.668  0.00  0.00    +0.000 C 
ATOM     18  C   UNL     1      46.805   6.130  12.437  0.00  0.00    +0.000 C 
ATOM     19  C   UNL     1      45.350   6.628  12.413  0.00  0.00    +0.000 C 
ATOM     20  C   UNL     1      45.286   8.089  12.899  0.00  0.00    +0.000 C 
ATOM     21  C   UNL     1      46.261   9.013  12.167  0.00  0.00    +0.000 C 
BRANCH  16  22
ATOM     22  C   UNL     1      48.351   8.651  13.578  0.00  0.00    +0.000 C 
BRANCH  22  23
ATOM     23  N   UNL     1      48.192  10.007  14.092  0.00  0.00    +0.000 NA
ATOM     24  H   UNL     1      48.689  10.103  14.976  0.00  0.00    +0.000 HD
ATOM     25  H   UNL     1      47.208  10.189  14.287  0.00  0.00    +0.000 HD
ENDBRANCH  22  23
ENDBRANCH  16  22
ENDBRANCH  15  19
ENDBRANCH   1  15
TORSDOF 5
ENDMDL
MODEL 2
REMARK VINA RESULT:    -5.901      4.673      6.140
REMARK INTER + INTRA:          -8.118
REMARK INTER:                  -7.675
REMARK INTRA:                  -0.443
REMARK UNBOUND:                -0.664
REMARK  Name = 
REMARK  5 active torsions:
REMARK  status: ('A' for Active; 'I' for Inactive)
REMARK    1  A    between atoms: N_1  and  C_2
REMARK    2  A    between atoms: C_2  and  C_3
REMARK    3  A    between atoms: C_6  and  C_7
REMARK    4  A    between atoms: C_7  and  N_8
REMARK    5  A    between atoms: C_13  and  C_14
REMARK                            x       y       z     vdW  Elec       q    Type
REMARK                         _______ _______ _______ _____ _____    ______ ____
ROOT
ATOM      1  N   UNL     1      47.421   5.320  14.587  0.00  0.00    +0.000 N 
ATOM      2  C   UNL     1      47.970   6.507  14.152  0.00  0.00    +0.000 A 
ATOM      3  C   UNL     1      47.378   6.833  12.951  0.00  0.00    +0.000 A 
ATOM      4  C   UNL     1      46.543   5.756  12.584  0.00  0.00    +0.000 A 
ATOM      5  C   UNL     1      45.744   5.472  11.465  0.00  0.00    +0.000 A 
ATOM      6  C   UNL     1      45.096   4.238  11.416  0.00  0.00    +0.000 A 
ATOM      7  C   UNL     1      45.237   3.377  12.506  0.00  0.00    +0.000 A 
ATOM      8  N   UNL     1      45.964   3.616  13.635  0.00  0.00    +0.000 NA
ATOM      9  C   UNL     1      46.600   4.809  13.609  0.00  0.00    +0.000 A 
ENDROOT
BRANCH   6  10
ATOM     10  C   UNL     1      44.295   3.803  10.244  0.00  0.00    +0.000 C 
ATOM     11  N   UNL     1      44.116   4.687   9.212  0.00  0.00    +0.000 N 
ATOM     12  O   UNL     1      43.812   2.678  10.185  0.00  0.00    +0.000 OA
ATOM     13  H   UNL     1      44.502   5.615   9.160  0.00  0.00    +0.000 HD
ATOM     14  H   UNL     1      43.594   4.358   8.409  0.00  0.00    +0.000 HD
ENDBRANCH   6  10
BRANCH   1  15
ATOM     15  C   UNL     1      47.685   4.722  15.891  0.00  0.00    +0.000 C 
BRANCH  15  19
ATOM     16  C   UNL     1      48.646   4.611  19.609  0.00  0.00    +0.000 C 
ATOM     17  C   UNL     1      47.590   5.542  18.986  0.00  0.00    +0.000 C 
ATOM     18  C   UNL     1      48.149   6.359  17.822  0.00  0.00    +0.000 C 
ATOM     19  C   UNL     1      48.757   5.478  16.718  0.00  0.00    +0.000 C 
ATOM     20  C   UNL     1      49.799   4.518  17.323  0.00  0.00    +0.000 C 
ATOM     21  C   UNL     1      49.267   3.723  18.517  0.00  0.00    +0.000 C 
BRANCH  16  22
ATOM     22  C   UNL     1      49.729   5.385  20.392  0.00  0.00    +0.000 C 
BRANCH  22  23
ATOM     23  N   UNL     1      50.770   4.490  20.889  0.00  0.00    +0.000 NA
ATOM     24  H   UNL     1      50.740   3.608  20.382  0.00  0.00    +0.000 HD
ATOM     25  H   UNL     1      50.595   4.271  21.870  0.00  0.00    +0.000 HD
ENDBRANCH  22  23
ENDBRANCH  16  22
ENDBRANCH  15  19
ENDBRANCH   1  15
TORSDOF 5
ENDMDL
MODEL 3
REMARK VINA RESULT:    -5.887      4.897      8.283
REMARK INTER + INTRA:          -8.100
REMARK INTER:                  -7.607
REMARK INTRA:                  -0.494
REMARK UNBOUND:                -0.664
REMARK  Name = 
REMARK  5 active torsions:
REMARK  status: ('A' for Active; 'I' for Inactive)
REMARK    1  A    between atoms: N_1  and  C_2
REMARK    2  A    between atoms: C_2  and  C_3
REMARK    3  A    between atoms: C_6  and  C_7
REMARK    4  A    between atoms: C_7  and  N_8
REMARK    5  A    between atoms: C_13  and  C_14
REMARK                            x       y       z     vdW  Elec       q    Type
REMARK                         _______ _______ _______ _____ _____    ______ ____
ROOT
ATOM      1  N   UNL     1      48.078   6.632  14.233  0.00  0.00    +0.000 N 
ATOM      2  C   UNL     1      48.473   7.938  14.424  0.00  0.00    +0.000 A 
ATOM      3  C   UNL     1      49.076   8.022  15.660  0.00  0.00    +0.000 A 
ATOM      4  C   UNL     1      48.930   6.767  16.289  0.00  0.00    +0.000 A 
ATOM      5  C   UNL     1      49.271   6.259  17.553  0.00  0.00    +0.000 A 
ATOM      6  C   UNL     1      48.895   4.952  17.858  0.00  0.00    +0.000 A 
ATOM      7  C   UNL     1      48.249   4.204  16.871  0.00  0.00    +0.000 A 
ATOM      8  N   UNL     1      47.932   4.631  15.615  0.00  0.00    +0.000 NA
ATOM      9  C   UNL     1      48.285   5.917  15.390  0.00  0.00    +0.000 A 
ENDROOT
BRANCH   6  10
ATOM     10  C   UNL     1      49.131   4.344  19.193  0.00  0.00    +0.000 C 
ATOM     11  N   UNL     1      48.413   3.227  19.536  0.00  0.00    +0.000 N 
ATOM     12  O   UNL     1      49.952   4.814  19.971  0.00  0.00    +0.000 OA
ATOM     13  H   UNL     1      47.744   2.755  18.950  0.00  0.00    +0.000 HD
ATOM     14  H   UNL     1      48.613   2.811  20.438  0.00  0.00    +0.000 HD
ENDBRANCH   6  10
BRANCH   1  15
ATOM     15  C   UNL     1      47.533   6.112  12.984  0.00  0.00    +0.000 C 
BRANCH  15  19
ATOM     16  C   UNL     1      44.943   4.198  10.889  0.00  0.00    +0.000 C 
ATOM     17  C   UNL     1      45.650   5.498  10.466  0.00  0.00    +0.000 C 
ATOM     18  C   UNL     1      45.489   6.610  11.501  0.00  0.00    +0.000 C 
ATOM     19  C   UNL     1      45.987   6.198  12.897  0.00  0.00    +0.000 C 
ATOM     20  C   UNL     1      45.312   4.883  13.330  0.00  0.00    +0.000 C 
ATOM     21  C   UNL     1      45.427   3.771  12.286  0.00  0.00    +0.000 C 
BRANCH  16  22
ATOM     22  C   UNL     1      43.404   4.317  10.837  0.00  0.00    +0.000 C 
BRANCH  22  23
ATOM     23  N   UNL     1      42.758   3.179  11.484  0.00  0.00    +0.000 NA
ATOM     24  H   UNL     1      41.889   3.477  11.922  0.00  0.00    +0.000 HD
ATOM     25  H   UNL     1      43.355   2.822  12.229  0.00  0.00    +0.000 HD
ENDBRANCH  22  23
ENDBRANCH  16  22
ENDBRANCH  15  19
ENDBRANCH   1  15
TORSDOF 5
ENDMDL
MODEL 4
REMARK VINA RESULT:    -5.590      6.082      8.282
REMARK INTER + INTRA:          -7.725
REMARK INTER:                  -7.214
REMARK INTRA:                  -0.511
REMARK UNBOUND:                -0.664
REMARK  Name = 
REMARK  5 active torsions:
REMARK  status: ('A' for Active; 'I' for Inactive)
REMARK    1  A    between atoms: N_1  and  C_2
REMARK    2  A    between atoms: C_2  and  C_3
REMARK    3  A    between atoms: C_6  and  C_7
REMARK    4  A    between atoms: C_7  and  N_8
REMARK    5  A    between atoms: C_13  and  C_14
REMARK                            x       y       z     vdW  Elec       q    Type
REMARK                         _______ _______ _______ _____ _____    ______ ____
ROOT
ATOM      1  N   UNL     1      47.991   4.614  16.373  0.00  0.00    +0.000 N 
ATOM      2  C   UNL     1      48.246   5.779  17.063  0.00  0.00    +0.000 A 
ATOM      3  C   UNL     1      49.487   5.662  17.650  0.00  0.00    +0.000 A 
ATOM      4  C   UNL     1      49.943   4.346  17.419  0.00  0.00    +0.000 A 
ATOM      5  C   UNL     1      51.079   3.619  17.810  0.00  0.00    +0.000 A 
ATOM      6  C   UNL     1      51.159   2.277  17.441  0.00  0.00    +0.000 A 
ATOM      7  C   UNL     1      50.130   1.746  16.660  0.00  0.00    +0.000 A 
ATOM      8  N   UNL     1      49.028   2.414  16.217  0.00  0.00    +0.000 NA
ATOM      9  C   UNL     1      48.984   3.699  16.637  0.00  0.00    +0.000 A 
ENDROOT
BRANCH   6  10
ATOM     10  C   UNL     1      52.274   1.396  17.872  0.00  0.00    +0.000 C 
ATOM     11  N   UNL     1      51.983   0.107  18.238  0.00  0.00    +0.000 N 
ATOM     12  O   UNL     1      53.431   1.798  17.892  0.00  0.00    +0.000 OA
ATOM     13  H   UNL     1      51.070  -0.316  18.221  0.00  0.00    +0.000 HD
ATOM     14  H   UNL     1      52.762  -0.485  18.497  0.00  0.00    +0.000 HD
ENDBRANCH   6  10
BRANCH   1  15
ATOM     15  C   UNL     1      46.841   4.409  15.499  0.00  0.00    +0.000 C 
BRANCH  15  19
ATOM     16  C   UNL     1      45.384   6.137  12.393  0.00  0.00    +0.000 C 
ATOM     17  C   UNL     1      44.915   4.788  12.969  0.00  0.00    +0.000 C 
ATOM     18  C   UNL     1      46.063   3.792  13.125  0.00  0.00    +0.000 C 
ATOM     19  C   UNL     1      47.207   4.339  13.995  0.00  0.00    +0.000 C 
ATOM     20  C   UNL     1      47.676   5.703  13.452  0.00  0.00    +0.000 C 
ATOM     21  C   UNL     1      46.532   6.699  13.249  0.00  0.00    +0.000 C 
BRANCH  16  22
ATOM     22  C   UNL     1      45.785   6.037  10.905  0.00  0.00    +0.000 C 
BRANCH  22  23
ATOM     23  N   UNL     1      44.735   5.407  10.110  0.00  0.00    +0.000 NA
ATOM     24  H   UNL     1      43.829   5.568  10.544  0.00  0.00    +0.000 HD
ATOM     25  H   UNL     1      44.877   4.397  10.093  0.00  0.00    +0.000 HD
ENDBRANCH  22  23
ENDBRANCH  16  22
ENDBRANCH  15  19
ENDBRANCH   1  15
TORSDOF 5
ENDMDL
MODEL 5
REMARK VINA RESULT:    -5.523      3.997      6.814
REMARK INTER + INTRA:          -7.640
REMARK INTER:                  -7.189
REMARK INTRA:                  -0.451
REMARK UNBOUND:                -0.664
REMARK  Name = 
REMARK  5 active torsions:
REMARK  status: ('A' for Active; 'I' for Inactive)
REMARK    1  A    between atoms: N_1  and  C_2
REMARK    2  A    between atoms: C_2  and  C_3
REMARK    3  A    between atoms: C_6  and  C_7
REMARK    4  A    between atoms: C_7  and  N_8
REMARK    5  A    between atoms: C_13  and  C_14
REMARK                            x       y       z     vdW  Elec       q    Type
REMARK                         _______ _______ _______ _____ _____    ______ ____
ROOT
ATOM      1  N   UNL     1      46.201   8.542  12.376  0.00  0.00    +0.000 N 
ATOM      2  C   UNL     1      45.816   9.849  12.169  0.00  0.00    +0.000 A 
ATOM      3  C   UNL     1      46.906  10.540  11.688  0.00  0.00    +0.000 A 
ATOM      4  C   UNL     1      48.013   9.666  11.725  0.00  0.00    +0.000 A 
ATOM      5  C   UNL     1      49.379   9.801  11.431  0.00  0.00    +0.000 A 
ATOM      6  C   UNL     1      50.213   8.708  11.662  0.00  0.00    +0.000 A 
ATOM      7  C   UNL     1      49.632   7.523  12.122  0.00  0.00    +0.000 A 
ATOM      8  N   UNL     1      48.310   7.322  12.383  0.00  0.00    +0.000 NA
ATOM      9  C   UNL     1      47.557   8.427  12.179  0.00  0.00    +0.000 A 
ENDROOT
BRANCH   6  10
ATOM     10  C   UNL     1      51.683   8.769  11.465  0.00  0.00    +0.000 C 
ATOM     11  N   UNL     1      52.470   7.875  12.145  0.00  0.00    +0.000 N 
ATOM     12  O   UNL     1      52.191   9.586  10.706  0.00  0.00    +0.000 OA
ATOM     13  H   UNL     1      52.138   7.151  12.761  0.00  0.00    +0.000 HD
ATOM     14  H   UNL     1      53.467   7.914  11.971  0.00  0.00    +0.000 HD
ENDBRANCH   6  10
BRANCH   1  15
ATOM     15  C   UNL     1      45.289   7.464  12.744  0.00  0.00    +0.000 C 
BRANCH  15  19
ATOM     16  C   UNL     1      43.813   3.922  12.551  0.00  0.00    +0.000 C 
ATOM     17  C   UNL     1      45.314   4.267  12.558  0.00  0.00    +0.000 C 
ATOM     18  C   UNL     1      45.685   5.267  11.464  0.00  0.00    +0.000 C 
ATOM     19  C   UNL     1      44.871   6.568  11.549  0.00  0.00    +0.000 C 
ATOM     20  C   UNL     1      43.364   6.246  11.571  0.00  0.00    +0.000 C 
ATOM     21  C   UNL     1      42.981   5.214  12.633  0.00  0.00    +0.000 C 
BRANCH  16  22
ATOM     22  C   UNL     1      43.408   3.066  11.331  0.00  0.00    +0.000 C 
BRANCH  22  23
ATOM     23  N   UNL     1      42.956   1.739  11.738  0.00  0.00    +0.000 NA
ATOM     24  H   UNL     1      43.322   1.037  11.097  0.00  0.00    +0.000 HD
ATOM     25  H   UNL     1      41.939   1.688  11.679  0.00  0.00    +0.000 HD
ENDBRANCH  22  23
ENDBRANCH  16  22
ENDBRANCH  15  19
ENDBRANCH   1  15
TORSDOF 5
ENDMDL
MODEL 6
REMARK VINA RESULT:    -5.326      2.905      4.508
REMARK INTER + INTRA:          -7.392
REMARK INTER:                  -6.856
REMARK INTRA:                  -0.536
REMARK UNBOUND:                -0.664
REMARK  Name = 
REMARK  5 active torsions:
REMARK  status: ('A' for Active; 'I' for Inactive)
REMARK    1  A    between atoms: N_1  and  C_2
REMARK    2  A    between atoms: C_2  and  C_3
REMARK    3  A    between atoms: C_6  and  C_7
REMARK    4  A    between atoms: C_7  and  N_8
REMARK    5  A    between atoms: C_13  and  C_14
REMARK                            x       y       z     vdW  Elec       q    Type
REMARK                         _______ _______ _______ _____ _____    ______ ____
ROOT
ATOM      1  N   UNL     1      47.543   6.293  13.867  0.00  0.00    +0.000 N 
ATOM      2  C   UNL     1      47.562   5.400  14.916  0.00  0.00    +0.000 A 
ATOM      3  C   UNL     1      46.878   4.270  14.524  0.00  0.00    +0.000 A 
ATOM      4  C   UNL     1      46.319   4.531  13.254  0.00  0.00    +0.000 A 
ATOM      5  C   UNL     1      45.484   3.813  12.384  0.00  0.00    +0.000 A 
ATOM      6  C   UNL     1      45.066   4.438  11.210  0.00  0.00    +0.000 A 
ATOM      7  C   UNL     1      45.544   5.722  10.941  0.00  0.00    +0.000 A 
ATOM      8  N   UNL     1      46.388   6.450  11.727  0.00  0.00    +0.000 NA
ATOM      9  C   UNL     1      46.728   5.810  12.869  0.00  0.00    +0.000 A 
ENDROOT
BRANCH   6  10
ATOM     10  C   UNL     1      44.117   3.802  10.261  0.00  0.00    +0.000 C 
ATOM     11  N   UNL     1      43.949   4.373   9.026  0.00  0.00    +0.000 N 
ATOM     12  O   UNL     1      43.504   2.784  10.560  0.00  0.00    +0.000 OA
ATOM     13  H   UNL     1      44.433   5.186   8.684  0.00  0.00    +0.000 HD
ATOM     14  H   UNL     1      43.321   3.904   8.384  0.00  0.00    +0.000 HD
ENDBRANCH   6  10
BRANCH   1  15
ATOM     15  C   UNL     1      48.285   7.548  13.841  0.00  0.00    +0.000 C 
BRANCH  15  19
ATOM     16  C   UNL     1      50.593  10.159  12.224  0.00  0.00    +0.000 C 
ATOM     17  C   UNL     1      49.489   9.369  11.498  0.00  0.00    +0.000 C 
ATOM     18  C   UNL     1      49.642   7.859  11.677  0.00  0.00    +0.000 C 
ATOM     19  C   UNL     1      49.671   7.438  13.155  0.00  0.00    +0.000 C 
ATOM     20  C   UNL     1      50.751   8.237  13.909  0.00  0.00    +0.000 C 
ATOM     21  C   UNL     1      50.638   9.749  13.706  0.00  0.00    +0.000 C 
BRANCH  16  22
ATOM     22  C   UNL     1      51.974  10.003  11.551  0.00  0.00    +0.000 C 
BRANCH  22  23
ATOM     23  N   UNL     1      51.915  10.328  10.129  0.00  0.00    +0.000 NA
ATOM     24  H   UNL     1      52.792  10.751   9.835  0.00  0.00    +0.000 HD
ATOM     25  H   UNL     1      51.185  11.020   9.965  0.00  0.00    +0.000 HD
ENDBRANCH  22  23
ENDBRANCH  16  22
ENDBRANCH  15  19
ENDBRANCH   1  15
TORSDOF 5
ENDMDL
MODEL 7
REMARK VINA RESULT:    -4.983      4.152      7.514
REMARK INTER + INTRA:          -6.958
REMARK INTER:                  -6.674
REMARK INTRA:                  -0.284
REMARK UNBOUND:                -0.664
REMARK  Name = 
REMARK  5 active torsions:
REMARK  status: ('A' for Active; 'I' for Inactive)
REMARK    1  A    between atoms: N_1  and  C_2
REMARK    2  A    between atoms: C_2  and  C_3
REMARK    3  A    between atoms: C_6  and  C_7
REMARK    4  A    between atoms: C_7  and  N_8
REMARK    5  A    between atoms: C_13  and  C_14
REMARK                            x       y       z     vdW  Elec       q    Type
REMARK                         _______ _______ _______ _____ _____    ______ ____
ROOT
ATOM      1  N   UNL     1      46.458   8.269  12.790  0.00  0.00    +0.000 N 
ATOM      2  C   UNL     1      46.413   9.479  12.132  0.00  0.00    +0.000 A 
ATOM      3  C   UNL     1      47.682  10.017  12.148  0.00  0.00    +0.000 A 
ATOM      4  C   UNL     1      48.489   9.176  12.944  0.00  0.00    +0.000 A 
ATOM      5  C   UNL     1      49.823   9.223  13.379  0.00  0.00    +0.000 A 
ATOM      6  C   UNL     1      50.269   8.222  14.240  0.00  0.00    +0.000 A 
ATOM      7  C   UNL     1      49.379   7.201  14.579  0.00  0.00    +0.000 A 
ATOM      8  N   UNL     1      48.089   7.081  14.155  0.00  0.00    +0.000 NA
ATOM      9  C   UNL     1      47.701   8.099  13.354  0.00  0.00    +0.000 A 
ENDROOT
BRANCH   6  10
ATOM     10  C   UNL     1      51.634   8.222  14.826  0.00  0.00    +0.000 C 
ATOM     11  N   UNL     1      52.105   7.060  15.382  0.00  0.00    +0.000 N 
ATOM     12  O   UNL     1      52.335   9.226  14.807  0.00  0.00    +0.000 OA
ATOM     13  H   UNL     1      51.613   6.182  15.412  0.00  0.00    +0.000 HD
ATOM     14  H   UNL     1      53.050   7.074  15.746  0.00  0.00    +0.000 HD
ENDBRANCH   6  10
BRANCH   1  15
ATOM     15  C   UNL     1      45.345   7.328  12.857  0.00  0.00    +0.000 C 
BRANCH  15  19
ATOM     16  C   UNL     1      43.353   4.420  11.330  0.00  0.00    +0.000 C 
ATOM     17  C   UNL     1      43.488   4.719  12.834  0.00  0.00    +0.000 C 
ATOM     18  C   UNL     1      44.946   4.821  13.278  0.00  0.00    +0.000 C 
ATOM     19  C   UNL     1      45.735   5.875  12.484  0.00  0.00    +0.000 C 
ATOM     20  C   UNL     1      45.592   5.611  10.972  0.00  0.00    +0.000 C 
ATOM     21  C   UNL     1      44.139   5.464  10.518  0.00  0.00    +0.000 C 
BRANCH  16  22
ATOM     22  C   UNL     1      43.787   2.982  10.971  0.00  0.00    +0.000 C 
BRANCH  22  23
ATOM     23  N   UNL     1      43.024   1.991  11.724  0.00  0.00    +0.000 NA
ATOM     24  H   UNL     1      43.186   2.115  12.721  0.00  0.00    +0.000 HD
ATOM     25  H   UNL     1      43.350   1.054  11.488  0.00  0.00    +0.000 HD
ENDBRANCH  22  23
ENDBRANCH  16  22
ENDBRANCH  15  19
ENDBRANCH   1  15
TORSDOF 5
ENDMDL
MODEL 8
REMARK VINA RESULT:    -4.982      4.121      6.542
REMARK INTER + INTRA:          -6.957
REMARK INTER:                  -6.388
REMARK INTRA:                  -0.570
REMARK UNBOUND:                -0.664
REMARK  Name = 
REMARK  5 active torsions:
REMARK  status: ('A' for Active; 'I' for Inactive)
REMARK    1  A    between atoms: N_1  and  C_2
REMARK    2  A    between atoms: C_2  and  C_3
REMARK    3  A    between atoms: C_6  and  C_7
REMARK    4  A    between atoms: C_7  and  N_8
REMARK    5  A    between atoms: C_13  and  C_14
REMARK                            x       y       z     vdW  Elec       q    Type
REMARK                         _______ _______ _______ _____ _____    ______ ____
ROOT
ATOM      1  N   UNL     1      48.426   7.353  13.919  0.00  0.00    +0.000 N 
ATOM      2  C   UNL     1      48.032   8.584  13.442  0.00  0.00    +0.000 A 
ATOM      3  C   UNL     1      46.714   8.486  13.052  0.00  0.00    +0.000 A 
ATOM      4  C   UNL     1      46.335   7.133  13.175  0.00  0.00    +0.000 A 
ATOM      5  C   UNL     1      45.168   6.410  12.879  0.00  0.00    +0.000 A 
ATOM      6  C   UNL     1      45.183   5.030  13.073  0.00  0.00    +0.000 A 
ATOM      7  C   UNL     1      46.339   4.451  13.600  0.00  0.00    +0.000 A 
ATOM      8  N   UNL     1      47.484   5.106  13.945  0.00  0.00    +0.000 NA
ATOM      9  C   UNL     1      47.426   6.435  13.699  0.00  0.00    +0.000 A 
ENDROOT
BRANCH   6  10
ATOM     10  C   UNL     1      44.033   4.161  12.714  0.00  0.00    +0.000 C 
ATOM     11  N   UNL     1      42.840   4.756  12.397  0.00  0.00    +0.000 N 
ATOM     12  O   UNL     1      44.142   2.941  12.686  0.00  0.00    +0.000 OA
ATOM     13  H   UNL     1      42.669   5.748  12.362  0.00  0.00    +0.000 HD
ATOM     14  H   UNL     1      42.079   4.146  12.124  0.00  0.00    +0.000 HD
ENDBRANCH   6  10
BRANCH   1  15
ATOM     15  C   UNL     1      49.710   7.092  14.560  0.00  0.00    +0.000 C 
BRANCH  15  19
ATOM     16  C   UNL     1      50.526   5.119  17.754  0.00  0.00    +0.000 C 
ATOM     17  C   UNL     1      49.129   5.262  17.124  0.00  0.00    +0.000 C 
ATOM     18  C   UNL     1      48.734   6.723  16.912  0.00  0.00    +0.000 C 
ATOM     19  C   UNL     1      49.752   7.494  16.057  0.00  0.00    +0.000 C 
ATOM     20  C   UNL     1      51.164   7.343  16.654  0.00  0.00    +0.000 C 
ATOM     21  C   UNL     1      51.559   5.887  16.911  0.00  0.00    +0.000 C 
BRANCH  16  22
ATOM     22  C   UNL     1      50.558   5.565  19.232  0.00  0.00    +0.000 C 
BRANCH  22  23
ATOM     23  N   UNL     1      50.636   4.419  20.133  0.00  0.00    +0.000 NA
ATOM     24  H   UNL     1      49.698   4.102  20.371  0.00  0.00    +0.000 HD
ATOM     25  H   UNL     1      51.082   4.698  21.006  0.00  0.00    +0.000 HD
ENDBRANCH  22  23
ENDBRANCH  16  22
ENDBRANCH  15  19
ENDBRANCH   1  15
TORSDOF 5
ENDMDL
MODEL 9
REMARK VINA RESULT:    -4.822      2.935      4.672
REMARK INTER + INTRA:          -6.755
REMARK INTER:                  -6.312
REMARK INTRA:                  -0.442
REMARK UNBOUND:                -0.664
REMARK  Name = 
REMARK  5 active torsions:
REMARK  status: ('A' for Active; 'I' for Inactive)
REMARK    1  A    between atoms: N_1  and  C_2
REMARK    2  A    between atoms: C_2  and  C_3
REMARK    3  A    between atoms: C_6  and  C_7
REMARK    4  A    between atoms: C_7  and  N_8
REMARK    5  A    between atoms: C_13  and  C_14
REMARK                            x       y       z     vdW  Elec       q    Type
REMARK                         _______ _______ _______ _____ _____    ______ ____
ROOT
ATOM      1  N   UNL     1      47.570   6.280  13.890  0.00  0.00    +0.000 N 
ATOM      2  C   UNL     1      47.581   5.384  14.937  0.00  0.00    +0.000 A 
ATOM      3  C   UNL     1      46.883   4.263  14.542  0.00  0.00    +0.000 A 
ATOM      4  C   UNL     1      46.326   4.535  13.274  0.00  0.00    +0.000 A 
ATOM      5  C   UNL     1      45.482   3.828  12.402  0.00  0.00    +0.000 A 
ATOM      6  C   UNL     1      45.069   4.461  11.230  0.00  0.00    +0.000 A 
ATOM      7  C   UNL     1      45.561   5.741  10.965  0.00  0.00    +0.000 A 
ATOM      8  N   UNL     1      46.414   6.456  11.752  0.00  0.00    +0.000 NA
ATOM      9  C   UNL     1      46.749   5.809  12.892  0.00  0.00    +0.000 A 
ENDROOT
BRANCH   6  10
ATOM     10  C   UNL     1      44.112   3.839  10.281  0.00  0.00    +0.000 C 
ATOM     11  N   UNL     1      43.995   4.377   9.026  0.00  0.00    +0.000 N 
ATOM     12  O   UNL     1      43.447   2.860  10.598  0.00  0.00    +0.000 OA
ATOM     13  H   UNL     1      44.523   5.157   8.670  0.00  0.00    +0.000 HD
ATOM     14  H   UNL     1      43.360   3.918   8.385  0.00  0.00    +0.000 HD
ENDBRANCH   6  10
BRANCH   1  15
ATOM     15  C   UNL     1      48.327   7.527  13.867  0.00  0.00    +0.000 C 
BRANCH  15  19
ATOM     16  C   UNL     1      51.123  10.000  14.776  0.00  0.00    +0.000 C 
ATOM     17  C   UNL     1      51.331   8.556  14.285  0.00  0.00    +0.000 C 
ATOM     18  C   UNL     1      50.568   7.539  15.131  0.00  0.00    +0.000 C 
ATOM     19  C   UNL     1      49.060   7.834  15.198  0.00  0.00    +0.000 C 
ATOM     20  C   UNL     1      48.828   9.285  15.662  0.00  0.00    +0.000 C 
ATOM     21  C   UNL     1      49.618  10.314  14.851  0.00  0.00    +0.000 C 
BRANCH  16  22
ATOM     22  C   UNL     1      51.825  10.274  16.123  0.00  0.00    +0.000 C 
BRANCH  22  23
ATOM     23  N   UNL     1      53.216   9.832  16.100  0.00  0.00    +0.000 NA
ATOM     24  H   UNL     1      53.281   8.916  15.661  0.00  0.00    +0.000 HD
ATOM     25  H   UNL     1      53.560   9.726  17.054  0.00  0.00    +0.000 HD
ENDBRANCH  22  23
ENDBRANCH  16  22
ENDBRANCH  15  19
ENDBRANCH   1  15
TORSDOF 5
ENDMDL
