MODEL 1
REMARK VINA RESULT:    -8.383      0.000      0.000
REMARK INTER + INTRA:         -10.454
REMARK INTER:                  -9.854
REMARK INTRA:                  -0.600
REMARK UNBOUND:                -0.600
REMARK  Name = 
REMARK  3 active torsions:
REMARK  status: ('A' for Active; 'I' for Inactive)
REMARK    1  A    between atoms: C_2  and  C_4
REMARK    2  A    between atoms: N_8  and  C_9
REMARK    3  A    between atoms: C_9  and  C_10
REMARK                            x       y       z     vdW  Elec       q    Type
REMARK                         _______ _______ _______ _____ _____    ______ ____
ROOT
ATOM      1  C   UNL     1      46.579   2.731   7.471  0.00  0.00    +0.000 A 
ATOM      2  C   UNL     1      46.316   4.078   7.701  0.00  0.00    +0.000 A 
ATOM      3  C   UNL     1      45.450   4.444   8.731  0.00  0.00    +0.000 A 
ATOM      4  C   UNL     1      44.883   3.466   9.534  0.00  0.00    +0.000 A 
ATOM      5  N   UNL     1      43.950   3.749  10.536  0.00  0.00    +0.000 N 
ATOM      6  N   UNL     1      45.129   2.152   9.317  0.00  0.00    +0.000 NA
ATOM      7  C   UNL     1      45.954   1.806   8.290  0.00  0.00    +0.000 A 
ATOM      8  H   UNL     1      43.736   2.857  10.977  0.00  0.00    +0.000 HD
ENDROOT
BRANCH   1  10
ATOM      9  N   UNL     1      47.315   3.005   5.183  0.00  0.00    +0.000 N 
ATOM     10  C   UNL     1      47.432   2.292   6.346  0.00  0.00    +0.000 C 
ATOM     11  O   UNL     1      48.195   1.349   6.451  0.00  0.00    +0.000 OA
ATOM     12  H   UNL     1      47.896   2.717   4.403  0.00  0.00    +0.000 HD
ATOM     13  H   UNL     1      46.858   3.903   5.124  0.00  0.00    +0.000 HD
ENDBRANCH   1  10
BRANCH   5  14
ATOM     14  C   UNL     1      43.952   4.929  11.418  0.00  0.00    +0.000 C 
ATOM     15  C   UNL     1      42.615   5.160  12.124  0.00  0.00    +0.000 C 
ATOM     16  C   UNL     1      43.140   6.195  11.188  0.00  0.00    +0.000 C 
BRANCH  14  17
ATOM     17  C   UNL     1      45.237   5.128  12.212  0.00  0.00    +0.000 A 
ATOM     18  C   UNL     1      45.651   4.181  13.159  0.00  0.00    +0.000 A 
ATOM     19  C   UNL     1      46.876   4.333  13.789  0.00  0.00    +0.000 A 
ATOM     20  N   UNL     1      47.711   5.367  13.561  0.00  0.00    +0.000 NA
ATOM     21  C   UNL     1      47.295   6.290  12.670  0.00  0.00    +0.000 A 
ATOM     22  C   UNL     1      46.090   6.218  11.989  0.00  0.00    +0.000 A 
ENDBRANCH  14  17
ENDBRANCH   5  14
TORSDOF 3
ENDMDL
MODEL 2
REMARK VINA RESULT:    -6.159      3.032      6.189
REMARK INTER + INTRA:          -7.840
REMARK INTER:                  -7.444
REMARK INTRA:                  -0.396
REMARK UNBOUND:                -0.600
REMARK  Name = 
REMARK  3 active torsions:
REMARK  status: ('A' for Active; 'I' for Inactive)
REMARK    1  A    between atoms: C_2  and  C_4
REMARK    2  A    between atoms: N_8  and  C_9
REMARK    3  A    between atoms: C_9  and  C_10
REMARK                            x       y       z     vdW  Elec       q    Type
REMARK                         _______ _______ _______ _____ _____    ______ ____
ROOT
ATOM      1  C   UNL     1      48.447   6.862  13.545  0.00  0.00    +0.000 A 
ATOM      2  C   UNL     1      47.562   5.870  13.957  0.00  0.00    +0.000 A 
ATOM      3  C   UNL     1      46.438   5.585  13.183  0.00  0.00    +0.000 A 
ATOM      4  C   UNL     1      46.227   6.271  11.996  0.00  0.00    +0.000 A 
ATOM      5  N   UNL     1      45.088   6.093  11.206  0.00  0.00    +0.000 N 
ATOM      6  N   UNL     1      47.079   7.240  11.586  0.00  0.00    +0.000 NA
ATOM      7  C   UNL     1      48.158   7.529  12.366  0.00  0.00    +0.000 A 
ATOM      8  H   UNL     1      45.218   6.691  10.392  0.00  0.00    +0.000 HD
ENDROOT
BRANCH   1  10
ATOM      9  N   UNL     1      50.735   7.631  13.685  0.00  0.00    +0.000 N 
ATOM     10  C   UNL     1      49.611   7.250  14.368  0.00  0.00    +0.000 C 
ATOM     11  O   UNL     1      49.570   7.231  15.585  0.00  0.00    +0.000 OA
ATOM     12  H   UNL     1      51.542   7.903  14.237  0.00  0.00    +0.000 HD
ATOM     13  H   UNL     1      50.740   7.856  12.701  0.00  0.00    +0.000 HD
ENDBRANCH   1  10
BRANCH   5  14
ATOM     14  C   UNL     1      44.379   4.822  10.974  0.00  0.00    +0.000 C 
ATOM     15  C   UNL     1      42.863   4.935  11.145  0.00  0.00    +0.000 C 
ATOM     16  C   UNL     1      43.638   4.027  12.039  0.00  0.00    +0.000 C 
BRANCH  14  17
ATOM     17  C   UNL     1      44.920   3.992   9.816  0.00  0.00    +0.000 A 
ATOM     18  C   UNL     1      45.581   4.603   8.742  0.00  0.00    +0.000 A 
ATOM     19  C   UNL     1      46.156   3.816   7.757  0.00  0.00    +0.000 A 
ATOM     20  N   UNL     1      46.107   2.469   7.752  0.00  0.00    +0.000 NA
ATOM     21  C   UNL     1      45.446   1.888   8.773  0.00  0.00    +0.000 A 
ATOM     22  C   UNL     1      44.844   2.593   9.804  0.00  0.00    +0.000 A 
ENDBRANCH  14  17
ENDBRANCH   5  14
TORSDOF 3
ENDMDL
MODEL 3
REMARK VINA RESULT:    -5.468      4.377      7.666
REMARK INTER + INTRA:          -7.028
REMARK INTER:                  -7.155
REMARK INTRA:                   0.128
REMARK UNBOUND:                -0.600
REMARK  Name = 
REMARK  3 active torsions:
REMARK  status: ('A' for Active; 'I' for Inactive)
REMARK    1  A    between atoms: C_2  and  C_4
REMARK    2  A    between atoms: N_8  and  C_9
REMARK    3  A    between atoms: C_9  and  C_10
REMARK                            x       y       z     vdW  Elec       q    Type
REMARK                         _______ _______ _______ _____ _____    ______ ____
ROOT
ATOM      1  C   UNL     1      48.352   4.210  17.519  0.00  0.00    +0.000 A 
ATOM      2  C   UNL     1      48.345   5.480  16.950  0.00  0.00    +0.000 A 
ATOM      3  C   UNL     1      47.938   5.639  15.625  0.00  0.00    +0.000 A 
ATOM      4  C   UNL     1      47.517   4.536  14.898  0.00  0.00    +0.000 A 
ATOM      5  N   UNL     1      47.166   4.604  13.546  0.00  0.00    +0.000 N 
ATOM      6  N   UNL     1      47.522   3.295  15.440  0.00  0.00    +0.000 NA
ATOM      7  C   UNL     1      47.950   3.149  16.725  0.00  0.00    +0.000 A 
ATOM      8  H   UNL     1      46.869   3.665  13.288  0.00  0.00    +0.000 HD
ENDROOT
BRANCH   1  10
ATOM      9  N   UNL     1      48.223   2.989  19.603  0.00  0.00    +0.000 N 
ATOM     10  C   UNL     1      48.844   3.983  18.894  0.00  0.00    +0.000 C 
ATOM     11  O   UNL     1      49.751   4.643  19.367  0.00  0.00    +0.000 OA
ATOM     12  H   UNL     1      48.551   2.819  20.547  0.00  0.00    +0.000 HD
ATOM     13  H   UNL     1      47.622   2.296  19.180  0.00  0.00    +0.000 HD
ENDBRANCH   1  10
BRANCH   5  14
ATOM     14  C   UNL     1      46.459   5.716  12.886  0.00  0.00    +0.000 C 
ATOM     15  C   UNL     1      47.387   6.635  12.090  0.00  0.00    +0.000 C 
ATOM     16  C   UNL     1      46.616   7.186  13.241  0.00  0.00    +0.000 C 
BRANCH  14  17
ATOM     17  C   UNL     1      45.111   5.343  12.280  0.00  0.00    +0.000 A 
ATOM     18  C   UNL     1      43.920   5.568  12.984  0.00  0.00    +0.000 A 
ATOM     19  C   UNL     1      42.704   5.320  12.367  0.00  0.00    +0.000 A 
ATOM     20  N   UNL     1      42.586   4.847  11.110  0.00  0.00    +0.000 NA
ATOM     21  C   UNL     1      43.735   4.606  10.448  0.00  0.00    +0.000 A 
ATOM     22  C   UNL     1      44.995   4.829  10.982  0.00  0.00    +0.000 A 
ENDBRANCH  14  17
ENDBRANCH   5  14
TORSDOF 3
ENDMDL
MODEL 4
REMARK VINA RESULT:    -5.394      3.174      6.432
REMARK INTER + INTRA:          -6.940
REMARK INTER:                  -7.251
REMARK INTRA:                   0.310
REMARK UNBOUND:                -0.600
REMARK  Name = 
REMARK  3 active torsions:
REMARK  status: ('A' for Active; 'I' for Inactive)
REMARK    1  A    between atoms: C_2  and  C_4
REMARK    2  A    between atoms: N_8  and  C_9
REMARK    3  A    between atoms: C_9  and  C_10
REMARK                            x       y       z     vdW  Elec       q    Type
REMARK                         _______ _______ _______ _____ _____    ______ ____
ROOT
ATOM      1  C   UNL     1      48.153   5.875  15.005  0.00  0.00    +0.000 A 
ATOM      2  C   UNL     1      47.695   6.329  13.772  0.00  0.00    +0.000 A 
ATOM      3  C   UNL     1      46.833   5.530  13.021  0.00  0.00    +0.000 A 
ATOM      4  C   UNL     1      46.417   4.306  13.522  0.00  0.00    +0.000 A 
ATOM      5  N   UNL     1      45.616   3.419  12.797  0.00  0.00    +0.000 N 
ATOM      6  N   UNL     1      46.858   3.853  14.719  0.00  0.00    +0.000 NA
ATOM      7  C   UNL     1      47.722   4.629  15.430  0.00  0.00    +0.000 A 
ATOM      8  H   UNL     1      45.443   2.630  13.417  0.00  0.00    +0.000 HD
ENDROOT
BRANCH   1  10
ATOM      9  N   UNL     1      48.764   7.939  16.108  0.00  0.00    +0.000 N 
ATOM     10  C   UNL     1      49.123   6.653  15.803  0.00  0.00    +0.000 C 
ATOM     11  O   UNL     1      50.182   6.175  16.168  0.00  0.00    +0.000 OA
ATOM     12  H   UNL     1      49.419   8.485  16.658  0.00  0.00    +0.000 HD
ATOM     13  H   UNL     1      47.825   8.294  16.005  0.00  0.00    +0.000 HD
ENDBRANCH   1  10
BRANCH   5  14
ATOM     14  C   UNL     1      44.517   3.785  11.886  0.00  0.00    +0.000 C 
ATOM     15  C   UNL     1      43.575   4.841  12.468  0.00  0.00    +0.000 C 
ATOM     16  C   UNL     1      43.044   3.490  12.128  0.00  0.00    +0.000 C 
BRANCH  14  17
ATOM     17  C   UNL     1      44.916   3.897  10.420  0.00  0.00    +0.000 A 
ATOM     18  C   UNL     1      45.505   5.067   9.922  0.00  0.00    +0.000 A 
ATOM     19  C   UNL     1      45.956   5.102   8.612  0.00  0.00    +0.000 A 
ATOM     20  N   UNL     1      45.846   4.067   7.755  0.00  0.00    +0.000 NA
ATOM     21  C   UNL     1      45.252   2.954   8.231  0.00  0.00    +0.000 A 
ATOM     22  C   UNL     1      44.776   2.826   9.527  0.00  0.00    +0.000 A 
ENDBRANCH  14  17
ENDBRANCH   5  14
TORSDOF 3
ENDMDL
