MODEL 1
REMARK VINA RESULT:    -7.406      0.000      0.000
REMARK INTER + INTRA:         -11.361
REMARK INTER:                 -10.221
REMARK INTRA:                  -1.140
REMARK UNBOUND:                -1.140
REMARK  Name = 
REMARK  7 active torsions:
REMARK  status: ('A' for Active; 'I' for Inactive)
REMARK    1  A    between atoms: C_2  and  C_21
REMARK    2  A    between atoms: N_3  and  C_4
REMARK    3  A    between atoms: C_4  and  C_5
REMARK    4  A    between atoms: C_8  and  C_9
REMARK    5  A    between atoms: C_9  and  N_10
REMARK    6  A    between atoms: C_11  and  C_13
REMARK    7  A    between atoms: C_16  and  O_17
REMARK                            x       y       z     vdW  Elec       q    Type
REMARK                         _______ _______ _______ _____ _____    ______ ____
ROOT
ATOM      1  C   UNL     1      48.671   3.627  17.012  0.00  0.00    +0.000 A 
ATOM      2  C   UNL     1      49.580   2.561  17.063  0.00  0.00    +0.000 A 
ATOM      3  C   UNL     1      50.908   2.770  17.454  0.00  0.00    +0.000 A 
ATOM      4  C   UNL     1      51.352   4.046  17.827  0.00  0.00    +0.000 A 
ATOM      5  C   UNL     1      50.442   5.110  17.782  0.00  0.00    +0.000 A 
ATOM      6  C   UNL     1      49.113   4.901  17.391  0.00  0.00    +0.000 A 
ENDROOT
BRANCH   1   7
ATOM      7  C   UNL     1      47.241   3.395  16.589  0.00  0.00    +0.000 C 
BRANCH   7  10
ATOM      8  O   UNL     1      47.230   3.153  13.815  0.00  0.00    +0.000 OA
ATOM      9  C   UNL     1      46.750   4.167  14.315  0.00  0.00    +0.000 C 
ATOM     10  N   UNL     1      46.791   4.407  15.667  0.00  0.00    +0.000 N 
ATOM     11  H   UNL     1      46.203   5.137  16.054  0.00  0.00    +0.000 HD
BRANCH   9  12
ATOM     12  C   UNL     1      46.136   5.213  13.489  0.00  0.00    +0.000 A 
ATOM     13  C   UNL     1      46.818   6.396  13.237  0.00  0.00    +0.000 A 
ATOM     14  S   UNL     1      45.930   7.509  12.296  0.00  0.00    +0.000 S 
ATOM     15  C   UNL     1      44.624   6.427  12.145  0.00  0.00    +0.000 A 
ATOM     16  N   UNL     1      43.516   6.758  11.428  0.00  0.00    +0.000 NA
ATOM     17  C   UNL     1      42.625   5.827  11.363  0.00  0.00    +0.000 A 
ATOM     18  N   UNL     1      42.741   4.592  11.952  0.00  0.00    +0.000 N 
ATOM     19  C   UNL     1      43.827   4.225  12.708  0.00  0.00    +0.000 A 
ATOM     20  O   UNL     1      43.880   3.128  13.254  0.00  0.00    +0.000 OA
ATOM     21  C   UNL     1      44.862   5.237  12.812  0.00  0.00    +0.000 A 
ATOM     22  H   UNL     1      42.006   3.905  11.867  0.00  0.00    +0.000 HD
ENDBRANCH   9  12
ENDBRANCH   7  10
ENDBRANCH   1   7
BRANCH   4  23
ATOM     23  C   UNL     1      52.770   4.261  18.292  0.00  0.00    +0.000 C 
BRANCH  23  24
ATOM     24  N   UNL     1      53.656   3.179  17.923  0.00  0.00    +0.000 N 
ATOM     25  C   UNL     1      54.229   2.391  18.896  0.00  0.00    +0.000 C 
ATOM     26  O   UNL     1      53.991   2.529  20.094  0.00  0.00    +0.000 OA
ATOM     27  H   UNL     1      53.832   3.003  16.943  0.00  0.00    +0.000 HD
BRANCH  25  28
ATOM     28  C   UNL     1      55.113   1.263  18.375  0.00  0.00    +0.000 C 
ATOM     29  C   UNL     1      55.334   0.166  19.433  0.00  0.00    +0.000 C 
ATOM     30  C   UNL     1      54.729  -1.118  18.864  0.00  0.00    +0.000 C 
ATOM     31  C   UNL     1      53.725  -0.643  17.827  0.00  0.00    +0.000 C 
ATOM     32  C   UNL     1      54.410   0.568  17.201  0.00  0.00    +0.000 C 
BRANCH  31  33
ATOM     33  O   UNL     1      52.492  -0.287  18.436  0.00  0.00    +0.000 OA
ATOM     34  H   UNL     1      51.936  -1.085  18.556  0.00  0.00    +0.000 HD
ENDBRANCH  31  33
ENDBRANCH  25  28
ENDBRANCH  23  24
ENDBRANCH   4  23
TORSDOF 7
ENDMDL
MODEL 2
REMARK VINA RESULT:    -7.247      3.164      9.979
REMARK INTER + INTRA:         -11.141
REMARK INTER:                 -10.127
REMARK INTRA:                  -1.014
REMARK UNBOUND:                -1.140
REMARK  Name = 
REMARK  7 active torsions:
REMARK  status: ('A' for Active; 'I' for Inactive)
REMARK    1  A    between atoms: C_2  and  C_21
REMARK    2  A    between atoms: N_3  and  C_4
REMARK    3  A    between atoms: C_4  and  C_5
REMARK    4  A    between atoms: C_8  and  C_9
REMARK    5  A    between atoms: C_9  and  N_10
REMARK    6  A    between atoms: C_11  and  C_13
REMARK    7  A    between atoms: C_16  and  O_17
REMARK                            x       y       z     vdW  Elec       q    Type
REMARK                         _______ _______ _______ _____ _____    ______ ____
ROOT
ATOM      1  C   UNL     1      48.099   4.343  16.773  0.00  0.00    +0.000 A 
ATOM      2  C   UNL     1      47.287   3.934  15.706  0.00  0.00    +0.000 A 
ATOM      3  C   UNL     1      47.143   4.734  14.567  0.00  0.00    +0.000 A 
ATOM      4  C   UNL     1      47.828   5.952  14.458  0.00  0.00    +0.000 A 
ATOM      5  C   UNL     1      48.646   6.358  15.521  0.00  0.00    +0.000 A 
ATOM      6  C   UNL     1      48.790   5.556  16.661  0.00  0.00    +0.000 A 
ENDROOT
BRANCH   1   7
ATOM      7  C   UNL     1      48.250   3.475  17.998  0.00  0.00    +0.000 C 
BRANCH   7  10
ATOM      8  O   UNL     1      49.723   1.776  16.356  0.00  0.00    +0.000 OA
ATOM      9  C   UNL     1      50.292   2.311  17.304  0.00  0.00    +0.000 C 
ATOM     10  N   UNL     1      49.623   3.095  18.213  0.00  0.00    +0.000 N 
ATOM     11  H   UNL     1      50.158   3.683  18.842  0.00  0.00    +0.000 HD
BRANCH   9  12
ATOM     12  C   UNL     1      51.724   2.111  17.551  0.00  0.00    +0.000 A 
ATOM     13  C   UNL     1      52.258   0.830  17.576  0.00  0.00    +0.000 A 
ATOM     14  S   UNL     1      53.930   0.793  17.920  0.00  0.00    +0.000 S 
ATOM     15  C   UNL     1      54.010   2.492  17.993  0.00  0.00    +0.000 A 
ATOM     16  N   UNL     1      55.187   3.130  18.238  0.00  0.00    +0.000 NA
ATOM     17  C   UNL     1      55.109   4.418  18.223  0.00  0.00    +0.000 A 
ATOM     18  N   UNL     1      53.958   5.127  17.985  0.00  0.00    +0.000 N 
ATOM     19  C   UNL     1      52.743   4.527  17.762  0.00  0.00    +0.000 A 
ATOM     20  O   UNL     1      51.726   5.192  17.592  0.00  0.00    +0.000 OA
ATOM     21  C   UNL     1      52.775   3.076  17.766  0.00  0.00    +0.000 A 
ATOM     22  H   UNL     1      53.961   6.137  17.988  0.00  0.00    +0.000 HD
ENDBRANCH   9  12
ENDBRANCH   7  10
ENDBRANCH   1   7
BRANCH   4  23
ATOM     23  C   UNL     1      47.709   6.791  13.211  0.00  0.00    +0.000 C 
BRANCH  23  24
ATOM     24  N   UNL     1      46.812   6.221  12.230  0.00  0.00    +0.000 N 
ATOM     25  C   UNL     1      45.505   6.650  12.155  0.00  0.00    +0.000 C 
ATOM     26  O   UNL     1      45.054   7.547  12.865  0.00  0.00    +0.000 OA
ATOM     27  H   UNL     1      47.164   5.519  11.593  0.00  0.00    +0.000 HD
BRANCH  25  28
ATOM     28  C   UNL     1      44.674   5.997  11.056  0.00  0.00    +0.000 C 
ATOM     29  C   UNL     1      44.616   4.465  11.207  0.00  0.00    +0.000 C 
ATOM     30  C   UNL     1      43.148   4.103  11.432  0.00  0.00    +0.000 C 
ATOM     31  C   UNL     1      42.513   5.380  11.957  0.00  0.00    +0.000 C 
ATOM     32  C   UNL     1      43.220   6.477  11.166  0.00  0.00    +0.000 C 
BRANCH  31  33
ATOM     33  O   UNL     1      42.731   5.523  13.353  0.00  0.00    +0.000 OA
ATOM     34  H   UNL     1      43.526   6.073  13.512  0.00  0.00    +0.000 HD
ENDBRANCH  31  33
ENDBRANCH  25  28
ENDBRANCH  23  24
ENDBRANCH   4  23
TORSDOF 7
ENDMDL
MODEL 3
REMARK VINA RESULT:    -7.139      1.746      2.566
REMARK INTER + INTRA:         -10.991
REMARK INTER:                  -9.847
REMARK INTRA:                  -1.144
REMARK UNBOUND:                -1.140
REMARK  Name = 
REMARK  7 active torsions:
REMARK  status: ('A' for Active; 'I' for Inactive)
REMARK    1  A    between atoms: C_2  and  C_21
REMARK    2  A    between atoms: N_3  and  C_4
REMARK    3  A    between atoms: C_4  and  C_5
REMARK    4  A    between atoms: C_8  and  C_9
REMARK    5  A    between atoms: C_9  and  N_10
REMARK    6  A    between atoms: C_11  and  C_13
REMARK    7  A    between atoms: C_16  and  O_17
REMARK                            x       y       z     vdW  Elec       q    Type
REMARK                         _______ _______ _______ _____ _____    ______ ____
ROOT
ATOM      1  C   UNL     1      49.459   6.589  16.090  0.00  0.00    +0.000 A 
ATOM      2  C   UNL     1      48.524   5.618  16.476  0.00  0.00    +0.000 A 
ATOM      3  C   UNL     1      48.911   4.515  17.246  0.00  0.00    +0.000 A 
ATOM      4  C   UNL     1      50.239   4.371  17.671  0.00  0.00    +0.000 A 
ATOM      5  C   UNL     1      51.173   5.345  17.292  0.00  0.00    +0.000 A 
ATOM      6  C   UNL     1      50.784   6.449  16.521  0.00  0.00    +0.000 A 
ENDROOT
BRANCH   1   7
ATOM      7  C   UNL     1      49.035   7.775  15.259  0.00  0.00    +0.000 C 
BRANCH   7  10
ATOM      8  O   UNL     1      48.977   6.442  12.815  0.00  0.00    +0.000 OA
ATOM      9  C   UNL     1      47.909   6.755  13.336  0.00  0.00    +0.000 C 
ATOM     10  N   UNL     1      47.847   7.489  14.496  0.00  0.00    +0.000 N 
ATOM     11  H   UNL     1      46.968   7.538  14.998  0.00  0.00    +0.000 HD
BRANCH   9  12
ATOM     12  C   UNL     1      46.624   6.401  12.723  0.00  0.00    +0.000 A 
ATOM     13  C   UNL     1      45.864   7.369  12.080  0.00  0.00    +0.000 A 
ATOM     14  S   UNL     1      44.383   6.780  11.469  0.00  0.00    +0.000 S 
ATOM     15  C   UNL     1      44.730   5.198  11.994  0.00  0.00    +0.000 A 
ATOM     16  N   UNL     1      43.862   4.175  11.765  0.00  0.00    +0.000 NA
ATOM     17  C   UNL     1      44.273   3.024  12.179  0.00  0.00    +0.000 A 
ATOM     18  N   UNL     1      45.475   2.803  12.803  0.00  0.00    +0.000 N 
ATOM     19  C   UNL     1      46.368   3.808  13.081  0.00  0.00    +0.000 A 
ATOM     20  O   UNL     1      47.416   3.581  13.677  0.00  0.00    +0.000 OA
ATOM     21  C   UNL     1      45.956   5.125  12.634  0.00  0.00    +0.000 A 
ATOM     22  H   UNL     1      45.739   1.876  13.107  0.00  0.00    +0.000 HD
ENDBRANCH   9  12
ENDBRANCH   7  10
ENDBRANCH   1   7
BRANCH   4  23
ATOM     23  C   UNL     1      50.646   3.208  18.539  0.00  0.00    +0.000 C 
BRANCH  23  24
ATOM     24  N   UNL     1      52.032   2.832  18.369  0.00  0.00    +0.000 N 
ATOM     25  C   UNL     1      52.359   1.695  17.663  0.00  0.00    +0.000 C 
ATOM     26  O   UNL     1      51.519   0.983  17.116  0.00  0.00    +0.000 OA
ATOM     27  H   UNL     1      52.752   3.425  18.760  0.00  0.00    +0.000 HD
BRANCH  25  28
ATOM     28  C   UNL     1      53.854   1.430  17.524  0.00  0.00    +0.000 C 
ATOM     29  C   UNL     1      54.570   1.425  18.889  0.00  0.00    +0.000 C 
ATOM     30  C   UNL     1      55.147   0.021  19.074  0.00  0.00    +0.000 C 
ATOM     31  C   UNL     1      54.315  -0.861  18.158  0.00  0.00    +0.000 C 
ATOM     32  C   UNL     1      54.069   0.026  16.941  0.00  0.00    +0.000 C 
BRANCH  31  33
ATOM     33  O   UNL     1      53.096  -1.239  18.781  0.00  0.00    +0.000 OA
ATOM     34  H   UNL     1      52.581  -0.440  19.017  0.00  0.00    +0.000 HD
ENDBRANCH  31  33
ENDBRANCH  25  28
ENDBRANCH  23  24
ENDBRANCH   4  23
TORSDOF 7
ENDMDL
MODEL 4
REMARK VINA RESULT:    -7.075      2.980      9.976
REMARK INTER + INTRA:         -10.904
REMARK INTER:                  -9.900
REMARK INTRA:                  -1.004
REMARK UNBOUND:                -1.140
REMARK  Name = 
REMARK  7 active torsions:
REMARK  status: ('A' for Active; 'I' for Inactive)
REMARK    1  A    between atoms: C_2  and  C_21
REMARK    2  A    between atoms: N_3  and  C_4
REMARK    3  A    between atoms: C_4  and  C_5
REMARK    4  A    between atoms: C_8  and  C_9
REMARK    5  A    between atoms: C_9  and  N_10
REMARK    6  A    between atoms: C_11  and  C_13
REMARK    7  A    between atoms: C_16  and  O_17
REMARK                            x       y       z     vdW  Elec       q    Type
REMARK                         _______ _______ _______ _____ _____    ______ ____
ROOT
ATOM      1  C   UNL     1      48.026   5.126  15.846  0.00  0.00    +0.000 A 
ATOM      2  C   UNL     1      48.573   6.319  15.354  0.00  0.00    +0.000 A 
ATOM      3  C   UNL     1      48.254   6.778  14.070  0.00  0.00    +0.000 A 
ATOM      4  C   UNL     1      47.359   6.067  13.258  0.00  0.00    +0.000 A 
ATOM      5  C   UNL     1      46.806   4.878  13.753  0.00  0.00    +0.000 A 
ATOM      6  C   UNL     1      47.127   4.419  15.037  0.00  0.00    +0.000 A 
ENDROOT
BRANCH   1   7
ATOM      7  C   UNL     1      48.375   4.636  17.230  0.00  0.00    +0.000 C 
BRANCH   7  10
ATOM      8  O   UNL     1      49.886   4.752  19.565  0.00  0.00    +0.000 OA
ATOM      9  C   UNL     1      50.414   4.309  18.549  0.00  0.00    +0.000 C 
ATOM     10  N   UNL     1      49.771   4.296  17.335  0.00  0.00    +0.000 N 
ATOM     11  H   UNL     1      50.154   3.734  16.583  0.00  0.00    +0.000 HD
BRANCH   9  12
ATOM     12  C   UNL     1      51.792   3.804  18.558  0.00  0.00    +0.000 A 
ATOM     13  C   UNL     1      52.805   4.543  19.153  0.00  0.00    +0.000 A 
ATOM     14  S   UNL     1      54.345   3.817  19.027  0.00  0.00    +0.000 S 
ATOM     15  C   UNL     1      53.703   2.462  18.221  0.00  0.00    +0.000 A 
ATOM     16  N   UNL     1      54.501   1.429  17.837  0.00  0.00    +0.000 NA
ATOM     17  C   UNL     1      53.875   0.450  17.276  0.00  0.00    +0.000 A 
ATOM     18  N   UNL     1      52.519   0.411  17.063  0.00  0.00    +0.000 N 
ATOM     19  C   UNL     1      51.679   1.442  17.406  0.00  0.00    +0.000 A 
ATOM     20  O   UNL     1      50.478   1.391  17.164  0.00  0.00    +0.000 OA
ATOM     21  C   UNL     1      52.333   2.569  18.044  0.00  0.00    +0.000 A 
ATOM     22  H   UNL     1      52.087  -0.384  16.614  0.00  0.00    +0.000 HD
ENDBRANCH   9  12
ENDBRANCH   7  10
ENDBRANCH   1   7
BRANCH   4  23
ATOM     23  C   UNL     1      46.980   6.587  11.895  0.00  0.00    +0.000 C 
BRANCH  23  24
ATOM     24  N   UNL     1      46.031   5.738  11.210  0.00  0.00    +0.000 N 
ATOM     25  C   UNL     1      44.684   6.019  11.267  0.00  0.00    +0.000 C 
ATOM     26  O   UNL     1      44.231   7.005  11.846  0.00  0.00    +0.000 OA
ATOM     27  H   UNL     1      46.374   4.949  10.679  0.00  0.00    +0.000 HD
BRANCH  25  28
ATOM     28  C   UNL     1      43.793   5.069  10.474  0.00  0.00    +0.000 C 
ATOM     29  C   UNL     1      44.612   4.117   9.582  0.00  0.00    +0.000 C 
ATOM     30  C   UNL     1      44.325   2.699  10.078  0.00  0.00    +0.000 C 
ATOM     31  C   UNL     1      43.848   2.881  11.509  0.00  0.00    +0.000 C 
ATOM     32  C   UNL     1      43.024   4.164  11.447  0.00  0.00    +0.000 C 
BRANCH  31  33
ATOM     33  O   UNL     1      44.946   3.011  12.401  0.00  0.00    +0.000 OA
ATOM     34  H   UNL     1      45.640   3.572  11.996  0.00  0.00    +0.000 HD
ENDBRANCH  31  33
ENDBRANCH  25  28
ENDBRANCH  23  24
ENDBRANCH   4  23
TORSDOF 7
ENDMDL
MODEL 5
REMARK VINA RESULT:    -6.944      3.409      4.840
REMARK INTER + INTRA:         -10.723
REMARK INTER:                  -9.413
REMARK INTRA:                  -1.310
REMARK UNBOUND:                -1.140
REMARK  Name = 
REMARK  7 active torsions:
REMARK  status: ('A' for Active; 'I' for Inactive)
REMARK    1  A    between atoms: C_2  and  C_21
REMARK    2  A    between atoms: N_3  and  C_4
REMARK    3  A    between atoms: C_4  and  C_5
REMARK    4  A    between atoms: C_8  and  C_9
REMARK    5  A    between atoms: C_9  and  N_10
REMARK    6  A    between atoms: C_11  and  C_13
REMARK    7  A    between atoms: C_16  and  O_17
REMARK                            x       y       z     vdW  Elec       q    Type
REMARK                         _______ _______ _______ _____ _____    ______ ____
ROOT
ATOM      1  C   UNL     1      48.914   7.904  13.222  0.00  0.00    +0.000 A 
ATOM      2  C   UNL     1      50.248   8.237  13.494  0.00  0.00    +0.000 A 
ATOM      3  C   UNL     1      50.788   8.049  14.772  0.00  0.00    +0.000 A 
ATOM      4  C   UNL     1      50.011   7.501  15.802  0.00  0.00    +0.000 A 
ATOM      5  C   UNL     1      48.679   7.161  15.529  0.00  0.00    +0.000 A 
ATOM      6  C   UNL     1      48.140   7.350  14.249  0.00  0.00    +0.000 A 
ENDROOT
BRANCH   1   7
ATOM      7  C   UNL     1      48.339   8.110  11.842  0.00  0.00    +0.000 C 
BRANCH   7  10
ATOM      8  O   UNL     1      45.569   7.828  11.853  0.00  0.00    +0.000 OA
ATOM      9  C   UNL     1      46.245   6.929  11.361  0.00  0.00    +0.000 C 
ATOM     10  N   UNL     1      47.619   6.946  11.390  0.00  0.00    +0.000 N 
ATOM     11  H   UNL     1      48.130   6.306  10.792  0.00  0.00    +0.000 HD
BRANCH   9  12
ATOM     12  C   UNL     1      45.625   5.751  10.744  0.00  0.00    +0.000 A 
ATOM     13  C   UNL     1      45.800   5.496   9.390  0.00  0.00    +0.000 A 
ATOM     14  S   UNL     1      44.970   4.108   8.844  0.00  0.00    +0.000 S 
ATOM     15  C   UNL     1      44.392   3.768  10.409  0.00  0.00    +0.000 A 
ATOM     16  N   UNL     1      43.615   2.677  10.650  0.00  0.00    +0.000 NA
ATOM     17  C   UNL     1      43.285   2.519  11.887  0.00  0.00    +0.000 A 
ATOM     18  N   UNL     1      43.663   3.356  12.908  0.00  0.00    +0.000 N 
ATOM     19  C   UNL     1      44.421   4.483  12.708  0.00  0.00    +0.000 A 
ATOM     20  O   UNL     1      44.706   5.231  13.638  0.00  0.00    +0.000 OA
ATOM     21  C   UNL     1      44.821   4.707  11.332  0.00  0.00    +0.000 A 
ATOM     22  H   UNL     1      43.369   3.180  13.859  0.00  0.00    +0.000 HD
ENDBRANCH   9  12
ENDBRANCH   7  10
ENDBRANCH   1   7
BRANCH   4  23
ATOM     23  C   UNL     1      50.607   7.256  17.166  0.00  0.00    +0.000 C 
BRANCH  23  24
ATOM     24  N   UNL     1      50.121   6.042  17.785  0.00  0.00    +0.000 N 
ATOM     25  C   UNL     1      50.781   4.851  17.581  0.00  0.00    +0.000 C 
ATOM     26  O   UNL     1      51.814   4.763  16.920  0.00  0.00    +0.000 OA
ATOM     27  H   UNL     1      49.305   6.088  18.379  0.00  0.00    +0.000 HD
BRANCH  25  28
ATOM     28  C   UNL     1      50.190   3.653  18.317  0.00  0.00    +0.000 C 
ATOM     29  C   UNL     1      48.778   3.946  18.858  0.00  0.00    +0.000 C 
ATOM     30  C   UNL     1      47.831   2.972  18.157  0.00  0.00    +0.000 C 
ATOM     31  C   UNL     1      48.564   2.567  16.889  0.00  0.00    +0.000 C 
ATOM     32  C   UNL     1      50.021   2.485  17.334  0.00  0.00    +0.000 C 
BRANCH  31  33
ATOM     33  O   UNL     1      48.387   3.536  15.865  0.00  0.00    +0.000 OA
ATOM     34  H   UNL     1      48.280   3.090  14.999  0.00  0.00    +0.000 HD
ENDBRANCH  31  33
ENDBRANCH  25  28
ENDBRANCH  23  24
ENDBRANCH   4  23
TORSDOF 7
ENDMDL
MODEL 6
REMARK VINA RESULT:    -6.938      4.447      9.285
REMARK INTER + INTRA:         -10.715
REMARK INTER:                  -9.170
REMARK INTRA:                  -1.545
REMARK UNBOUND:                -1.140
REMARK  Name = 
REMARK  7 active torsions:
REMARK  status: ('A' for Active; 'I' for Inactive)
REMARK    1  A    between atoms: C_2  and  C_21
REMARK    2  A    between atoms: N_3  and  C_4
REMARK    3  A    between atoms: C_4  and  C_5
REMARK    4  A    between atoms: C_8  and  C_9
REMARK    5  A    between atoms: C_9  and  N_10
REMARK    6  A    between atoms: C_11  and  C_13
REMARK    7  A    between atoms: C_16  and  O_17
REMARK                            x       y       z     vdW  Elec       q    Type
REMARK                         _______ _______ _______ _____ _____    ______ ____
ROOT
ATOM      1  C   UNL     1      48.486   7.956  13.202  0.00  0.00    +0.000 A 
ATOM      2  C   UNL     1      48.112   7.020  12.227  0.00  0.00    +0.000 A 
ATOM      3  C   UNL     1      46.834   7.051  11.657  0.00  0.00    +0.000 A 
ATOM      4  C   UNL     1      45.908   8.035  12.029  0.00  0.00    +0.000 A 
ATOM      5  C   UNL     1      46.284   8.976  12.998  0.00  0.00    +0.000 A 
ATOM      6  C   UNL     1      47.563   8.943  13.569  0.00  0.00    +0.000 A 
ENDROOT
BRANCH   1   7
ATOM      7  C   UNL     1      49.865   7.916  13.813  0.00  0.00    +0.000 C 
BRANCH   7  10
ATOM      8  O   UNL     1      49.428   8.502  16.500  0.00  0.00    +0.000 OA
ATOM      9  C   UNL     1      49.629   7.333  16.182  0.00  0.00    +0.000 C 
ATOM     10  N   UNL     1      49.937   6.966  14.895  0.00  0.00    +0.000 N 
ATOM     11  H   UNL     1      49.882   5.987  14.636  0.00  0.00    +0.000 HD
BRANCH   9  12
ATOM     12  C   UNL     1      49.594   6.252  17.173  0.00  0.00    +0.000 A 
ATOM     13  C   UNL     1      50.389   6.318  18.310  0.00  0.00    +0.000 A 
ATOM     14  S   UNL     1      50.246   4.951  19.323  0.00  0.00    +0.000 S 
ATOM     15  C   UNL     1      49.076   4.248  18.307  0.00  0.00    +0.000 A 
ATOM     16  N   UNL     1      48.509   3.049  18.612  0.00  0.00    +0.000 NA
ATOM     17  C   UNL     1      47.607   2.658  17.776  0.00  0.00    +0.000 A 
ATOM     18  N   UNL     1      47.221   3.357  16.659  0.00  0.00    +0.000 N 
ATOM     19  C   UNL     1      47.786   4.555  16.296  0.00  0.00    +0.000 A 
ATOM     20  O   UNL     1      47.445   5.134  15.270  0.00  0.00    +0.000 OA
ATOM     21  C   UNL     1      48.806   5.043  17.205  0.00  0.00    +0.000 A 
ATOM     22  H   UNL     1      46.509   2.995  16.040  0.00  0.00    +0.000 HD
ENDBRANCH   9  12
ENDBRANCH   7  10
ENDBRANCH   1   7
BRANCH   4  23
ATOM     23  C   UNL     1      44.548   8.097  11.380  0.00  0.00    +0.000 C 
BRANCH  23  24
ATOM     24  N   UNL     1      44.120   6.823  10.845  0.00  0.00    +0.000 N 
ATOM     25  C   UNL     1      43.623   5.852  11.685  0.00  0.00    +0.000 C 
ATOM     26  O   UNL     1      43.475   6.024  12.894  0.00  0.00    +0.000 OA
ATOM     27  H   UNL     1      44.177   6.667   9.848  0.00  0.00    +0.000 HD
BRANCH  25  28
ATOM     28  C   UNL     1      43.172   4.570  10.993  0.00  0.00    +0.000 C 
ATOM     29  C   UNL     1      44.083   4.202   9.806  0.00  0.00    +0.000 C 
ATOM     30  C   UNL     1      44.719   2.854  10.144  0.00  0.00    +0.000 C 
ATOM     31  C   UNL     1      44.632   2.756  11.658  0.00  0.00    +0.000 C 
ATOM     32  C   UNL     1      43.284   3.396  11.977  0.00  0.00    +0.000 C 
BRANCH  31  33
ATOM     33  O   UNL     1      45.700   3.457  12.278  0.00  0.00    +0.000 OA
ATOM     34  H   UNL     1      45.658   3.338  13.250  0.00  0.00    +0.000 HD
ENDBRANCH  31  33
ENDBRANCH  25  28
ENDBRANCH  23  24
ENDBRANCH   4  23
TORSDOF 7
ENDMDL
MODEL 7
REMARK VINA RESULT:    -6.885      2.293      3.685
REMARK INTER + INTRA:         -10.642
REMARK INTER:                  -9.419
REMARK INTRA:                  -1.223
REMARK UNBOUND:                -1.140
REMARK  Name = 
REMARK  7 active torsions:
REMARK  status: ('A' for Active; 'I' for Inactive)
REMARK    1  A    between atoms: C_2  and  C_21
REMARK    2  A    between atoms: N_3  and  C_4
REMARK    3  A    between atoms: C_4  and  C_5
REMARK    4  A    between atoms: C_8  and  C_9
REMARK    5  A    between atoms: C_9  and  N_10
REMARK    6  A    between atoms: C_11  and  C_13
REMARK    7  A    between atoms: C_16  and  O_17
REMARK                            x       y       z     vdW  Elec       q    Type
REMARK                         _______ _______ _______ _____ _____    ______ ____
ROOT
ATOM      1  C   UNL     1      48.634   3.476  17.115  0.00  0.00    +0.000 A 
ATOM      2  C   UNL     1      49.226   4.673  17.543  0.00  0.00    +0.000 A 
ATOM      3  C   UNL     1      50.583   4.721  17.881  0.00  0.00    +0.000 A 
ATOM      4  C   UNL     1      51.387   3.578  17.774  0.00  0.00    +0.000 A 
ATOM      5  C   UNL     1      50.798   2.383  17.338  0.00  0.00    +0.000 A 
ATOM      6  C   UNL     1      49.439   2.336  17.001  0.00  0.00    +0.000 A 
ENDROOT
BRANCH   1   7
ATOM      7  C   UNL     1      47.170   3.431  16.753  0.00  0.00    +0.000 C 
BRANCH   7  10
ATOM      8  O   UNL     1      47.225   3.107  13.988  0.00  0.00    +0.000 OA
ATOM      9  C   UNL     1      46.813   4.170  14.443  0.00  0.00    +0.000 C 
ATOM     10  N   UNL     1      46.831   4.448  15.789  0.00  0.00    +0.000 N 
ATOM     11  H   UNL     1      46.292   5.233  16.136  0.00  0.00    +0.000 HD
BRANCH   9  12
ATOM     12  C   UNL     1      46.311   5.237  13.569  0.00  0.00    +0.000 A 
ATOM     13  C   UNL     1      47.099   6.347  13.296  0.00  0.00    +0.000 A 
ATOM     14  S   UNL     1      46.332   7.500  12.297  0.00  0.00    +0.000 S 
ATOM     15  C   UNL     1      44.941   6.531  12.150  0.00  0.00    +0.000 A 
ATOM     16  N   UNL     1      43.882   6.932  11.395  0.00  0.00    +0.000 NA
ATOM     17  C   UNL     1      42.914   6.080  11.338  0.00  0.00    +0.000 A 
ATOM     18  N   UNL     1      42.909   4.860  11.969  0.00  0.00    +0.000 N 
ATOM     19  C   UNL     1      43.942   4.427  12.764  0.00  0.00    +0.000 A 
ATOM     20  O   UNL     1      43.887   3.349  13.346  0.00  0.00    +0.000 OA
ATOM     21  C   UNL     1      45.059   5.348  12.861  0.00  0.00    +0.000 A 
ATOM     22  H   UNL     1      42.118   4.237  11.888  0.00  0.00    +0.000 HD
ENDBRANCH   9  12
ENDBRANCH   7  10
ENDBRANCH   1   7
BRANCH   4  23
ATOM     23  C   UNL     1      52.860   3.642  18.093  0.00  0.00    +0.000 C 
BRANCH  23  24
ATOM     24  N   UNL     1      53.467   4.897  17.711  0.00  0.00    +0.000 N 
ATOM     25  C   UNL     1      54.657   4.907  17.019  0.00  0.00    +0.000 C 
ATOM     26  O   UNL     1      55.230   3.881  16.658  0.00  0.00    +0.000 OA
ATOM     27  H   UNL     1      52.996   5.761  17.945  0.00  0.00    +0.000 HD
BRANCH  25  28
ATOM     28  C   UNL     1      55.173   6.293  16.644  0.00  0.00    +0.000 C 
ATOM     29  C   UNL     1      55.360   6.448  15.123  0.00  0.00    +0.000 C 
ATOM     30  C   UNL     1      54.406   7.555  14.675  0.00  0.00    +0.000 C 
ATOM     31  C   UNL     1      53.343   7.608  15.759  0.00  0.00    +0.000 C 
ATOM     32  C   UNL     1      54.130   7.348  17.040  0.00  0.00    +0.000 C 
BRANCH  31  33
ATOM     33  O   UNL     1      52.349   6.614  15.549  0.00  0.00    +0.000 OA
ATOM     34  H   UNL     1      52.456   6.219  14.659  0.00  0.00    +0.000 HD
ENDBRANCH  31  33
ENDBRANCH  25  28
ENDBRANCH  23  24
ENDBRANCH   4  23
TORSDOF 7
ENDMDL
MODEL 8
REMARK VINA RESULT:    -6.859      5.354      9.624
REMARK INTER + INTRA:         -10.605
REMARK INTER:                  -9.293
REMARK INTRA:                  -1.312
REMARK UNBOUND:                -1.140
REMARK  Name = 
REMARK  7 active torsions:
REMARK  status: ('A' for Active; 'I' for Inactive)
REMARK    1  A    between atoms: C_2  and  C_21
REMARK    2  A    between atoms: N_3  and  C_4
REMARK    3  A    between atoms: C_4  and  C_5
REMARK    4  A    between atoms: C_8  and  C_9
REMARK    5  A    between atoms: C_9  and  N_10
REMARK    6  A    between atoms: C_11  and  C_13
REMARK    7  A    between atoms: C_16  and  O_17
REMARK                            x       y       z     vdW  Elec       q    Type
REMARK                         _______ _______ _______ _____ _____    ______ ____
ROOT
ATOM      1  C   UNL     1      46.418   4.945  13.575  0.00  0.00    +0.000 A 
ATOM      2  C   UNL     1      46.094   6.055  12.783  0.00  0.00    +0.000 A 
ATOM      3  C   UNL     1      45.316   5.909  11.628  0.00  0.00    +0.000 A 
ATOM      4  C   UNL     1      44.823   4.653  11.252  0.00  0.00    +0.000 A 
ATOM      5  C   UNL     1      45.141   3.543  12.048  0.00  0.00    +0.000 A 
ATOM      6  C   UNL     1      45.920   3.690  13.203  0.00  0.00    +0.000 A 
ENDROOT
BRANCH   1   7
ATOM      7  C   UNL     1      47.258   5.109  14.818  0.00  0.00    +0.000 C 
BRANCH   7  10
ATOM      8  O   UNL     1      49.600   5.690  16.207  0.00  0.00    +0.000 OA
ATOM      9  C   UNL     1      49.105   6.566  15.504  0.00  0.00    +0.000 C 
ATOM     10  N   UNL     1      47.907   6.395  14.853  0.00  0.00    +0.000 N 
ATOM     11  H   UNL     1      47.647   7.049  14.123  0.00  0.00    +0.000 HD
BRANCH   9  12
ATOM     12  C   UNL     1      49.744   7.878  15.348  0.00  0.00    +0.000 A 
ATOM     13  C   UNL     1      50.123   8.609  16.466  0.00  0.00    +0.000 A 
ATOM     14  S   UNL     1      50.810  10.126  16.090  0.00  0.00    +0.000 S 
ATOM     15  C   UNL     1      50.676   9.835  14.418  0.00  0.00    +0.000 A 
ATOM     16  N   UNL     1      51.110  10.750  13.509  0.00  0.00    +0.000 NA
ATOM     17  C   UNL     1      50.986  10.380  12.279  0.00  0.00    +0.000 A 
ATOM     18  N   UNL     1      50.466   9.175  11.875  0.00  0.00    +0.000 N 
ATOM     19  C   UNL     1      49.989   8.235  12.754  0.00  0.00    +0.000 A 
ATOM     20  O   UNL     1      49.493   7.186  12.357  0.00  0.00    +0.000 OA
ATOM     21  C   UNL     1      50.107   8.601  14.153  0.00  0.00    +0.000 A 
ATOM     22  H   UNL     1      50.392   8.945  10.894  0.00  0.00    +0.000 HD
ENDBRANCH   9  12
ENDBRANCH   7  10
ENDBRANCH   1   7
BRANCH   4  23
ATOM     23  C   UNL     1      43.947   4.504  10.034  0.00  0.00    +0.000 C 
BRANCH  23  24
ATOM     24  N   UNL     1      44.696   4.488   8.797  0.00  0.00    +0.000 N 
ATOM     25  C   UNL     1      45.167   3.298   8.290  0.00  0.00    +0.000 C 
ATOM     26  O   UNL     1      44.944   2.210   8.818  0.00  0.00    +0.000 OA
ATOM     27  H   UNL     1      44.852   5.358   8.308  0.00  0.00    +0.000 HD
BRANCH  25  28
ATOM     28  C   UNL     1      45.910   3.411   6.963  0.00  0.00    +0.000 C 
ATOM     29  C   UNL     1      47.406   3.719   7.162  0.00  0.00    +0.000 C 
ATOM     30  C   UNL     1      48.177   2.534   6.581  0.00  0.00    +0.000 C 
ATOM     31  C   UNL     1      47.183   1.386   6.591  0.00  0.00    +0.000 C 
ATOM     32  C   UNL     1      45.861   2.059   6.236  0.00  0.00    +0.000 C 
BRANCH  31  33
ATOM     33  O   UNL     1      47.126   0.770   7.870  0.00  0.00    +0.000 OA
ATOM     34  H   UNL     1      46.344   0.183   7.923  0.00  0.00    +0.000 HD
ENDBRANCH  31  33
ENDBRANCH  25  28
ENDBRANCH  23  24
ENDBRANCH   4  23
TORSDOF 7
ENDMDL
MODEL 9
REMARK VINA RESULT:    -6.707      3.455      5.088
REMARK INTER + INTRA:         -10.395
REMARK INTER:                  -9.033
REMARK INTRA:                  -1.362
REMARK UNBOUND:                -1.140
REMARK  Name = 
REMARK  7 active torsions:
REMARK  status: ('A' for Active; 'I' for Inactive)
REMARK    1  A    between atoms: C_2  and  C_21
REMARK    2  A    between atoms: N_3  and  C_4
REMARK    3  A    between atoms: C_4  and  C_5
REMARK    4  A    between atoms: C_8  and  C_9
REMARK    5  A    between atoms: C_9  and  N_10
REMARK    6  A    between atoms: C_11  and  C_13
REMARK    7  A    between atoms: C_16  and  O_17
REMARK                            x       y       z     vdW  Elec       q    Type
REMARK                         _______ _______ _______ _____ _____    ______ ____
ROOT
ATOM      1  C   UNL     1      48.519   7.800  12.905  0.00  0.00    +0.000 A 
ATOM      2  C   UNL     1      49.708   8.537  12.813  0.00  0.00    +0.000 A 
ATOM      3  C   UNL     1      50.639   8.528  13.858  0.00  0.00    +0.000 A 
ATOM      4  C   UNL     1      50.415   7.762  15.010  0.00  0.00    +0.000 A 
ATOM      5  C   UNL     1      49.230   7.020  15.099  0.00  0.00    +0.000 A 
ATOM      6  C   UNL     1      48.297   7.029  14.053  0.00  0.00    +0.000 A 
ENDROOT
BRANCH   1   7
ATOM      7  C   UNL     1      47.519   7.814  11.776  0.00  0.00    +0.000 C 
BRANCH   7  10
ATOM      8  O   UNL     1      44.748   7.534  11.749  0.00  0.00    +0.000 OA
ATOM      9  C   UNL     1      45.439   6.530  11.595  0.00  0.00    +0.000 C 
ATOM     10  N   UNL     1      46.810   6.563  11.680  0.00  0.00    +0.000 N 
ATOM     11  H   UNL     1      47.342   5.771  11.338  0.00  0.00    +0.000 HD
BRANCH   9  12
ATOM     12  C   UNL     1      44.837   5.214  11.352  0.00  0.00    +0.000 A 
ATOM     13  C   UNL     1      44.005   4.639  12.303  0.00  0.00    +0.000 A 
ATOM     14  S   UNL     1      43.434   3.091  11.864  0.00  0.00    +0.000 S 
ATOM     15  C   UNL     1      44.235   3.158  10.364  0.00  0.00    +0.000 A 
ATOM     16  N   UNL     1      44.142   2.135   9.471  0.00  0.00    +0.000 NA
ATOM     17  C   UNL     1      44.763   2.340   8.359  0.00  0.00    +0.000 A 
ATOM     18  N   UNL     1      45.471   3.477   8.058  0.00  0.00    +0.000 N 
ATOM     19  C   UNL     1      45.616   4.521   8.938  0.00  0.00    +0.000 A 
ATOM     20  O   UNL     1      46.290   5.505   8.651  0.00  0.00    +0.000 OA
ATOM     21  C   UNL     1      44.934   4.343  10.205  0.00  0.00    +0.000 A 
ATOM     22  H   UNL     1      45.939   3.576   7.168  0.00  0.00    +0.000 HD
ENDBRANCH   9  12
ENDBRANCH   7  10
ENDBRANCH   1   7
BRANCH   4  23
ATOM     23  C   UNL     1      51.440   7.717  16.114  0.00  0.00    +0.000 C 
BRANCH  23  24
ATOM     24  N   UNL     1      51.145   6.720  17.119  0.00  0.00    +0.000 N 
ATOM     25  C   UNL     1      52.020   5.680  17.340  0.00  0.00    +0.000 C 
ATOM     26  O   UNL     1      53.091   5.570  16.747  0.00  0.00    +0.000 OA
ATOM     27  H   UNL     1      50.297   6.809  17.664  0.00  0.00    +0.000 HD
BRANCH  25  28
ATOM     28  C   UNL     1      51.611   4.718  18.450  0.00  0.00    +0.000 C 
ATOM     29  C   UNL     1      50.344   5.191  19.189  0.00  0.00    +0.000 C 
ATOM     30  C   UNL     1      49.278   4.121  18.957  0.00  0.00    +0.000 C 
ATOM     31  C   UNL     1      49.726   3.396  17.699  0.00  0.00    +0.000 C 
ATOM     32  C   UNL     1      51.245   3.359  17.835  0.00  0.00    +0.000 C 
BRANCH  31  33
ATOM     33  O   UNL     1      49.326   4.102  16.533  0.00  0.00    +0.000 OA
ATOM     34  H   UNL     1      48.748   3.534  15.981  0.00  0.00    +0.000 HD
ENDBRANCH  31  33
ENDBRANCH  25  28
ENDBRANCH  23  24
ENDBRANCH   4  23
TORSDOF 7
ENDMDL
