MODEL 1
REMARK VINA RESULT:    -7.813      0.000      0.000
REMARK INTER + INTRA:         -12.995
REMARK INTER:                 -12.152
REMARK INTRA:                  -0.843
REMARK UNBOUND:                -0.843
REMARK  Name = 
REMARK  10 active torsions:
REMARK  status: ('A' for Active; 'I' for Inactive)
REMARK    1  A    between atoms: N_1  and  C_2
REMARK    2  A    between atoms: C_2  and  C_3
REMARK    3  A    between atoms: C_3  and  N_4
REMARK    4  A    between atoms: C_3  and  C_20
REMARK    5  A    between atoms: N_4  and  C_5
REMARK    6  A    between atoms: C_5  and  C_6
REMARK    7  A    between atoms: C_9  and  C_10
REMARK    8  A    between atoms: C_10  and  C_11
REMARK    9  A    between atoms: C_11  and  N_12
REMARK   10  A    between atoms: N_12  and  C_13
REMARK                            x       y       z     vdW  Elec       q    Type
REMARK                         _______ _______ _______ _____ _____    ______ ____
ROOT
ATOM      1  N   UNL     1      48.197   4.575  15.612  0.00  0.00    +0.000 NA
ATOM      2  H   UNL     1      49.122   4.216  15.370  0.00  0.00    +0.000 HD
ENDROOT
BRANCH   1   3
ATOM      3  C   UNL     1      48.261   5.099  16.988  0.00  0.00    +0.000 C 
BRANCH   3   4
ATOM      4  C   UNL     1      49.711   4.908  17.427  0.00  0.00    +0.000 A 
ATOM      5  C   UNL     1      50.520   5.886  17.989  0.00  0.00    +0.000 A 
ATOM      6  S   UNL     1      52.092   5.340  18.374  0.00  0.00    +0.000 S 
ATOM      7  C   UNL     1      51.732   3.759  17.864  0.00  0.00    +0.000 A 
ATOM      8  N   UNL     1      52.650   2.756  17.967  0.00  0.00    +0.000 NA
ATOM      9  C   UNL     1      52.222   1.604  17.572  0.00  0.00    +0.000 A 
ATOM     10  N   UNL     1      50.971   1.367  17.063  0.00  0.00    +0.000 N 
ATOM     11  C   UNL     1      50.013   2.345  16.932  0.00  0.00    +0.000 A 
ATOM     12  O   UNL     1      48.892   2.097  16.490  0.00  0.00    +0.000 OA
ATOM     13  C   UNL     1      50.444   3.658  17.376  0.00  0.00    +0.000 A 
ATOM     14  H   UNL     1      50.698   0.436  16.780  0.00  0.00    +0.000 HD
ENDBRANCH   3   4
BRANCH   3  15
ATOM     15  C   UNL     1      47.213   4.406  17.926  0.00  0.00    +0.000 C 
BRANCH  15  16
ATOM     16  N   UNL     1      46.497   3.262  17.351  0.00  0.00    +0.000 NA
ATOM     17  H   UNL     1      47.185   2.594  17.002  0.00  0.00    +0.000 HD
ATOM     18  H   UNL     1      45.976   3.573  16.531  0.00  0.00    +0.000 HD
ENDBRANCH  15  16
ENDBRANCH   3  15
ENDBRANCH   1   3
BRANCH   1  19
ATOM     19  C   UNL     1      47.857   5.594  14.620  0.00  0.00    +0.000 C 
BRANCH  19  20
ATOM     20  C   UNL     1      46.846   5.068  13.636  0.00  0.00    +0.000 A 
ATOM     21  C   UNL     1      46.177   5.961  12.795  0.00  0.00    +0.000 A 
ATOM     22  C   UNL     1      45.255   5.497  11.865  0.00  0.00    +0.000 A 
ATOM     23  C   UNL     1      44.997   4.125  11.725  0.00  0.00    +0.000 A 
ATOM     24  C   UNL     1      45.668   3.232  12.571  0.00  0.00    +0.000 A 
ATOM     25  C   UNL     1      46.586   3.700  13.517  0.00  0.00    +0.000 A 
BRANCH  23  26
ATOM     26  C   UNL     1      43.996   3.600  10.712  0.00  0.00    +0.000 C 
BRANCH  26  27
ATOM     27  C   UNL     1      44.341   4.030   9.280  0.00  0.00    +0.000 C 
BRANCH  27  28
ATOM     28  N   UNL     1      44.609   2.918   8.363  0.00  0.00    +0.000 NA
ATOM     29  H   UNL     1      44.249   3.153   7.437  0.00  0.00    +0.000 HD
BRANCH  28  30
ATOM     30  C   UNL     1      46.067   2.693   8.278  0.00  0.00    +0.000 C 
ATOM     31  C   UNL     1      46.709   3.520   7.169  0.00  0.00    +0.000 C 
ATOM     32  C   UNL     1      46.847   2.539   6.024  0.00  0.00    +0.000 C 
ATOM     33  N   UNL     1      47.262   1.294   6.684  0.00  0.00    +0.000 NA
ATOM     34  C   UNL     1      46.430   1.237   7.896  0.00  0.00    +0.000 C 
ATOM     35  H   UNL     1      48.238   1.379   6.963  0.00  0.00    +0.000 HD
ENDBRANCH  28  30
ENDBRANCH  27  28
ENDBRANCH  26  27
ENDBRANCH  23  26
ENDBRANCH  19  20
ENDBRANCH   1  19
TORSDOF 10
ENDMDL
MODEL 2
REMARK VINA RESULT:    -7.205      2.114      2.912
REMARK INTER + INTRA:         -12.049
REMARK INTER:                 -11.004
REMARK INTRA:                  -1.046
REMARK UNBOUND:                -0.843
REMARK  Name = 
REMARK  10 active torsions:
REMARK  status: ('A' for Active; 'I' for Inactive)
REMARK    1  A    between atoms: N_1  and  C_2
REMARK    2  A    between atoms: C_2  and  C_3
REMARK    3  A    between atoms: C_3  and  N_4
REMARK    4  A    between atoms: C_3  and  C_20
REMARK    5  A    between atoms: N_4  and  C_5
REMARK    6  A    between atoms: C_5  and  C_6
REMARK    7  A    between atoms: C_9  and  C_10
REMARK    8  A    between atoms: C_10  and  C_11
REMARK    9  A    between atoms: C_11  and  N_12
REMARK   10  A    between atoms: N_12  and  C_13
REMARK                            x       y       z     vdW  Elec       q    Type
REMARK                         _______ _______ _______ _____ _____    ______ ____
ROOT
ATOM      1  N   UNL     1      48.094   6.121  14.805  0.00  0.00    +0.000 NA
ATOM      2  H   UNL     1      48.211   5.130  14.588  0.00  0.00    +0.000 HD
ENDROOT
BRANCH   1   3
ATOM      3  C   UNL     1      49.341   6.599  15.427  0.00  0.00    +0.000 C 
BRANCH   3   4
ATOM      4  C   UNL     1      48.997   6.831  16.897  0.00  0.00    +0.000 A 
ATOM      5  C   UNL     1      48.619   8.043  17.457  0.00  0.00    +0.000 A 
ATOM      6  S   UNL     1      48.298   7.956  19.133  0.00  0.00    +0.000 S 
ATOM      7  C   UNL     1      48.590   6.282  19.162  0.00  0.00    +0.000 A 
ATOM      8  N   UNL     1      48.445   5.558  20.308  0.00  0.00    +0.000 NA
ATOM      9  C   UNL     1      48.668   4.295  20.169  0.00  0.00    +0.000 A 
ATOM     10  N   UNL     1      49.045   3.691  18.996  0.00  0.00    +0.000 N 
ATOM     11  C   UNL     1      49.214   4.378  17.817  0.00  0.00    +0.000 A 
ATOM     12  O   UNL     1      49.534   3.806  16.775  0.00  0.00    +0.000 OA
ATOM     13  C   UNL     1      48.960   5.803  17.920  0.00  0.00    +0.000 A 
ATOM     14  H   UNL     1      49.196   2.693  18.956  0.00  0.00    +0.000 HD
ENDBRANCH   3   4
BRANCH   3  15
ATOM     15  C   UNL     1      49.909   7.865  14.697  0.00  0.00    +0.000 C 
BRANCH  15  16
ATOM     16  N   UNL     1      51.245   7.718  14.109  0.00  0.00    +0.000 NA
ATOM     17  H   UNL     1      51.146   7.675  13.094  0.00  0.00    +0.000 HD
ATOM     18  H   UNL     1      51.634   6.818  14.386  0.00  0.00    +0.000 HD
ENDBRANCH  15  16
ENDBRANCH   3  15
ENDBRANCH   1   3
BRANCH   1  19
ATOM     19  C   UNL     1      47.774   6.802  13.552  0.00  0.00    +0.000 C 
BRANCH  19  20
ATOM     20  C   UNL     1      46.789   6.001  12.742  0.00  0.00    +0.000 A 
ATOM     21  C   UNL     1      46.432   6.442  11.465  0.00  0.00    +0.000 A 
ATOM     22  C   UNL     1      45.540   5.709  10.691  0.00  0.00    +0.000 A 
ATOM     23  C   UNL     1      45.004   4.498  11.156  0.00  0.00    +0.000 A 
ATOM     24  C   UNL     1      45.362   4.061  12.439  0.00  0.00    +0.000 A 
ATOM     25  C   UNL     1      46.250   4.805  13.223  0.00  0.00    +0.000 A 
BRANCH  23  26
ATOM     26  C   UNL     1      44.032   3.683  10.323  0.00  0.00    +0.000 C 
BRANCH  26  27
ATOM     27  C   UNL     1      44.687   2.427   9.733  0.00  0.00    +0.000 C 
BRANCH  27  28
ATOM     28  N   UNL     1      44.965   2.510   8.296  0.00  0.00    +0.000 NA
ATOM     29  H   UNL     1      44.554   3.367   7.924  0.00  0.00    +0.000 HD
BRANCH  28  30
ATOM     30  C   UNL     1      46.427   2.536   8.080  0.00  0.00    +0.000 C 
ATOM     31  C   UNL     1      46.828   3.540   7.004  0.00  0.00    +0.000 C 
ATOM     32  C   UNL     1      47.016   2.686   5.768  0.00  0.00    +0.000 C 
ATOM     33  N   UNL     1      47.680   1.479   6.280  0.00  0.00    +0.000 NA
ATOM     34  C   UNL     1      46.979   1.193   7.542  0.00  0.00    +0.000 C 
ATOM     35  H   UNL     1      48.651   1.702   6.490  0.00  0.00    +0.000 HD
ENDBRANCH  28  30
ENDBRANCH  27  28
ENDBRANCH  26  27
ENDBRANCH  23  26
ENDBRANCH  19  20
ENDBRANCH   1  19
TORSDOF 10
ENDMDL
MODEL 3
REMARK VINA RESULT:    -7.022      2.050      2.710
REMARK INTER + INTRA:         -11.764
REMARK INTER:                 -10.688
REMARK INTRA:                  -1.076
REMARK UNBOUND:                -0.843
REMARK  Name = 
REMARK  10 active torsions:
REMARK  status: ('A' for Active; 'I' for Inactive)
REMARK    1  A    between atoms: N_1  and  C_2
REMARK    2  A    between atoms: C_2  and  C_3
REMARK    3  A    between atoms: C_3  and  N_4
REMARK    4  A    between atoms: C_3  and  C_20
REMARK    5  A    between atoms: N_4  and  C_5
REMARK    6  A    between atoms: C_5  and  C_6
REMARK    7  A    between atoms: C_9  and  C_10
REMARK    8  A    between atoms: C_10  and  C_11
REMARK    9  A    between atoms: C_11  and  N_12
REMARK   10  A    between atoms: N_12  and  C_13
REMARK                            x       y       z     vdW  Elec       q    Type
REMARK                         _______ _______ _______ _____ _____    ______ ____
ROOT
ATOM      1  N   UNL     1      47.856   6.919  14.856  0.00  0.00    +0.000 NA
ATOM      2  H   UNL     1      47.560   5.962  15.058  0.00  0.00    +0.000 HD
ENDROOT
BRANCH   1   3
ATOM      3  C   UNL     1      49.043   7.211  15.677  0.00  0.00    +0.000 C 
BRANCH   3   4
ATOM      4  C   UNL     1      49.253   5.969  16.541  0.00  0.00    +0.000 A 
ATOM      5  C   UNL     1      48.255   5.101  16.965  0.00  0.00    +0.000 A 
ATOM      6  S   UNL     1      48.830   3.803  17.915  0.00  0.00    +0.000 S 
ATOM      7  C   UNL     1      50.443   4.315  17.744  0.00  0.00    +0.000 A 
ATOM      8  N   UNL     1      51.471   3.606  18.290  0.00  0.00    +0.000 NA
ATOM      9  C   UNL     1      52.640   4.098  18.049  0.00  0.00    +0.000 A 
ATOM     10  N   UNL     1      52.874   5.244  17.332  0.00  0.00    +0.000 N 
ATOM     11  C   UNL     1      51.871   5.998  16.769  0.00  0.00    +0.000 A 
ATOM     12  O   UNL     1      52.113   7.011  16.115  0.00  0.00    +0.000 OA
ATOM     13  C   UNL     1      50.537   5.476  17.003  0.00  0.00    +0.000 A 
ATOM     14  H   UNL     1      53.818   5.568  17.174  0.00  0.00    +0.000 HD
ENDBRANCH   3   4
BRANCH   3  15
ATOM     15  C   UNL     1      48.876   8.537  16.496  0.00  0.00    +0.000 C 
BRANCH  15  16
ATOM     16  N   UNL     1      47.610   9.253  16.303  0.00  0.00    +0.000 NA
ATOM     17  H   UNL     1      46.969   8.979  17.047  0.00  0.00    +0.000 HD
ATOM     18  H   UNL     1      47.178   8.937  15.436  0.00  0.00    +0.000 HD
ENDBRANCH  15  16
ENDBRANCH   3  15
ENDBRANCH   1   3
BRANCH   1  19
ATOM     19  C   UNL     1      48.113   6.996  13.419  0.00  0.00    +0.000 C 
BRANCH  19  20
ATOM     20  C   UNL     1      47.082   6.215  12.647  0.00  0.00    +0.000 A 
ATOM     21  C   UNL     1      46.479   5.102  13.238  0.00  0.00    +0.000 A 
ATOM     22  C   UNL     1      45.511   4.378  12.552  0.00  0.00    +0.000 A 
ATOM     23  C   UNL     1      45.094   4.764  11.268  0.00  0.00    +0.000 A 
ATOM     24  C   UNL     1      45.703   5.879  10.677  0.00  0.00    +0.000 A 
ATOM     25  C   UNL     1      46.688   6.600  11.362  0.00  0.00    +0.000 A 
BRANCH  23  26
ATOM     26  C   UNL     1      44.035   3.988  10.506  0.00  0.00    +0.000 C 
BRANCH  26  27
ATOM     27  C   UNL     1      44.289   3.994   8.992  0.00  0.00    +0.000 C 
BRANCH  27  28
ATOM     28  N   UNL     1      44.597   2.677   8.426  0.00  0.00    +0.000 NA
ATOM     29  H   UNL     1      44.175   2.604   7.500  0.00  0.00    +0.000 HD
BRANCH  28  30
ATOM     30  C   UNL     1      46.062   2.524   8.308  0.00  0.00    +0.000 C 
ATOM     31  C   UNL     1      46.651   3.451   7.250  0.00  0.00    +0.000 C 
ATOM     32  C   UNL     1      46.815   2.556   6.040  0.00  0.00    +0.000 C 
ATOM     33  N   UNL     1      47.293   1.290   6.610  0.00  0.00    +0.000 NA
ATOM     34  C   UNL     1      46.482   1.114   7.825  0.00  0.00    +0.000 C 
ATOM     35  H   UNL     1      48.268   1.399   6.882  0.00  0.00    +0.000 HD
ENDBRANCH  28  30
ENDBRANCH  27  28
ENDBRANCH  26  27
ENDBRANCH  23  26
ENDBRANCH  19  20
ENDBRANCH   1  19
TORSDOF 10
ENDMDL
MODEL 4
REMARK VINA RESULT:    -6.758      2.834      4.142
REMARK INTER + INTRA:         -11.353
REMARK INTER:                 -10.037
REMARK INTRA:                  -1.317
REMARK UNBOUND:                -0.843
REMARK  Name = 
REMARK  10 active torsions:
REMARK  status: ('A' for Active; 'I' for Inactive)
REMARK    1  A    between atoms: N_1  and  C_2
REMARK    2  A    between atoms: C_2  and  C_3
REMARK    3  A    between atoms: C_3  and  N_4
REMARK    4  A    between atoms: C_3  and  C_20
REMARK    5  A    between atoms: N_4  and  C_5
REMARK    6  A    between atoms: C_5  and  C_6
REMARK    7  A    between atoms: C_9  and  C_10
REMARK    8  A    between atoms: C_10  and  C_11
REMARK    9  A    between atoms: C_11  and  N_12
REMARK   10  A    between atoms: N_12  and  C_13
REMARK                            x       y       z     vdW  Elec       q    Type
REMARK                         _______ _______ _______ _____ _____    ______ ____
ROOT
ATOM      1  N   UNL     1      49.635   6.658  14.034  0.00  0.00    +0.000 NA
ATOM      2  H   UNL     1      50.222   6.165  13.359  0.00  0.00    +0.000 HD
ENDROOT
BRANCH   1   3
ATOM      3  C   UNL     1      50.494   7.585  14.791  0.00  0.00    +0.000 C 
BRANCH   3   4
ATOM      4  C   UNL     1      49.597   8.173  15.878  0.00  0.00    +0.000 A 
ATOM      5  C   UNL     1      49.177   9.494  15.952  0.00  0.00    +0.000 A 
ATOM      6  S   UNL     1      48.172   9.822  17.294  0.00  0.00    +0.000 S 
ATOM      7  C   UNL     1      48.207   8.197  17.792  0.00  0.00    +0.000 A 
ATOM      8  N   UNL     1      47.500   7.775  18.879  0.00  0.00    +0.000 NA
ATOM      9  C   UNL     1      47.596   6.509  19.114  0.00  0.00    +0.000 A 
ATOM     10  N   UNL     1      48.351   5.632  18.379  0.00  0.00    +0.000 N 
ATOM     11  C   UNL     1      49.087   6.009  17.280  0.00  0.00    +0.000 A 
ATOM     12  O   UNL     1      49.740   5.195  16.628  0.00  0.00    +0.000 OA
ATOM     13  C   UNL     1      49.000   7.424  16.967  0.00  0.00    +0.000 A 
ATOM     14  H   UNL     1      48.374   4.649  18.614  0.00  0.00    +0.000 HD
ENDBRANCH   3   4
BRANCH   3  15
ATOM     15  C   UNL     1      51.156   8.659  13.860  0.00  0.00    +0.000 C 
BRANCH  15  16
ATOM     16  N   UNL     1      52.329   8.212  13.101  0.00  0.00    +0.000 NA
ATOM     17  H   UNL     1      52.628   8.974  12.491  0.00  0.00    +0.000 HD
ATOM     18  H   UNL     1      52.053   7.453  12.477  0.00  0.00    +0.000 HD
ENDBRANCH  15  16
ENDBRANCH   3  15
ENDBRANCH   1   3
BRANCH   1  19
ATOM     19  C   UNL     1      48.582   7.332  13.276  0.00  0.00    +0.000 C 
BRANCH  19  20
ATOM     20  C   UNL     1      47.414   6.411  13.043  0.00  0.00    +0.000 A 
ATOM     21  C   UNL     1      47.159   5.382  13.953  0.00  0.00    +0.000 A 
ATOM     22  C   UNL     1      46.076   4.531  13.768  0.00  0.00    +0.000 A 
ATOM     23  C   UNL     1      45.197   4.703  12.687  0.00  0.00    +0.000 A 
ATOM     24  C   UNL     1      45.458   5.734  11.775  0.00  0.00    +0.000 A 
ATOM     25  C   UNL     1      46.556   6.582  11.953  0.00  0.00    +0.000 A 
BRANCH  23  26
ATOM     26  C   UNL     1      44.007   3.786  12.472  0.00  0.00    +0.000 C 
BRANCH  26  27
ATOM     27  C   UNL     1      43.796   3.446  10.990  0.00  0.00    +0.000 C 
BRANCH  27  28
ATOM     28  N   UNL     1      44.691   2.405  10.477  0.00  0.00    +0.000 NA
ATOM     29  H   UNL     1      44.425   1.506  10.880  0.00  0.00    +0.000 HD
BRANCH  28  30
ATOM     30  C   UNL     1      44.571   2.336   9.006  0.00  0.00    +0.000 C 
ATOM     31  C   UNL     1      45.734   1.579   8.372  0.00  0.00    +0.000 C 
ATOM     32  C   UNL     1      46.658   2.678   7.892  0.00  0.00    +0.000 C 
ATOM     33  N   UNL     1      45.740   3.692   7.356  0.00  0.00    +0.000 NA
ATOM     34  C   UNL     1      44.638   3.728   8.331  0.00  0.00    +0.000 C 
ATOM     35  H   UNL     1      45.374   3.366   6.463  0.00  0.00    +0.000 HD
ENDBRANCH  28  30
ENDBRANCH  27  28
ENDBRANCH  26  27
ENDBRANCH  23  26
ENDBRANCH  19  20
ENDBRANCH   1  19
TORSDOF 10
ENDMDL
MODEL 5
REMARK VINA RESULT:    -6.757      3.358      8.827
REMARK INTER + INTRA:         -11.353
REMARK INTER:                 -10.430
REMARK INTRA:                  -0.923
REMARK UNBOUND:                -0.843
REMARK  Name = 
REMARK  10 active torsions:
REMARK  status: ('A' for Active; 'I' for Inactive)
REMARK    1  A    between atoms: N_1  and  C_2
REMARK    2  A    between atoms: C_2  and  C_3
REMARK    3  A    between atoms: C_3  and  N_4
REMARK    4  A    between atoms: C_3  and  C_20
REMARK    5  A    between atoms: N_4  and  C_5
REMARK    6  A    between atoms: C_5  and  C_6
REMARK    7  A    between atoms: C_9  and  C_10
REMARK    8  A    between atoms: C_10  and  C_11
REMARK    9  A    between atoms: C_11  and  N_12
REMARK   10  A    between atoms: N_12  and  C_13
REMARK                            x       y       z     vdW  Elec       q    Type
REMARK                         _______ _______ _______ _____ _____    ______ ____
ROOT
ATOM      1  N   UNL     1      46.689   6.454  11.759  0.00  0.00    +0.000 NA
ATOM      2  H   UNL     1      47.082   5.696  12.320  0.00  0.00    +0.000 HD
ENDROOT
BRANCH   1   3
ATOM      3  C   UNL     1      45.250   6.542  12.060  0.00  0.00    +0.000 C 
BRANCH   3   4
ATOM      4  C   UNL     1      44.697   5.141  11.811  0.00  0.00    +0.000 A 
ATOM      5  C   UNL     1      43.951   4.394  12.712  0.00  0.00    +0.000 A 
ATOM      6  S   UNL     1      43.481   2.864  12.115  0.00  0.00    +0.000 S 
ATOM      7  C   UNL     1      44.201   3.166  10.605  0.00  0.00    +0.000 A 
ATOM      8  N   UNL     1      44.126   2.258   9.591  0.00  0.00    +0.000 NA
ATOM      9  C   UNL     1      44.690   2.641   8.495  0.00  0.00    +0.000 A 
ATOM     10  N   UNL     1      45.341   3.836   8.325  0.00  0.00    +0.000 N 
ATOM     11  C   UNL     1      45.451   4.781   9.319  0.00  0.00    +0.000 A 
ATOM     12  O   UNL     1      46.025   5.853   9.131  0.00  0.00    +0.000 OA
ATOM     13  C   UNL     1      44.820   4.401  10.569  0.00  0.00    +0.000 A 
ATOM     14  H   UNL     1      45.754   4.076   7.435  0.00  0.00    +0.000 HD
ENDBRANCH   3   4
BRANCH   3  15
ATOM     15  C   UNL     1      44.545   7.665  11.223  0.00  0.00    +0.000 C 
BRANCH  15  16
ATOM     16  N   UNL     1      43.093   7.530  11.067  0.00  0.00    +0.000 NA
ATOM     17  H   UNL     1      42.858   6.538  11.085  0.00  0.00    +0.000 HD
ATOM     18  H   UNL     1      42.826   7.859  10.139  0.00  0.00    +0.000 HD
ENDBRANCH  15  16
ENDBRANCH   3  15
ENDBRANCH   1   3
BRANCH   1  19
ATOM     19  C   UNL     1      47.427   7.669  12.099  0.00  0.00    +0.000 C 
BRANCH  19  20
ATOM     20  C   UNL     1      48.341   7.432  13.272  0.00  0.00    +0.000 A 
ATOM     21  C   UNL     1      47.901   6.639  14.335  0.00  0.00    +0.000 A 
ATOM     22  C   UNL     1      48.734   6.390  15.419  0.00  0.00    +0.000 A 
ATOM     23  C   UNL     1      50.041   6.900  15.460  0.00  0.00    +0.000 A 
ATOM     24  C   UNL     1      50.477   7.698  14.394  0.00  0.00    +0.000 A 
ATOM     25  C   UNL     1      49.635   7.960  13.308  0.00  0.00    +0.000 A 
BRANCH  23  26
ATOM     26  C   UNL     1      50.966   6.635  16.634  0.00  0.00    +0.000 C 
BRANCH  26  27
ATOM     27  C   UNL     1      50.352   5.659  17.646  0.00  0.00    +0.000 C 
BRANCH  27  28
ATOM     28  N   UNL     1      50.534   4.244  17.308  0.00  0.00    +0.000 NA
ATOM     29  H   UNL     1      51.449   3.935  17.640  0.00  0.00    +0.000 HD
BRANCH  28  30
ATOM     30  C   UNL     1      49.480   3.442  17.963  0.00  0.00    +0.000 C 
ATOM     31  C   UNL     1      48.713   2.581  16.965  0.00  0.00    +0.000 C 
ATOM     32  C   UNL     1      47.452   3.375  16.702  0.00  0.00    +0.000 C 
ATOM     33  N   UNL     1      47.090   3.900  18.025  0.00  0.00    +0.000 NA
ATOM     34  C   UNL     1      48.376   4.314  18.609  0.00  0.00    +0.000 C 
ATOM     35  H   UNL     1      46.707   3.141  18.587  0.00  0.00    +0.000 HD
ENDBRANCH  28  30
ENDBRANCH  27  28
ENDBRANCH  26  27
ENDBRANCH  23  26
ENDBRANCH  19  20
ENDBRANCH   1  19
TORSDOF 10
ENDMDL
MODEL 6
REMARK VINA RESULT:    -6.308      3.873      8.657
REMARK INTER + INTRA:         -10.653
REMARK INTER:                  -8.966
REMARK INTRA:                  -1.687
REMARK UNBOUND:                -0.843
REMARK  Name = 
REMARK  10 active torsions:
REMARK  status: ('A' for Active; 'I' for Inactive)
REMARK    1  A    between atoms: N_1  and  C_2
REMARK    2  A    between atoms: C_2  and  C_3
REMARK    3  A    between atoms: C_3  and  N_4
REMARK    4  A    between atoms: C_3  and  C_20
REMARK    5  A    between atoms: N_4  and  C_5
REMARK    6  A    between atoms: C_5  and  C_6
REMARK    7  A    between atoms: C_9  and  C_10
REMARK    8  A    between atoms: C_10  and  C_11
REMARK    9  A    between atoms: C_11  and  N_12
REMARK   10  A    between atoms: N_12  and  C_13
REMARK                            x       y       z     vdW  Elec       q    Type
REMARK                         _______ _______ _______ _____ _____    ______ ____
ROOT
ATOM      1  N   UNL     1      47.390   8.764  14.714  0.00  0.00    +0.000 NA
ATOM      2  H   UNL     1      46.678   9.495  14.754  0.00  0.00    +0.000 HD
ENDROOT
BRANCH   1   3
ATOM      3  C   UNL     1      47.529   8.342  13.310  0.00  0.00    +0.000 C 
BRANCH   3   4
ATOM      4  C   UNL     1      46.882   6.960  13.237  0.00  0.00    +0.000 A 
ATOM      5  C   UNL     1      47.340   5.819  13.880  0.00  0.00    +0.000 A 
ATOM      6  S   UNL     1      46.379   4.436  13.594  0.00  0.00    +0.000 S 
ATOM      7  C   UNL     1      45.278   5.323  12.650  0.00  0.00    +0.000 A 
ATOM      8  N   UNL     1      44.168   4.736  12.119  0.00  0.00    +0.000 NA
ATOM      9  C   UNL     1      43.409   5.542  11.456  0.00  0.00    +0.000 A 
ATOM     10  N   UNL     1      43.669   6.874  11.254  0.00  0.00    +0.000 N 
ATOM     11  C   UNL     1      44.778   7.510  11.761  0.00  0.00    +0.000 A 
ATOM     12  O   UNL     1      44.974   8.711  11.579  0.00  0.00    +0.000 OA
ATOM     13  C   UNL     1      45.656   6.646  12.527  0.00  0.00    +0.000 A 
ATOM     14  H   UNL     1      43.025   7.450  10.729  0.00  0.00    +0.000 HD
ENDBRANCH   3   4
BRANCH   3  15
ATOM     15  C   UNL     1      49.023   8.373  12.835  0.00  0.00    +0.000 C 
BRANCH  15  16
ATOM     16  N   UNL     1      49.286   7.794  11.513  0.00  0.00    +0.000 NA
ATOM     17  H   UNL     1      48.577   7.085  11.325  0.00  0.00    +0.000 HD
ATOM     18  H   UNL     1      50.175   7.294  11.539  0.00  0.00    +0.000 HD
ENDBRANCH  15  16
ENDBRANCH   3  15
ENDBRANCH   1   3
BRANCH   1  19
ATOM     19  C   UNL     1      48.618   9.329  15.272  0.00  0.00    +0.000 C 
BRANCH  19  20
ATOM     20  C   UNL     1      49.074   8.543  16.472  0.00  0.00    +0.000 A 
ATOM     21  C   UNL     1      48.176   8.299  17.515  0.00  0.00    +0.000 A 
ATOM     22  C   UNL     1      48.569   7.558  18.624  0.00  0.00    +0.000 A 
ATOM     23  C   UNL     1      49.859   7.013  18.709  0.00  0.00    +0.000 A 
ATOM     24  C   UNL     1      50.758   7.263  17.663  0.00  0.00    +0.000 A 
ATOM     25  C   UNL     1      50.368   8.019  16.553  0.00  0.00    +0.000 A 
BRANCH  23  26
ATOM     26  C   UNL     1      50.304   6.199  19.911  0.00  0.00    +0.000 C 
BRANCH  26  27
ATOM     27  C   UNL     1      50.935   4.861  19.502  0.00  0.00    +0.000 C 
BRANCH  27  28
ATOM     28  N   UNL     1      49.973   3.856  19.039  0.00  0.00    +0.000 NA
ATOM     29  H   UNL     1      49.028   4.170  19.262  0.00  0.00    +0.000 HD
BRANCH  28  30
ATOM     30  C   UNL     1      50.101   3.692  17.576  0.00  0.00    +0.000 C 
ATOM     31  C   UNL     1      48.801   4.019  16.849  0.00  0.00    +0.000 C 
ATOM     32  C   UNL     1      48.182   2.662  16.592  0.00  0.00    +0.000 C 
ATOM     33  N   UNL     1      49.329   1.824  16.220  0.00  0.00    +0.000 NA
ATOM     34  C   UNL     1      50.388   2.229  17.158  0.00  0.00    +0.000 C 
ATOM     35  H   UNL     1      49.621   2.067  15.275  0.00  0.00    +0.000 HD
ENDBRANCH  28  30
ENDBRANCH  27  28
ENDBRANCH  26  27
ENDBRANCH  23  26
ENDBRANCH  19  20
ENDBRANCH   1  19
TORSDOF 10
ENDMDL
MODEL 7
REMARK VINA RESULT:    -6.236      2.716      4.148
REMARK INTER + INTRA:         -10.542
REMARK INTER:                  -9.355
REMARK INTRA:                  -1.186
REMARK UNBOUND:                -0.843
REMARK  Name = 
REMARK  10 active torsions:
REMARK  status: ('A' for Active; 'I' for Inactive)
REMARK    1  A    between atoms: N_1  and  C_2
REMARK    2  A    between atoms: C_2  and  C_3
REMARK    3  A    between atoms: C_3  and  N_4
REMARK    4  A    between atoms: C_3  and  C_20
REMARK    5  A    between atoms: N_4  and  C_5
REMARK    6  A    between atoms: C_5  and  C_6
REMARK    7  A    between atoms: C_9  and  C_10
REMARK    8  A    between atoms: C_10  and  C_11
REMARK    9  A    between atoms: C_11  and  N_12
REMARK   10  A    between atoms: N_12  and  C_13
REMARK                            x       y       z     vdW  Elec       q    Type
REMARK                         _______ _______ _______ _____ _____    ______ ____
ROOT
ATOM      1  N   UNL     1      47.956   7.262  18.079  0.00  0.00    +0.000 NA
ATOM      2  H   UNL     1      47.541   6.505  17.533  0.00  0.00    +0.000 HD
ENDROOT
BRANCH   1   3
ATOM      3  C   UNL     1      48.640   6.665  19.238  0.00  0.00    +0.000 C 
BRANCH   3   4
ATOM      4  C   UNL     1      49.520   5.557  18.663  0.00  0.00    +0.000 A 
ATOM      5  C   UNL     1      50.892   5.445  18.833  0.00  0.00    +0.000 A 
ATOM      6  S   UNL     1      51.572   4.080  18.062  0.00  0.00    +0.000 S 
ATOM      7  C   UNL     1      50.048   3.552  17.524  0.00  0.00    +0.000 A 
ATOM      8  N   UNL     1      49.909   2.391  16.823  0.00  0.00    +0.000 NA
ATOM      9  C   UNL     1      48.690   2.103  16.513  0.00  0.00    +0.000 A 
ATOM     10  N   UNL     1      47.601   2.878  16.817  0.00  0.00    +0.000 N 
ATOM     11  C   UNL     1      47.689   4.060  17.515  0.00  0.00    +0.000 A 
ATOM     12  O   UNL     1      46.692   4.725  17.791  0.00  0.00    +0.000 OA
ATOM     13  C   UNL     1      49.042   4.421  17.898  0.00  0.00    +0.000 A 
ATOM     14  H   UNL     1      46.670   2.588  16.550  0.00  0.00    +0.000 HD
ENDBRANCH   3   4
BRANCH   3  15
ATOM     15  C   UNL     1      47.624   6.174  20.327  0.00  0.00    +0.000 C 
BRANCH  15  16
ATOM     16  N   UNL     1      47.932   4.883  20.952  0.00  0.00    +0.000 NA
ATOM     17  H   UNL     1      47.266   4.726  21.710  0.00  0.00    +0.000 HD
ATOM     18  H   UNL     1      48.847   4.938  21.398  0.00  0.00    +0.000 HD
ENDBRANCH  15  16
ENDBRANCH   3  15
ENDBRANCH   1   3
BRANCH   1  19
ATOM     19  C   UNL     1      48.857   7.991  17.187  0.00  0.00    +0.000 C 
BRANCH  19  20
ATOM     20  C   UNL     1      48.443   7.821  15.749  0.00  0.00    +0.000 A 
ATOM     21  C   UNL     1      48.587   6.574  15.136  0.00  0.00    +0.000 A 
ATOM     22  C   UNL     1      48.194   6.388  13.816  0.00  0.00    +0.000 A 
ATOM     23  C   UNL     1      47.616   7.434  13.080  0.00  0.00    +0.000 A 
ATOM     24  C   UNL     1      47.476   8.684  13.697  0.00  0.00    +0.000 A 
ATOM     25  C   UNL     1      47.884   8.875  15.021  0.00  0.00    +0.000 A 
BRANCH  23  26
ATOM     26  C   UNL     1      47.177   7.248  11.639  0.00  0.00    +0.000 C 
BRANCH  26  27
ATOM     27  C   UNL     1      46.141   6.125  11.489  0.00  0.00    +0.000 C 
BRANCH  27  28
ATOM     28  N   UNL     1      44.914   6.328  12.265  0.00  0.00    +0.000 NA
ATOM     29  H   UNL     1      44.209   6.762  11.669  0.00  0.00    +0.000 HD
BRANCH  28  30
ATOM     30  C   UNL     1      44.414   5.022  12.743  0.00  0.00    +0.000 C 
ATOM     31  C   UNL     1      45.139   3.856  12.079  0.00  0.00    +0.000 C 
ATOM     32  C   UNL     1      44.190   3.420  10.983  0.00  0.00    +0.000 C 
ATOM     33  N   UNL     1      42.866   3.523  11.612  0.00  0.00    +0.000 NA
ATOM     34  C   UNL     1      42.929   4.777  12.378  0.00  0.00    +0.000 C 
ATOM     35  H   UNL     1      42.750   2.748  12.263  0.00  0.00    +0.000 HD
ENDBRANCH  28  30
ENDBRANCH  27  28
ENDBRANCH  26  27
ENDBRANCH  23  26
ENDBRANCH  19  20
ENDBRANCH   1  19
TORSDOF 10
ENDMDL
MODEL 8
REMARK VINA RESULT:    -6.197      3.598      4.302
REMARK INTER + INTRA:         -10.481
REMARK INTER:                  -9.551
REMARK INTRA:                  -0.931
REMARK UNBOUND:                -0.843
REMARK  Name = 
REMARK  10 active torsions:
REMARK  status: ('A' for Active; 'I' for Inactive)
REMARK    1  A    between atoms: N_1  and  C_2
REMARK    2  A    between atoms: C_2  and  C_3
REMARK    3  A    between atoms: C_3  and  N_4
REMARK    4  A    between atoms: C_3  and  C_20
REMARK    5  A    between atoms: N_4  and  C_5
REMARK    6  A    between atoms: C_5  and  C_6
REMARK    7  A    between atoms: C_9  and  C_10
REMARK    8  A    between atoms: C_10  and  C_11
REMARK    9  A    between atoms: C_11  and  N_12
REMARK   10  A    between atoms: N_12  and  C_13
REMARK                            x       y       z     vdW  Elec       q    Type
REMARK                         _______ _______ _______ _____ _____    ______ ____
ROOT
ATOM      1  N   UNL     1      48.903   6.399  14.009  0.00  0.00    +0.000 NA
ATOM      2  H   UNL     1      48.866   6.494  12.992  0.00  0.00    +0.000 HD
ENDROOT
BRANCH   1   3
ATOM      3  C   UNL     1      49.261   7.711  14.574  0.00  0.00    +0.000 C 
BRANCH   3   4
ATOM      4  C   UNL     1      50.739   7.603  14.945  0.00  0.00    +0.000 A 
ATOM      5  C   UNL     1      51.261   6.814  15.960  0.00  0.00    +0.000 A 
ATOM      6  S   UNL     1      52.960   6.918  16.107  0.00  0.00    +0.000 S 
ATOM      7  C   UNL     1      53.069   7.972  14.777  0.00  0.00    +0.000 A 
ATOM      8  N   UNL     1      54.276   8.422  14.329  0.00  0.00    +0.000 NA
ATOM      9  C   UNL     1      54.204   9.186  13.292  0.00  0.00    +0.000 A 
ATOM     10  N   UNL     1      53.037   9.561  12.676  0.00  0.00    +0.000 N 
ATOM     11  C   UNL     1      51.796   9.141  13.094  0.00  0.00    +0.000 A 
ATOM     12  O   UNL     1      50.767   9.478  12.509  0.00  0.00    +0.000 OA
ATOM     13  C   UNL     1      51.827   8.266  14.252  0.00  0.00    +0.000 A 
ATOM     14  H   UNL     1      53.053  10.158  11.860  0.00  0.00    +0.000 HD
ENDBRANCH   3   4
BRANCH   3  15
ATOM     15  C   UNL     1      48.329   8.105  15.772  0.00  0.00    +0.000 C 
BRANCH  15  16
ATOM     16  N   UNL     1      47.554   9.339  15.601  0.00  0.00    +0.000 NA
ATOM     17  H   UNL     1      47.747   9.714  14.672  0.00  0.00    +0.000 HD
ATOM     18  H   UNL     1      47.895  10.040  16.258  0.00  0.00    +0.000 HD
ENDBRANCH  15  16
ENDBRANCH   3  15
ENDBRANCH   1   3
BRANCH   1  19
ATOM     19  C   UNL     1      47.592   5.920  14.444  0.00  0.00    +0.000 C 
BRANCH  19  20
ATOM     20  C   UNL     1      46.740   5.539  13.262  0.00  0.00    +0.000 A 
ATOM     21  C   UNL     1      46.605   6.433  12.197  0.00  0.00    +0.000 A 
ATOM     22  C   UNL     1      45.840   6.095  11.086  0.00  0.00    +0.000 A 
ATOM     23  C   UNL     1      45.214   4.843  10.994  0.00  0.00    +0.000 A 
ATOM     24  C   UNL     1      45.349   3.950  12.065  0.00  0.00    +0.000 A 
ATOM     25  C   UNL     1      46.108   4.294  13.189  0.00  0.00    +0.000 A 
BRANCH  23  26
ATOM     26  C   UNL     1      44.378   4.455   9.787  0.00  0.00    +0.000 C 
BRANCH  26  27
ATOM     27  C   UNL     1      44.404   2.943   9.526  0.00  0.00    +0.000 C 
BRANCH  27  28
ATOM     28  N   UNL     1      44.834   2.571   8.174  0.00  0.00    +0.000 NA
ATOM     29  H   UNL     1      44.520   3.283   7.515  0.00  0.00    +0.000 HD
BRANCH  28  30
ATOM     30  C   UNL     1      46.309   2.487   8.135  0.00  0.00    +0.000 C 
ATOM     31  C   UNL     1      46.908   3.426   7.093  0.00  0.00    +0.000 C 
ATOM     32  C   UNL     1      47.177   2.524   5.908  0.00  0.00    +0.000 C 
ATOM     33  N   UNL     1      47.684   1.289   6.522  0.00  0.00    +0.000 NA
ATOM     34  C   UNL     1      46.820   1.092   7.697  0.00  0.00    +0.000 C 
ATOM     35  H   UNL     1      48.638   1.449   6.843  0.00  0.00    +0.000 HD
ENDBRANCH  28  30
ENDBRANCH  27  28
ENDBRANCH  26  27
ENDBRANCH  23  26
ENDBRANCH  19  20
ENDBRANCH   1  19
TORSDOF 10
ENDMDL
MODEL 9
REMARK VINA RESULT:    -5.950      3.788      8.527
REMARK INTER + INTRA:         -10.097
REMARK INTER:                  -8.605
REMARK INTRA:                  -1.492
REMARK UNBOUND:                -0.843
REMARK  Name = 
REMARK  10 active torsions:
REMARK  status: ('A' for Active; 'I' for Inactive)
REMARK    1  A    between atoms: N_1  and  C_2
REMARK    2  A    between atoms: C_2  and  C_3
REMARK    3  A    between atoms: C_3  and  N_4
REMARK    4  A    between atoms: C_3  and  C_20
REMARK    5  A    between atoms: N_4  and  C_5
REMARK    6  A    between atoms: C_5  and  C_6
REMARK    7  A    between atoms: C_9  and  C_10
REMARK    8  A    between atoms: C_10  and  C_11
REMARK    9  A    between atoms: C_11  and  N_12
REMARK   10  A    between atoms: N_12  and  C_13
REMARK                            x       y       z     vdW  Elec       q    Type
REMARK                         _______ _______ _______ _____ _____    ______ ____
ROOT
ATOM      1  N   UNL     1      47.159   8.158  14.162  0.00  0.00    +0.000 NA
ATOM      2  H   UNL     1      46.294   8.522  14.566  0.00  0.00    +0.000 HD
ENDROOT
BRANCH   1   3
ATOM      3  C   UNL     1      47.061   8.275  12.697  0.00  0.00    +0.000 C 
BRANCH   3   4
ATOM      4  C   UNL     1      45.924   7.339  12.291  0.00  0.00    +0.000 A 
ATOM      5  C   UNL     1      44.803   7.701  11.558  0.00  0.00    +0.000 A 
ATOM      6  S   UNL     1      43.724   6.409  11.269  0.00  0.00    +0.000 S 
ATOM      7  C   UNL     1      44.745   5.302  12.057  0.00  0.00    +0.000 A 
ATOM      8  N   UNL     1      44.430   3.978  12.132  0.00  0.00    +0.000 NA
ATOM      9  C   UNL     1      45.316   3.255  12.730  0.00  0.00    +0.000 A 
ATOM     10  N   UNL     1      46.477   3.736  13.280  0.00  0.00    +0.000 N 
ATOM     11  C   UNL     1      46.836   5.063  13.238  0.00  0.00    +0.000 A 
ATOM     12  O   UNL     1      47.893   5.463  13.724  0.00  0.00    +0.000 OA
ATOM     13  C   UNL     1      45.875   5.915  12.563  0.00  0.00    +0.000 A 
ATOM     14  H   UNL     1      47.132   3.111  13.728  0.00  0.00    +0.000 HD
ENDBRANCH   3   4
BRANCH   3  15
ATOM     15  C   UNL     1      48.427   7.964  11.993  0.00  0.00    +0.000 C 
BRANCH  15  16
ATOM     16  N   UNL     1      49.120   9.115  11.404  0.00  0.00    +0.000 NA
ATOM     17  H   UNL     1      49.647   8.792  10.593  0.00  0.00    +0.000 HD
ATOM     18  H   UNL     1      49.816   9.458  12.066  0.00  0.00    +0.000 HD
ENDBRANCH  15  16
ENDBRANCH   3  15
ENDBRANCH   1   3
BRANCH   1  19
ATOM     19  C   UNL     1      48.260   8.933  14.733  0.00  0.00    +0.000 C 
BRANCH  19  20
ATOM     20  C   UNL     1      49.018   8.121  15.750  0.00  0.00    +0.000 A 
ATOM     21  C   UNL     1      50.102   7.343  15.337  0.00  0.00    +0.000 A 
ATOM     22  C   UNL     1      50.829   6.601  16.261  0.00  0.00    +0.000 A 
ATOM     23  C   UNL     1      50.513   6.639  17.628  0.00  0.00    +0.000 A 
ATOM     24  C   UNL     1      49.423   7.419  18.038  0.00  0.00    +0.000 A 
ATOM     25  C   UNL     1      48.683   8.155  17.107  0.00  0.00    +0.000 A 
BRANCH  23  26
ATOM     26  C   UNL     1      51.298   5.839  18.651  0.00  0.00    +0.000 C 
BRANCH  26  27
ATOM     27  C   UNL     1      50.448   4.740  19.304  0.00  0.00    +0.000 C 
BRANCH  27  28
ATOM     28  N   UNL     1      50.120   3.622  18.413  0.00  0.00    +0.000 NA
ATOM     29  H   UNL     1      50.662   2.803  18.690  0.00  0.00    +0.000 HD
BRANCH  28  30
ATOM     30  C   UNL     1      48.679   3.315  18.523  0.00  0.00    +0.000 C 
ATOM     31  C   UNL     1      48.025   3.148  17.155  0.00  0.00    +0.000 C 
ATOM     32  C   UNL     1      47.359   4.485  16.910  0.00  0.00    +0.000 C 
ATOM     33  N   UNL     1      46.808   4.843  18.224  0.00  0.00    +0.000 NA
ATOM     34  C   UNL     1      47.866   4.461  19.172  0.00  0.00    +0.000 C 
ATOM     35  H   UNL     1      45.987   4.267  18.403  0.00  0.00    +0.000 HD
ENDBRANCH  28  30
ENDBRANCH  27  28
ENDBRANCH  26  27
ENDBRANCH  23  26
ENDBRANCH  19  20
ENDBRANCH   1  19
TORSDOF 10
ENDMDL
