MODEL 1
REMARK VINA RESULT:    -8.621      0.000      0.000
REMARK INTER + INTRA:         -14.466
REMARK INTER:                 -12.653
REMARK INTRA:                  -1.814
REMARK UNBOUND:                -1.814
REMARK  Name = 
REMARK  10 active torsions:
REMARK  status: ('A' for Active; 'I' for Inactive)
REMARK    1  A    between atoms: C_1  and  O_2
REMARK    2  A    between atoms: O_2  and  C_3
REMARK    3  A    between atoms: C_10  and  C_11
REMARK    4  A    between atoms: N_13  and  C_14
REMARK    5  A    between atoms: C_14  and  C_15
REMARK    6  A    between atoms: C_18  and  C_19
REMARK    7  A    between atoms: C_19  and  N_20
REMARK    8  A    between atoms: N_20  and  C_21
REMARK    9  A    between atoms: C_21  and  C_22
REMARK   10  A    between atoms: C_21  and  C_23
REMARK                            x       y       z     vdW  Elec       q    Type
REMARK                         _______ _______ _______ _____ _____    ______ ____
ROOT
ATOM      1  C   UNL     1      46.367   7.409  12.501  0.00  0.00    +0.000 A 
ATOM      2  C   UNL     1      46.826   6.627  11.433  0.00  0.00    +0.000 A 
ATOM      3  C   UNL     1      45.939   5.842  10.685  0.00  0.00    +0.000 A 
ATOM      4  C   UNL     1      44.569   5.822  10.979  0.00  0.00    +0.000 A 
ATOM      5  C   UNL     1      44.101   6.680  11.988  0.00  0.00    +0.000 A 
ATOM      6  C   UNL     1      44.987   7.463  12.740  0.00  0.00    +0.000 A 
ENDROOT
BRANCH   1   7
ATOM      7  C   UNL     1      47.337   8.163  13.379  0.00  0.00    +0.000 C 
BRANCH   7  10
ATOM      8  C   UNL     1      48.876   6.865  14.798  0.00  0.00    +0.000 C 
ATOM      9  O   UNL     1      49.770   6.938  13.961  0.00  0.00    +0.000 OA
ATOM     10  N   UNL     1      47.650   7.445  14.583  0.00  0.00    +0.000 N 
ATOM     11  H   UNL     1      46.928   7.380  15.287  0.00  0.00    +0.000 HD
BRANCH   8  19
ATOM     12  C   UNL     1      47.271   4.204  16.277  0.00  0.00    +0.000 A 
ATOM     13  N   UNL     1      46.873   3.160  17.028  0.00  0.00    +0.000 NA
ATOM     14  C   UNL     1      47.537   2.917  18.162  0.00  0.00    +0.000 A 
ATOM     15  N   UNL     1      48.563   3.606  18.654  0.00  0.00    +0.000 NA
ATOM     16  C   UNL     1      48.935   4.629  17.866  0.00  0.00    +0.000 A 
ATOM     17  S   UNL     1      50.222   5.629  18.340  0.00  0.00    +0.000 S 
ATOM     18  C   UNL     1      50.081   6.565  16.927  0.00  0.00    +0.000 A 
ATOM     19  C   UNL     1      49.069   6.144  16.070  0.00  0.00    +0.000 A 
ATOM     20  C   UNL     1      48.368   4.999  16.650  0.00  0.00    +0.000 A 
BRANCH  12  22
ATOM     21  C   UNL     1      47.048   3.689  14.004  0.00  0.00    +0.000 C 
ATOM     22  O   UNL     1      46.586   4.461  15.109  0.00  0.00    +0.000 OA
ENDBRANCH  12  22
ENDBRANCH   8  19
ENDBRANCH   7  10
ENDBRANCH   1   7
BRANCH   4  23
ATOM     23  C   UNL     1      43.587   4.949  10.216  0.00  0.00    +0.000 C 
BRANCH  23  24
ATOM     24  N   UNL     1      44.136   4.427   8.964  0.00  0.00    +0.000 NA
ATOM     25  H   UNL     1      45.021   4.891   8.769  0.00  0.00    +0.000 HD
BRANCH  24  26
ATOM     26  C   UNL     1      44.322   2.967   8.934  0.00  0.00    +0.000 C 
ATOM     27  C   UNL     1      44.415   2.307  10.317  0.00  0.00    +0.000 C 
BRANCH  26  28
ATOM     28  C   UNL     1      45.558   2.631   8.101  0.00  0.00    +0.000 A 
ATOM     29  C   UNL     1      46.150   3.614   7.290  0.00  0.00    +0.000 A 
ATOM     30  C   UNL     1      47.308   3.333   6.557  0.00  0.00    +0.000 A 
ATOM     31  C   UNL     1      47.891   2.070   6.623  0.00  0.00    +0.000 A 
ATOM     32  C   UNL     1      47.309   1.080   7.411  0.00  0.00    +0.000 A 
ATOM     33  C   UNL     1      46.152   1.357   8.142  0.00  0.00    +0.000 A 
ENDBRANCH  26  28
ENDBRANCH  24  26
ENDBRANCH  23  24
ENDBRANCH   4  23
TORSDOF 8
ENDMDL
MODEL 2
REMARK VINA RESULT:    -7.829      1.378      1.917
REMARK INTER + INTRA:         -13.305
REMARK INTER:                 -11.961
REMARK INTRA:                  -1.344
REMARK UNBOUND:                -1.814
REMARK  Name = 
REMARK  10 active torsions:
REMARK  status: ('A' for Active; 'I' for Inactive)
REMARK    1  A    between atoms: C_1  and  O_2
REMARK    2  A    between atoms: O_2  and  C_3
REMARK    3  A    between atoms: C_10  and  C_11
REMARK    4  A    between atoms: N_13  and  C_14
REMARK    5  A    between atoms: C_14  and  C_15
REMARK    6  A    between atoms: C_18  and  C_19
REMARK    7  A    between atoms: C_19  and  N_20
REMARK    8  A    between atoms: N_20  and  C_21
REMARK    9  A    between atoms: C_21  and  C_22
REMARK   10  A    between atoms: C_21  and  C_23
REMARK                            x       y       z     vdW  Elec       q    Type
REMARK                         _______ _______ _______ _____ _____    ______ ____
ROOT
ATOM      1  C   UNL     1      46.906   7.385  12.903  0.00  0.00    +0.000 A 
ATOM      2  C   UNL     1      45.854   8.075  12.287  0.00  0.00    +0.000 A 
ATOM      3  C   UNL     1      44.862   7.385  11.577  0.00  0.00    +0.000 A 
ATOM      4  C   UNL     1      44.891   5.988  11.469  0.00  0.00    +0.000 A 
ATOM      5  C   UNL     1      45.893   5.296  12.169  0.00  0.00    +0.000 A 
ATOM      6  C   UNL     1      46.888   5.984  12.876  0.00  0.00    +0.000 A 
ENDROOT
BRANCH   1   7
ATOM      7  C   UNL     1      48.036   8.134  13.568  0.00  0.00    +0.000 C 
BRANCH   7  10
ATOM      8  C   UNL     1      48.989   7.292  15.677  0.00  0.00    +0.000 C 
ATOM      9  O   UNL     1      49.927   6.763  15.087  0.00  0.00    +0.000 OA
ATOM     10  N   UNL     1      48.020   7.985  14.996  0.00  0.00    +0.000 N 
ATOM     11  H   UNL     1      47.258   8.419  15.501  0.00  0.00    +0.000 HD
BRANCH   8  19
ATOM     12  C   UNL     1      48.757   4.649  17.869  0.00  0.00    +0.000 A 
ATOM     13  N   UNL     1      48.718   3.816  18.926  0.00  0.00    +0.000 NA
ATOM     14  C   UNL     1      48.667   4.357  20.147  0.00  0.00    +0.000 A 
ATOM     15  N   UNL     1      48.640   5.652  20.449  0.00  0.00    +0.000 NA
ATOM     16  C   UNL     1      48.695   6.446  19.366  0.00  0.00    +0.000 A 
ATOM     17  S   UNL     1      48.658   8.132  19.559  0.00  0.00    +0.000 S 
ATOM     18  C   UNL     1      48.779   8.376  17.880  0.00  0.00    +0.000 A 
ATOM     19  C   UNL     1      48.852   7.199  17.142  0.00  0.00    +0.000 A 
ATOM     20  C   UNL     1      48.776   6.044  18.036  0.00  0.00    +0.000 A 
BRANCH  12  22
ATOM     21  C   UNL     1      47.515   3.875  16.041  0.00  0.00    +0.000 C 
ATOM     22  O   UNL     1      48.804   4.095  16.608  0.00  0.00    +0.000 OA
ENDBRANCH  12  22
ENDBRANCH   8  19
ENDBRANCH   7  10
ENDBRANCH   1   7
BRANCH   4  23
ATOM     23  C   UNL     1      43.856   5.213  10.671  0.00  0.00    +0.000 C 
BRANCH  23  24
ATOM     24  N   UNL     1      44.358   4.752   9.375  0.00  0.00    +0.000 NA
ATOM     25  H   UNL     1      45.320   5.064   9.261  0.00  0.00    +0.000 HD
BRANCH  24  26
ATOM     26  C   UNL     1      44.278   3.297   9.166  0.00  0.00    +0.000 C 
ATOM     27  C   UNL     1      44.192   2.470  10.457  0.00  0.00    +0.000 C 
BRANCH  26  28
ATOM     28  C   UNL     1      45.467   2.841   8.323  0.00  0.00    +0.000 A 
ATOM     29  C   UNL     1      45.909   1.509   8.389  0.00  0.00    +0.000 A 
ATOM     30  C   UNL     1      46.967   1.066   7.590  0.00  0.00    +0.000 A 
ATOM     31  C   UNL     1      47.599   1.944   6.713  0.00  0.00    +0.000 A 
ATOM     32  C   UNL     1      47.184   3.272   6.644  0.00  0.00    +0.000 A 
ATOM     33  C   UNL     1      46.128   3.717   7.443  0.00  0.00    +0.000 A 
ENDBRANCH  26  28
ENDBRANCH  24  26
ENDBRANCH  23  24
ENDBRANCH   4  23
TORSDOF 8
ENDMDL
MODEL 3
REMARK VINA RESULT:    -7.625      1.179      1.305
REMARK INTER + INTRA:         -13.005
REMARK INTER:                 -11.736
REMARK INTRA:                  -1.269
REMARK UNBOUND:                -1.814
REMARK  Name = 
REMARK  10 active torsions:
REMARK  status: ('A' for Active; 'I' for Inactive)
REMARK    1  A    between atoms: C_1  and  O_2
REMARK    2  A    between atoms: O_2  and  C_3
REMARK    3  A    between atoms: C_10  and  C_11
REMARK    4  A    between atoms: N_13  and  C_14
REMARK    5  A    between atoms: C_14  and  C_15
REMARK    6  A    between atoms: C_18  and  C_19
REMARK    7  A    between atoms: C_19  and  N_20
REMARK    8  A    between atoms: N_20  and  C_21
REMARK    9  A    between atoms: C_21  and  C_22
REMARK   10  A    between atoms: C_21  and  C_23
REMARK                            x       y       z     vdW  Elec       q    Type
REMARK                         _______ _______ _______ _____ _____    ______ ____
ROOT
ATOM      1  C   UNL     1      46.973   8.094  13.101  0.00  0.00    +0.000 A 
ATOM      2  C   UNL     1      47.486   6.934  12.506  0.00  0.00    +0.000 A 
ATOM      3  C   UNL     1      46.680   6.130  11.690  0.00  0.00    +0.000 A 
ATOM      4  C   UNL     1      45.342   6.466  11.441  0.00  0.00    +0.000 A 
ATOM      5  C   UNL     1      44.863   7.680  11.961  0.00  0.00    +0.000 A 
ATOM      6  C   UNL     1      45.666   8.484  12.781  0.00  0.00    +0.000 A 
ENDROOT
BRANCH   1   7
ATOM      7  C   UNL     1      47.806   8.897  14.072  0.00  0.00    +0.000 C 
BRANCH   7  10
ATOM      8  C   UNL     1      49.164   7.990  15.915  0.00  0.00    +0.000 C 
ATOM      9  O   UNL     1      50.208   8.322  15.361  0.00  0.00    +0.000 OA
ATOM     10  N   UNL     1      47.942   8.241  15.342  0.00  0.00    +0.000 N 
ATOM     11  H   UNL     1      47.093   7.965  15.817  0.00  0.00    +0.000 HD
BRANCH   8  19
ATOM     12  C   UNL     1      48.512   4.749  16.874  0.00  0.00    +0.000 A 
ATOM     13  N   UNL     1      48.381   3.562  17.496  0.00  0.00    +0.000 NA
ATOM     14  C   UNL     1      48.604   3.519  18.813  0.00  0.00    +0.000 A 
ATOM     15  N   UNL     1      48.940   4.535  19.603  0.00  0.00    +0.000 NA
ATOM     16  C   UNL     1      49.075   5.695  18.939  0.00  0.00    +0.000 A 
ATOM     17  S   UNL     1      49.489   7.106  19.788  0.00  0.00    +0.000 S 
ATOM     18  C   UNL     1      49.480   8.028  18.359  0.00  0.00    +0.000 A 
ATOM     19  C   UNL     1      49.171   7.297  17.216  0.00  0.00    +0.000 A 
ATOM     20  C   UNL     1      48.903   5.904  17.574  0.00  0.00    +0.000 A 
BRANCH  12  22
ATOM     21  C   UNL     1      46.949   4.426  15.161  0.00  0.00    +0.000 C 
ATOM     22  O   UNL     1      48.278   4.799  15.517  0.00  0.00    +0.000 OA
ENDBRANCH  12  22
ENDBRANCH   8  19
ENDBRANCH   7  10
ENDBRANCH   1   7
BRANCH   4  23
ATOM     23  C   UNL     1      44.428   5.593  10.597  0.00  0.00    +0.000 C 
BRANCH  23  24
ATOM     24  N   UNL     1      45.116   4.966   9.467  0.00  0.00    +0.000 NA
ATOM     25  H   UNL     1      46.101   4.852   9.699  0.00  0.00    +0.000 HD
BRANCH  24  26
ATOM     26  C   UNL     1      44.552   3.676   9.041  0.00  0.00    +0.000 C 
ATOM     27  C   UNL     1      44.107   2.762  10.193  0.00  0.00    +0.000 C 
BRANCH  26  28
ATOM     28  C   UNL     1      45.558   2.953   8.149  0.00  0.00    +0.000 A 
ATOM     29  C   UNL     1      46.125   3.613   7.046  0.00  0.00    +0.000 A 
ATOM     30  C   UNL     1      47.081   2.979   6.246  0.00  0.00    +0.000 A 
ATOM     31  C   UNL     1      47.485   1.678   6.535  0.00  0.00    +0.000 A 
ATOM     32  C   UNL     1      46.923   1.003   7.615  0.00  0.00    +0.000 A 
ATOM     33  C   UNL     1      45.967   1.634   8.415  0.00  0.00    +0.000 A 
ENDBRANCH  26  28
ENDBRANCH  24  26
ENDBRANCH  23  24
ENDBRANCH   4  23
TORSDOF 8
ENDMDL
MODEL 4
REMARK VINA RESULT:    -7.567      2.557      3.381
REMARK INTER + INTRA:         -12.919
REMARK INTER:                 -11.555
REMARK INTRA:                  -1.364
REMARK UNBOUND:                -1.814
REMARK  Name = 
REMARK  10 active torsions:
REMARK  status: ('A' for Active; 'I' for Inactive)
REMARK    1  A    between atoms: C_1  and  O_2
REMARK    2  A    between atoms: O_2  and  C_3
REMARK    3  A    between atoms: C_10  and  C_11
REMARK    4  A    between atoms: N_13  and  C_14
REMARK    5  A    between atoms: C_14  and  C_15
REMARK    6  A    between atoms: C_18  and  C_19
REMARK    7  A    between atoms: C_19  and  N_20
REMARK    8  A    between atoms: N_20  and  C_21
REMARK    9  A    between atoms: C_21  and  C_22
REMARK   10  A    between atoms: C_21  and  C_23
REMARK                            x       y       z     vdW  Elec       q    Type
REMARK                         _______ _______ _______ _____ _____    ______ ____
ROOT
ATOM      1  C   UNL     1      47.567   6.325  13.489  0.00  0.00    +0.000 A 
ATOM      2  C   UNL     1      47.315   7.087  12.341  0.00  0.00    +0.000 A 
ATOM      3  C   UNL     1      46.278   6.741  11.464  0.00  0.00    +0.000 A 
ATOM      4  C   UNL     1      45.462   5.629  11.714  0.00  0.00    +0.000 A 
ATOM      5  C   UNL     1      45.659   4.927  12.915  0.00  0.00    +0.000 A 
ATOM      6  C   UNL     1      46.697   5.269  13.791  0.00  0.00    +0.000 A 
ENDROOT
BRANCH   1   7
ATOM      7  C   UNL     1      48.755   6.629  14.371  0.00  0.00    +0.000 C 
BRANCH   7  10
ATOM      8  C   UNL     1      48.932   6.185  16.787  0.00  0.00    +0.000 C 
ATOM      9  O   UNL     1      49.797   5.334  16.607  0.00  0.00    +0.000 OA
ATOM     10  N   UNL     1      48.372   6.866  15.735  0.00  0.00    +0.000 N 
ATOM     11  H   UNL     1      47.665   7.569  15.904  0.00  0.00    +0.000 HD
BRANCH   8  19
ATOM     12  C   UNL     1      48.018   9.123  18.329  0.00  0.00    +0.000 A 
ATOM     13  N   UNL     1      47.546  10.097  19.131  0.00  0.00    +0.000 NA
ATOM     14  C   UNL     1      47.134   9.754  20.355  0.00  0.00    +0.000 A 
ATOM     15  N   UNL     1      47.141   8.537  20.892  0.00  0.00    +0.000 NA
ATOM     16  C   UNL     1      47.604   7.595  20.053  0.00  0.00    +0.000 A 
ATOM     17  S   UNL     1      47.698   5.981  20.571  0.00  0.00    +0.000 S 
ATOM     18  C   UNL     1      48.303   5.480  19.063  0.00  0.00    +0.000 A 
ATOM     19  C   UNL     1      48.443   6.511  18.139  0.00  0.00    +0.000 A 
ATOM     20  C   UNL     1      48.047   7.781  18.747  0.00  0.00    +0.000 A 
BRANCH  12  22
ATOM     21  C   UNL     1      49.760  10.032  17.057  0.00  0.00    +0.000 C 
ATOM     22  O   UNL     1      48.449   9.473  17.069  0.00  0.00    +0.000 OA
ENDBRANCH  12  22
ENDBRANCH   8  19
ENDBRANCH   7  10
ENDBRANCH   1   7
BRANCH   4  23
ATOM     23  C   UNL     1      44.358   5.201  10.762  0.00  0.00    +0.000 C 
BRANCH  23  24
ATOM     24  N   UNL     1      44.860   4.778   9.454  0.00  0.00    +0.000 NA
ATOM     25  H   UNL     1      45.873   4.878   9.438  0.00  0.00    +0.000 HD
BRANCH  24  26
ATOM     26  C   UNL     1      44.488   3.409   9.063  0.00  0.00    +0.000 C 
ATOM     27  C   UNL     1      44.229   2.458  10.241  0.00  0.00    +0.000 C 
BRANCH  26  28
ATOM     28  C   UNL     1      45.564   2.835   8.144  0.00  0.00    +0.000 A 
ATOM     29  C   UNL     1      46.128   3.632   7.134  0.00  0.00    +0.000 A 
ATOM     30  C   UNL     1      47.145   3.134   6.314  0.00  0.00    +0.000 A 
ATOM     31  C   UNL     1      47.614   1.834   6.489  0.00  0.00    +0.000 A 
ATOM     32  C   UNL     1      47.057   1.025   7.476  0.00  0.00    +0.000 A 
ATOM     33  C   UNL     1      46.039   1.520   8.295  0.00  0.00    +0.000 A 
ENDBRANCH  26  28
ENDBRANCH  24  26
ENDBRANCH  23  24
ENDBRANCH   4  23
TORSDOF 8
ENDMDL
MODEL 5
REMARK VINA RESULT:    -6.961      2.098      2.695
REMARK INTER + INTRA:         -12.031
REMARK INTER:                 -10.800
REMARK INTRA:                  -1.230
REMARK UNBOUND:                -1.814
REMARK  Name = 
REMARK  10 active torsions:
REMARK  status: ('A' for Active; 'I' for Inactive)
REMARK    1  A    between atoms: C_1  and  O_2
REMARK    2  A    between atoms: O_2  and  C_3
REMARK    3  A    between atoms: C_10  and  C_11
REMARK    4  A    between atoms: N_13  and  C_14
REMARK    5  A    between atoms: C_14  and  C_15
REMARK    6  A    between atoms: C_18  and  C_19
REMARK    7  A    between atoms: C_19  and  N_20
REMARK    8  A    between atoms: N_20  and  C_21
REMARK    9  A    between atoms: C_21  and  C_22
REMARK   10  A    between atoms: C_21  and  C_23
REMARK                            x       y       z     vdW  Elec       q    Type
REMARK                         _______ _______ _______ _____ _____    ______ ____
ROOT
ATOM      1  C   UNL     1      47.883   6.846  14.038  0.00  0.00    +0.000 A 
ATOM      2  C   UNL     1      47.275   5.592  14.175  0.00  0.00    +0.000 A 
ATOM      3  C   UNL     1      46.398   5.109  13.194  0.00  0.00    +0.000 A 
ATOM      4  C   UNL     1      46.110   5.863  12.049  0.00  0.00    +0.000 A 
ATOM      5  C   UNL     1      46.796   7.076  11.872  0.00  0.00    +0.000 A 
ATOM      6  C   UNL     1      47.671   7.563  12.853  0.00  0.00    +0.000 A 
ENDROOT
BRANCH   1   7
ATOM      7  C   UNL     1      48.735   7.415  15.147  0.00  0.00    +0.000 C 
BRANCH   7  10
ATOM      8  C   UNL     1      50.343   6.644  16.845  0.00  0.00    +0.000 C 
ATOM      9  O   UNL     1      50.187   7.663  17.512  0.00  0.00    +0.000 OA
ATOM     10  N   UNL     1      49.662   6.451  15.670  0.00  0.00    +0.000 N 
ATOM     11  H   UNL     1      49.799   5.602  15.137  0.00  0.00    +0.000 HD
BRANCH   8  19
ATOM     12  C   UNL     1      50.091   3.219  17.069  0.00  0.00    +0.000 A 
ATOM     13  N   UNL     1      50.279   1.890  17.183  0.00  0.00    +0.000 NA
ATOM     14  C   UNL     1      51.481   1.461  17.582  0.00  0.00    +0.000 A 
ATOM     15  N   UNL     1      52.536   2.208  17.896  0.00  0.00    +0.000 NA
ATOM     16  C   UNL     1      52.308   3.525  17.754  0.00  0.00    +0.000 A 
ATOM     17  S   UNL     1      53.539   4.634  18.122  0.00  0.00    +0.000 S 
ATOM     18  C   UNL     1      52.549   5.950  17.697  0.00  0.00    +0.000 A 
ATOM     19  C   UNL     1      51.277   5.585  17.268  0.00  0.00    +0.000 A 
ATOM     20  C   UNL     1      51.129   4.130  17.328  0.00  0.00    +0.000 A 
BRANCH  12  22
ATOM     21  C   UNL     1      47.935   2.610  16.391  0.00  0.00    +0.000 C 
ATOM     22  O   UNL     1      48.853   3.666  16.663  0.00  0.00    +0.000 OA
ENDBRANCH  12  22
ENDBRANCH   8  19
ENDBRANCH   7  10
ENDBRANCH   1   7
BRANCH   4  23
ATOM     23  C   UNL     1      45.130   5.389  10.988  0.00  0.00    +0.000 C 
BRANCH  23  24
ATOM     24  N   UNL     1      45.784   4.722   9.861  0.00  0.00    +0.000 NA
ATOM     25  H   UNL     1      46.631   4.263  10.191  0.00  0.00    +0.000 HD
BRANCH  24  26
ATOM     26  C   UNL     1      44.940   3.752   9.145  0.00  0.00    +0.000 C 
ATOM     27  C   UNL     1      44.171   2.782  10.054  0.00  0.00    +0.000 C 
BRANCH  26  28
ATOM     28  C   UNL     1      45.794   2.978   8.144  0.00  0.00    +0.000 A 
ATOM     29  C   UNL     1      46.183   1.657   8.422  0.00  0.00    +0.000 A 
ATOM     30  C   UNL     1      46.928   0.920   7.496  0.00  0.00    +0.000 A 
ATOM     31  C   UNL     1      47.295   1.490   6.280  0.00  0.00    +0.000 A 
ATOM     32  C   UNL     1      46.932   2.804   5.994  0.00  0.00    +0.000 A 
ATOM     33  C   UNL     1      46.189   3.542   6.918  0.00  0.00    +0.000 A 
ENDBRANCH  26  28
ENDBRANCH  24  26
ENDBRANCH  23  24
ENDBRANCH   4  23
TORSDOF 8
ENDMDL
MODEL 6
REMARK VINA RESULT:    -6.804      3.235      7.864
REMARK INTER + INTRA:         -11.800
REMARK INTER:                  -9.859
REMARK INTRA:                  -1.941
REMARK UNBOUND:                -1.814
REMARK  Name = 
REMARK  10 active torsions:
REMARK  status: ('A' for Active; 'I' for Inactive)
REMARK    1  A    between atoms: C_1  and  O_2
REMARK    2  A    between atoms: O_2  and  C_3
REMARK    3  A    between atoms: C_10  and  C_11
REMARK    4  A    between atoms: N_13  and  C_14
REMARK    5  A    between atoms: C_14  and  C_15
REMARK    6  A    between atoms: C_18  and  C_19
REMARK    7  A    between atoms: C_19  and  N_20
REMARK    8  A    between atoms: N_20  and  C_21
REMARK    9  A    between atoms: C_21  and  C_22
REMARK   10  A    between atoms: C_21  and  C_23
REMARK                            x       y       z     vdW  Elec       q    Type
REMARK                         _______ _______ _______ _____ _____    ______ ____
ROOT
ATOM      1  C   UNL     1      48.469   7.974  13.440  0.00  0.00    +0.000 A 
ATOM      2  C   UNL     1      47.860   8.895  14.302  0.00  0.00    +0.000 A 
ATOM      3  C   UNL     1      47.962   8.753  15.692  0.00  0.00    +0.000 A 
ATOM      4  C   UNL     1      48.681   7.692  16.258  0.00  0.00    +0.000 A 
ATOM      5  C   UNL     1      49.369   6.828  15.390  0.00  0.00    +0.000 A 
ATOM      6  C   UNL     1      49.265   6.966  14.000  0.00  0.00    +0.000 A 
ENDROOT
BRANCH   1   7
ATOM      7  C   UNL     1      48.262   8.061  11.947  0.00  0.00    +0.000 C 
BRANCH   7  10
ATOM      8  C   UNL     1      46.198   6.935  11.214  0.00  0.00    +0.000 C 
ATOM      9  O   UNL     1      45.523   7.932  11.455  0.00  0.00    +0.000 OA
ATOM     10  N   UNL     1      47.553   6.924  11.430  0.00  0.00    +0.000 N 
ATOM     11  H   UNL     1      48.093   6.095  11.221  0.00  0.00    +0.000 HD
BRANCH   8  19
ATOM     12  C   UNL     1      44.475   4.345  12.687  0.00  0.00    +0.000 A 
ATOM     13  N   UNL     1      43.730   3.266  12.992  0.00  0.00    +0.000 NA
ATOM     14  C   UNL     1      43.373   2.451  11.995  0.00  0.00    +0.000 A 
ATOM     15  N   UNL     1      43.681   2.577  10.707  0.00  0.00    +0.000 NA
ATOM     16  C   UNL     1      44.411   3.675  10.446  0.00  0.00    +0.000 A 
ATOM     17  S   UNL     1      44.908   3.993   8.855  0.00  0.00    +0.000 S 
ATOM     18  C   UNL     1      45.686   5.429   9.333  0.00  0.00    +0.000 A 
ATOM     19  C   UNL     1      45.585   5.699  10.693  0.00  0.00    +0.000 A 
ATOM     20  C   UNL     1      44.842   4.631  11.361  0.00  0.00    +0.000 A 
BRANCH  12  22
ATOM     21  C   UNL     1      46.188   4.972  14.155  0.00  0.00    +0.000 C 
ATOM     22  O   UNL     1      44.850   5.185  13.713  0.00  0.00    +0.000 OA
ENDBRANCH  12  22
ENDBRANCH   8  19
ENDBRANCH   7  10
ENDBRANCH   1   7
BRANCH   4  23
ATOM     23  C   UNL     1      48.776   7.484  17.761  0.00  0.00    +0.000 C 
BRANCH  23  24
ATOM     24  N   UNL     1      47.532   6.987  18.351  0.00  0.00    +0.000 NA
ATOM     25  H   UNL     1      46.875   6.766  17.605  0.00  0.00    +0.000 HD
BRANCH  24  26
ATOM     26  C   UNL     1      47.691   5.822  19.235  0.00  0.00    +0.000 C 
ATOM     27  C   UNL     1      48.583   6.068  20.461  0.00  0.00    +0.000 C 
BRANCH  26  28
ATOM     28  C   UNL     1      48.218   4.639  18.425  0.00  0.00    +0.000 A 
ATOM     29  C   UNL     1      47.381   3.985  17.505  0.00  0.00    +0.000 A 
ATOM     30  C   UNL     1      47.862   2.930  16.724  0.00  0.00    +0.000 A 
ATOM     31  C   UNL     1      49.185   2.512  16.849  0.00  0.00    +0.000 A 
ATOM     32  C   UNL     1      50.025   3.139  17.766  0.00  0.00    +0.000 A 
ATOM     33  C   UNL     1      49.546   4.193  18.548  0.00  0.00    +0.000 A 
ENDBRANCH  26  28
ENDBRANCH  24  26
ENDBRANCH  23  24
ENDBRANCH   4  23
TORSDOF 8
ENDMDL
MODEL 7
REMARK VINA RESULT:    -6.666      2.076      2.838
REMARK INTER + INTRA:         -11.598
REMARK INTER:                  -9.994
REMARK INTRA:                  -1.604
REMARK UNBOUND:                -1.814
REMARK  Name = 
REMARK  10 active torsions:
REMARK  status: ('A' for Active; 'I' for Inactive)
REMARK    1  A    between atoms: C_1  and  O_2
REMARK    2  A    between atoms: O_2  and  C_3
REMARK    3  A    between atoms: C_10  and  C_11
REMARK    4  A    between atoms: N_13  and  C_14
REMARK    5  A    between atoms: C_14  and  C_15
REMARK    6  A    between atoms: C_18  and  C_19
REMARK    7  A    between atoms: C_19  and  N_20
REMARK    8  A    between atoms: N_20  and  C_21
REMARK    9  A    between atoms: C_21  and  C_22
REMARK   10  A    between atoms: C_21  and  C_23
REMARK                            x       y       z     vdW  Elec       q    Type
REMARK                         _______ _______ _______ _____ _____    ______ ____
ROOT
ATOM      1  C   UNL     1      48.412   7.997  12.827  0.00  0.00    +0.000 A 
ATOM      2  C   UNL     1      48.193   7.032  11.836  0.00  0.00    +0.000 A 
ATOM      3  C   UNL     1      46.894   6.615  11.516  0.00  0.00    +0.000 A 
ATOM      4  C   UNL     1      45.780   7.154  12.173  0.00  0.00    +0.000 A 
ATOM      5  C   UNL     1      46.000   8.189  13.097  0.00  0.00    +0.000 A 
ATOM      6  C   UNL     1      47.298   8.605  13.421  0.00  0.00    +0.000 A 
ENDROOT
BRANCH   1   7
ATOM      7  C   UNL     1      49.814   8.362  13.253  0.00  0.00    +0.000 C 
BRANCH   7  10
ATOM      8  C   UNL     1      51.462   7.769  14.984  0.00  0.00    +0.000 C 
ATOM      9  O   UNL     1      52.129   8.772  14.748  0.00  0.00    +0.000 OA
ATOM     10  N   UNL     1      50.309   7.501  14.290  0.00  0.00    +0.000 N 
ATOM     11  H   UNL     1      49.769   6.673  14.503  0.00  0.00    +0.000 HD
BRANCH   8  19
ATOM     12  C   UNL     1      49.753   6.059  17.434  0.00  0.00    +0.000 A 
ATOM     13  N   UNL     1      49.326   5.233  18.408  0.00  0.00    +0.000 NA
ATOM     14  C   UNL     1      50.230   4.450  19.005  0.00  0.00    +0.000 A 
ATOM     15  N   UNL     1      51.535   4.395  18.752  0.00  0.00    +0.000 NA
ATOM     16  C   UNL     1      51.914   5.224  17.764  0.00  0.00    +0.000 A 
ATOM     17  S   UNL     1      53.549   5.298  17.312  0.00  0.00    +0.000 S 
ATOM     18  C   UNL     1      53.214   6.449  16.107  0.00  0.00    +0.000 A 
ATOM     19  C   UNL     1      51.871   6.799  16.016  0.00  0.00    +0.000 A 
ATOM     20  C   UNL     1      51.099   6.080  17.030  0.00  0.00    +0.000 A 
BRANCH  12  22
ATOM     21  C   UNL     1      48.602   8.096  17.514  0.00  0.00    +0.000 C 
ATOM     22  O   UNL     1      48.826   6.872  16.820  0.00  0.00    +0.000 OA
ENDBRANCH  12  22
ENDBRANCH   8  19
ENDBRANCH   7  10
ENDBRANCH   1   7
BRANCH   4  23
ATOM     23  C   UNL     1      44.362   6.692  11.882  0.00  0.00    +0.000 C 
BRANCH  23  24
ATOM     24  N   UNL     1      44.209   6.117  10.544  0.00  0.00    +0.000 NA
ATOM     25  H   UNL     1      45.101   6.167  10.057  0.00  0.00    +0.000 HD
BRANCH  24  26
ATOM     26  C   UNL     1      43.706   4.734  10.522  0.00  0.00    +0.000 C 
ATOM     27  C   UNL     1      43.626   4.062  11.900  0.00  0.00    +0.000 C 
BRANCH  26  28
ATOM     28  C   UNL     1      44.563   3.899   9.573  0.00  0.00    +0.000 A 
ATOM     29  C   UNL     1      45.431   4.529   8.666  0.00  0.00    +0.000 A 
ATOM     30  C   UNL     1      46.254   3.777   7.822  0.00  0.00    +0.000 A 
ATOM     31  C   UNL     1      46.223   2.385   7.871  0.00  0.00    +0.000 A 
ATOM     32  C   UNL     1      45.358   1.743   8.753  0.00  0.00    +0.000 A 
ATOM     33  C   UNL     1      44.534   2.493   9.596  0.00  0.00    +0.000 A 
ENDBRANCH  26  28
ENDBRANCH  24  26
ENDBRANCH  23  24
ENDBRANCH   4  23
TORSDOF 8
ENDMDL
MODEL 8
REMARK VINA RESULT:    -6.180      3.519      8.307
REMARK INTER + INTRA:         -10.883
REMARK INTER:                  -8.496
REMARK INTRA:                  -2.388
REMARK UNBOUND:                -1.814
REMARK  Name = 
REMARK  10 active torsions:
REMARK  status: ('A' for Active; 'I' for Inactive)
REMARK    1  A    between atoms: C_1  and  O_2
REMARK    2  A    between atoms: O_2  and  C_3
REMARK    3  A    between atoms: C_10  and  C_11
REMARK    4  A    between atoms: N_13  and  C_14
REMARK    5  A    between atoms: C_14  and  C_15
REMARK    6  A    between atoms: C_18  and  C_19
REMARK    7  A    between atoms: C_19  and  N_20
REMARK    8  A    between atoms: N_20  and  C_21
REMARK    9  A    between atoms: C_21  and  C_22
REMARK   10  A    between atoms: C_21  and  C_23
REMARK                            x       y       z     vdW  Elec       q    Type
REMARK                         _______ _______ _______ _____ _____    ______ ____
ROOT
ATOM      1  C   UNL     1      48.889   8.328  15.659  0.00  0.00    +0.000 A 
ATOM      2  C   UNL     1      48.252   8.929  16.752  0.00  0.00    +0.000 A 
ATOM      3  C   UNL     1      48.658   8.647  18.063  0.00  0.00    +0.000 A 
ATOM      4  C   UNL     1      49.714   7.762  18.317  0.00  0.00    +0.000 A 
ATOM      5  C   UNL     1      50.410   7.237  17.215  0.00  0.00    +0.000 A 
ATOM      6  C   UNL     1      50.004   7.515  15.903  0.00  0.00    +0.000 A 
ENDROOT
BRANCH   1   7
ATOM      7  C   UNL     1      48.377   8.541  14.254  0.00  0.00    +0.000 C 
BRANCH   7  10
ATOM      8  C   UNL     1      47.681   6.419  13.217  0.00  0.00    +0.000 C 
ATOM      9  O   UNL     1      48.836   6.151  12.899  0.00  0.00    +0.000 OA
ATOM     10  N   UNL     1      47.378   7.577  13.888  0.00  0.00    +0.000 N 
ATOM     11  H   UNL     1      46.421   7.778  14.147  0.00  0.00    +0.000 HD
BRANCH   8  19
ATOM     12  C   UNL     1      44.557   6.920  11.864  0.00  0.00    +0.000 A 
ATOM     13  N   UNL     1      43.337   6.830  11.300  0.00  0.00    +0.000 NA
ATOM     14  C   UNL     1      42.789   5.617  11.187  0.00  0.00    +0.000 A 
ATOM     15  N   UNL     1      43.314   4.459  11.580  0.00  0.00    +0.000 NA
ATOM     16  C   UNL     1      44.537   4.594  12.122  0.00  0.00    +0.000 A 
ATOM     17  S   UNL     1      45.358   3.223  12.694  0.00  0.00    +0.000 S 
ATOM     18  C   UNL     1      46.701   4.158  13.154  0.00  0.00    +0.000 A 
ATOM     19  C   UNL     1      46.563   5.516  12.886  0.00  0.00    +0.000 A 
ATOM     20  C   UNL     1      45.253   5.776  12.290  0.00  0.00    +0.000 A 
BRANCH  12  22
ATOM     21  C   UNL     1      44.424   9.179  11.262  0.00  0.00    +0.000 C 
ATOM     22  O   UNL     1      45.123   8.170  11.988  0.00  0.00    +0.000 OA
ENDBRANCH  12  22
ENDBRANCH   8  19
ENDBRANCH   7  10
ENDBRANCH   1   7
BRANCH   4  23
ATOM     23  C   UNL     1      50.151   7.400  19.727  0.00  0.00    +0.000 C 
BRANCH  23  24
ATOM     24  N   UNL     1      49.301   6.383  20.347  0.00  0.00    +0.000 NA
ATOM     25  H   UNL     1      48.352   6.481  19.994  0.00  0.00    +0.000 HD
BRANCH  24  26
ATOM     26  C   UNL     1      49.762   4.998  20.160  0.00  0.00    +0.000 C 
ATOM     27  C   UNL     1      51.284   4.844  20.027  0.00  0.00    +0.000 C 
BRANCH  26  28
ATOM     28  C   UNL     1      49.059   4.390  18.948  0.00  0.00    +0.000 A 
ATOM     29  C   UNL     1      47.785   4.845  18.569  0.00  0.00    +0.000 A 
ATOM     30  C   UNL     1      47.149   4.329  17.436  0.00  0.00    +0.000 A 
ATOM     31  C   UNL     1      47.774   3.353  16.664  0.00  0.00    +0.000 A 
ATOM     32  C   UNL     1      49.030   2.879  17.033  0.00  0.00    +0.000 A 
ATOM     33  C   UNL     1      49.668   3.392  18.166  0.00  0.00    +0.000 A 
ENDBRANCH  26  28
ENDBRANCH  24  26
ENDBRANCH  23  24
ENDBRANCH   4  23
TORSDOF 8
ENDMDL
MODEL 9
REMARK VINA RESULT:    -6.123      3.553      8.103
REMARK INTER + INTRA:         -10.800
REMARK INTER:                  -8.887
REMARK INTRA:                  -1.913
REMARK UNBOUND:                -1.814
REMARK  Name = 
REMARK  10 active torsions:
REMARK  status: ('A' for Active; 'I' for Inactive)
REMARK    1  A    between atoms: C_1  and  O_2
REMARK    2  A    between atoms: O_2  and  C_3
REMARK    3  A    between atoms: C_10  and  C_11
REMARK    4  A    between atoms: N_13  and  C_14
REMARK    5  A    between atoms: C_14  and  C_15
REMARK    6  A    between atoms: C_18  and  C_19
REMARK    7  A    between atoms: C_19  and  N_20
REMARK    8  A    between atoms: N_20  and  C_21
REMARK    9  A    between atoms: C_21  and  C_22
REMARK   10  A    between atoms: C_21  and  C_23
REMARK                            x       y       z     vdW  Elec       q    Type
REMARK                         _______ _______ _______ _____ _____    ______ ____
ROOT
ATOM      1  C   UNL     1      48.355   8.668  15.605  0.00  0.00    +0.000 A 
ATOM      2  C   UNL     1      47.935   9.458  16.683  0.00  0.00    +0.000 A 
ATOM      3  C   UNL     1      48.131   9.033  18.004  0.00  0.00    +0.000 A 
ATOM      4  C   UNL     1      48.759   7.811  18.283  0.00  0.00    +0.000 A 
ATOM      5  C   UNL     1      49.264   7.071  17.202  0.00  0.00    +0.000 A 
ATOM      6  C   UNL     1      49.065   7.492  15.880  0.00  0.00    +0.000 A 
ENDROOT
BRANCH   1   7
ATOM      7  C   UNL     1      48.040   9.071  14.184  0.00  0.00    +0.000 C 
BRANCH   7  10
ATOM      8  C   UNL     1      47.030   7.359  12.731  0.00  0.00    +0.000 C 
ATOM      9  O   UNL     1      48.129   7.015  12.307  0.00  0.00    +0.000 OA
ATOM     10  N   UNL     1      46.907   8.363  13.658  0.00  0.00    +0.000 N 
ATOM     11  H   UNL     1      45.993   8.629  14.000  0.00  0.00    +0.000 HD
BRANCH   8  19
ATOM     12  C   UNL     1      45.832   4.135  12.863  0.00  0.00    +0.000 A 
ATOM     13  N   UNL     1      45.112   2.997  12.840  0.00  0.00    +0.000 NA
ATOM     14  C   UNL     1      43.895   3.037  12.290  0.00  0.00    +0.000 A 
ATOM     15  N   UNL     1      43.298   4.091  11.740  0.00  0.00    +0.000 NA
ATOM     16  C   UNL     1      44.044   5.207  11.798  0.00  0.00    +0.000 A 
ATOM     17  S   UNL     1      43.448   6.651  11.134  0.00  0.00    +0.000 S 
ATOM     18  C   UNL     1      44.848   7.499  11.595  0.00  0.00    +0.000 A 
ATOM     19  C   UNL     1      45.789   6.719  12.259  0.00  0.00    +0.000 A 
ATOM     20  C   UNL     1      45.312   5.339  12.355  0.00  0.00    +0.000 A 
BRANCH  12  22
ATOM     21  C   UNL     1      47.096   4.427  14.811  0.00  0.00    +0.000 C 
ATOM     22  O   UNL     1      47.089   4.097  13.424  0.00  0.00    +0.000 OA
ENDBRANCH  12  22
ENDBRANCH   8  19
ENDBRANCH   7  10
ENDBRANCH   1   7
BRANCH   4  23
ATOM     23  C   UNL     1      48.949   7.300  19.701  0.00  0.00    +0.000 C 
BRANCH  23  24
ATOM     24  N   UNL     1      48.287   6.017  19.942  0.00  0.00    +0.000 NA
ATOM     25  H   UNL     1      47.717   5.779  19.133  0.00  0.00    +0.000 HD
BRANCH  24  26
ATOM     26  C   UNL     1      49.197   4.903  20.255  0.00  0.00    +0.000 C 
ATOM     27  C   UNL     1      50.578   5.333  20.770  0.00  0.00    +0.000 C 
BRANCH  26  28
ATOM     28  C   UNL     1      49.344   4.010  19.025  0.00  0.00    +0.000 A 
ATOM     29  C   UNL     1      50.614   3.775  18.472  0.00  0.00    +0.000 A 
ATOM     30  C   UNL     1      50.770   2.924  17.374  0.00  0.00    +0.000 A 
ATOM     31  C   UNL     1      49.661   2.294  16.812  0.00  0.00    +0.000 A 
ATOM     32  C   UNL     1      48.393   2.526  17.338  0.00  0.00    +0.000 A 
ATOM     33  C   UNL     1      48.235   3.378  18.435  0.00  0.00    +0.000 A 
ENDBRANCH  26  28
ENDBRANCH  24  26
ENDBRANCH  23  24
ENDBRANCH   4  23
TORSDOF 8
ENDMDL
