MODEL 1
REMARK VINA RESULT:    -8.819      0.000      0.000
REMARK INTER + INTRA:         -12.980
REMARK INTER:                 -12.428
REMARK INTRA:                  -0.551
REMARK UNBOUND:                -0.551
REMARK  Name = 
REMARK  7 active torsions:
REMARK  status: ('A' for Active; 'I' for Inactive)
REMARK    1  A    between atoms: C_2  and  C_20
REMARK    2  A    between atoms: N_3  and  C_4
REMARK    3  A    between atoms: C_4  and  C_5
REMARK    4  A    between atoms: C_8  and  C_9
REMARK    5  A    between atoms: C_9  and  N_10
REMARK    6  A    between atoms: N_10  and  C_11
REMARK    7  A    between atoms: C_11  and  C_12
REMARK                            x       y       z     vdW  Elec       q    Type
REMARK                         _______ _______ _______ _____ _____    ______ ____
ROOT
ATOM      1  C   UNL     1      46.261   4.591  14.004  0.00  0.00    +0.000 C 
ENDROOT
BRANCH   1   2
ATOM      2  C   UNL     1      45.452   5.845  13.607  0.00  0.00    +0.000 C 
ATOM      3  C   UNL     1      46.270   6.868  12.802  0.00  0.00    +0.000 C 
ATOM      4  C   UNL     1      46.676   6.341  11.424  0.00  0.00    +0.000 C 
ATOM      5  C   UNL     1      45.472   5.827  10.613  0.00  0.00    +0.000 C 
ATOM      6  C   UNL     1      44.592   4.866  11.436  0.00  0.00    +0.000 C 
ATOM      7  C   UNL     1      44.214   5.456  12.790  0.00  0.00    +0.000 C 
BRANCH   5   8
ATOM      8  C   UNL     1      45.947   5.159   9.306  0.00  0.00    +0.000 C 
BRANCH   8   9
ATOM      9  N   UNL     1      44.789   4.794   8.494  0.00  0.00    +0.000 NA
ATOM     10  H   UNL     1      44.890   5.167   7.552  0.00  0.00    +0.000 HD
BRANCH   9  11
ATOM     11  C   UNL     1      44.578   3.353   8.426  0.00  0.00    +0.000 C 
BRANCH  11  12
ATOM     12  C   UNL     1      45.725   2.696   7.698  0.00  0.00    +0.000 A 
ATOM     13  C   UNL     1      46.278   1.496   8.152  0.00  0.00    +0.000 A 
ATOM     14  C   UNL     1      47.337   0.944   7.448  0.00  0.00    +0.000 A 
ATOM     15  N   UNL     1      47.877   1.494   6.340  0.00  0.00    +0.000 NA
ATOM     16  C   UNL     1      47.332   2.655   5.918  0.00  0.00    +0.000 A 
ATOM     17  C   UNL     1      46.271   3.283   6.550  0.00  0.00    +0.000 A 
ENDBRANCH  11  12
ENDBRANCH   9  11
ENDBRANCH   8   9
ENDBRANCH   5   8
ENDBRANCH   1   2
BRANCH   1  20
ATOM     18  O   UNL     1      46.553   3.481  16.611  0.00  0.00    +0.000 OA
ATOM     19  C   UNL     1      47.387   4.278  16.188  0.00  0.00    +0.000 C 
ATOM     20  N   UNL     1      47.296   4.889  14.965  0.00  0.00    +0.000 N 
ATOM     21  H   UNL     1      48.052   5.483  14.649  0.00  0.00    +0.000 HD
BRANCH  19  22
ATOM     22  C   UNL     1      48.539   4.671  17.005  0.00  0.00    +0.000 A 
ATOM     23  C   UNL     1      48.587   5.920  17.610  0.00  0.00    +0.000 A 
ATOM     24  S   UNL     1      50.005   6.170  18.528  0.00  0.00    +0.000 S 
ATOM     25  C   UNL     1      50.574   4.609  18.178  0.00  0.00    +0.000 A 
ATOM     26  N   UNL     1      51.751   4.154  18.701  0.00  0.00    +0.000 NA
ATOM     27  C   UNL     1      52.035   2.935  18.388  0.00  0.00    +0.000 A 
ATOM     28  N   UNL     1      51.260   2.129  17.594  0.00  0.00    +0.000 N 
ATOM     29  C   UNL     1      50.117   2.569  16.977  0.00  0.00    +0.000 A 
ATOM     30  O   UNL     1      49.544   1.869  16.146  0.00  0.00    +0.000 OA
ATOM     31  C   UNL     1      49.721   3.917  17.348  0.00  0.00    +0.000 A 
ATOM     32  H   UNL     1      51.559   1.193  17.353  0.00  0.00    +0.000 HD
ENDBRANCH  19  22
ENDBRANCH   1  20
TORSDOF 7
ENDMDL
MODEL 2
REMARK VINA RESULT:    -8.404      1.729      2.096
REMARK INTER + INTRA:         -12.395
REMARK INTER:                 -11.285
REMARK INTRA:                  -1.110
REMARK UNBOUND:                -0.551
REMARK  Name = 
REMARK  7 active torsions:
REMARK  status: ('A' for Active; 'I' for Inactive)
REMARK    1  A    between atoms: C_2  and  C_20
REMARK    2  A    between atoms: N_3  and  C_4
REMARK    3  A    between atoms: C_4  and  C_5
REMARK    4  A    between atoms: C_8  and  C_9
REMARK    5  A    between atoms: C_9  and  N_10
REMARK    6  A    between atoms: N_10  and  C_11
REMARK    7  A    between atoms: C_11  and  C_12
REMARK                            x       y       z     vdW  Elec       q    Type
REMARK                         _______ _______ _______ _____ _____    ______ ____
ROOT
ATOM      1  C   UNL     1      47.123   5.505  13.481  0.00  0.00    +0.000 C 
ENDROOT
BRANCH   1   2
ATOM      2  C   UNL     1      46.591   6.755  12.747  0.00  0.00    +0.000 C 
ATOM      3  C   UNL     1      46.785   6.695  11.223  0.00  0.00    +0.000 C 
ATOM      4  C   UNL     1      45.944   5.599  10.567  0.00  0.00    +0.000 C 
ATOM      5  C   UNL     1      44.452   5.702  10.936  0.00  0.00    +0.000 C 
ATOM      6  C   UNL     1      44.245   5.849  12.456  0.00  0.00    +0.000 C 
ATOM      7  C   UNL     1      45.101   6.965  13.044  0.00  0.00    +0.000 C 
BRANCH   5   8
ATOM      8  C   UNL     1      43.675   4.487  10.388  0.00  0.00    +0.000 C 
BRANCH   8   9
ATOM      9  N   UNL     1      44.227   4.095   9.094  0.00  0.00    +0.000 NA
ATOM     10  H   UNL     1      45.115   4.568   8.934  0.00  0.00    +0.000 HD
BRANCH   9  11
ATOM     11  C   UNL     1      44.413   2.655   8.971  0.00  0.00    +0.000 C 
BRANCH  11  12
ATOM     12  C   UNL     1      45.672   2.360   8.193  0.00  0.00    +0.000 A 
ATOM     13  C   UNL     1      46.183   1.063   8.108  0.00  0.00    +0.000 A 
ATOM     14  C   UNL     1      47.350   0.853   7.389  0.00  0.00    +0.000 A 
ATOM     15  N   UNL     1      48.034   1.831   6.758  0.00  0.00    +0.000 NA
ATOM     16  C   UNL     1      47.528   3.078   6.853  0.00  0.00    +0.000 A 
ATOM     17  C   UNL     1      46.368   3.388   7.545  0.00  0.00    +0.000 A 
ENDBRANCH  11  12
ENDBRANCH   9  11
ENDBRANCH   8   9
ENDBRANCH   5   8
ENDBRANCH   1   2
BRANCH   1  20
ATOM     18  O   UNL     1      49.498   6.740  14.454  0.00  0.00    +0.000 OA
ATOM     19  C   UNL     1      48.610   6.416  15.240  0.00  0.00    +0.000 C 
ATOM     20  N   UNL     1      47.459   5.779  14.857  0.00  0.00    +0.000 N 
ATOM     21  H   UNL     1      46.738   5.601  15.544  0.00  0.00    +0.000 HD
BRANCH  19  22
ATOM     22  C   UNL     1      48.749   6.655  16.680  0.00  0.00    +0.000 A 
ATOM     23  C   UNL     1      48.744   7.946  17.188  0.00  0.00    +0.000 A 
ATOM     24  S   UNL     1      48.901   8.002  18.889  0.00  0.00    +0.000 S 
ATOM     25  C   UNL     1      48.939   6.308  18.996  0.00  0.00    +0.000 A 
ATOM     26  N   UNL     1      49.022   5.680  20.206  0.00  0.00    +0.000 NA
ATOM     27  C   UNL     1      48.994   4.392  20.139  0.00  0.00    +0.000 A 
ATOM     28  N   UNL     1      48.900   3.669  18.977  0.00  0.00    +0.000 N 
ATOM     29  C   UNL     1      48.901   4.253  17.736  0.00  0.00    +0.000 A 
ATOM     30  O   UNL     1      48.982   3.565  16.721  0.00  0.00    +0.000 OA
ATOM     31  C   UNL     1      48.869   5.705  17.759  0.00  0.00    +0.000 A 
ATOM     32  H   UNL     1      48.923   2.658  18.990  0.00  0.00    +0.000 HD
ENDBRANCH  19  22
ENDBRANCH   1  20
TORSDOF 7
ENDMDL
MODEL 3
REMARK VINA RESULT:    -8.321      1.947      2.514
REMARK INTER + INTRA:         -12.277
REMARK INTER:                 -11.121
REMARK INTRA:                  -1.157
REMARK UNBOUND:                -0.551
REMARK  Name = 
REMARK  7 active torsions:
REMARK  status: ('A' for Active; 'I' for Inactive)
REMARK    1  A    between atoms: C_2  and  C_20
REMARK    2  A    between atoms: N_3  and  C_4
REMARK    3  A    between atoms: C_4  and  C_5
REMARK    4  A    between atoms: C_8  and  C_9
REMARK    5  A    between atoms: C_9  and  N_10
REMARK    6  A    between atoms: N_10  and  C_11
REMARK    7  A    between atoms: C_11  and  C_12
REMARK                            x       y       z     vdW  Elec       q    Type
REMARK                         _______ _______ _______ _____ _____    ______ ____
ROOT
ATOM      1  C   UNL     1      47.079   5.881  12.803  0.00  0.00    +0.000 C 
ENDROOT
BRANCH   1   2
ATOM      2  C   UNL     1      45.803   6.655  12.407  0.00  0.00    +0.000 C 
ATOM      3  C   UNL     1      45.468   6.552  10.911  0.00  0.00    +0.000 C 
ATOM      4  C   UNL     1      45.083   5.132  10.492  0.00  0.00    +0.000 C 
ATOM      5  C   UNL     1      43.951   4.550  11.358  0.00  0.00    +0.000 C 
ATOM      6  C   UNL     1      44.232   4.723  12.864  0.00  0.00    +0.000 C 
ATOM      7  C   UNL     1      44.596   6.161  13.215  0.00  0.00    +0.000 C 
BRANCH   5   8
ATOM      8  C   UNL     1      43.711   3.067  11.008  0.00  0.00    +0.000 C 
BRANCH   8   9
ATOM      9  N   UNL     1      44.913   2.507  10.396  0.00  0.00    +0.000 NA
ATOM     10  H   UNL     1      45.371   1.868  11.044  0.00  0.00    +0.000 HD
BRANCH   9  11
ATOM     11  C   UNL     1      44.639   1.816   9.143  0.00  0.00    +0.000 C 
BRANCH  11  12
ATOM     12  C   UNL     1      45.732   2.105   8.143  0.00  0.00    +0.000 A 
ATOM     13  C   UNL     1      45.797   3.330   7.475  0.00  0.00    +0.000 A 
ATOM     14  C   UNL     1      46.816   3.535   6.558  0.00  0.00    +0.000 A 
ATOM     15  N   UNL     1      47.763   2.619   6.264  0.00  0.00    +0.000 NA
ATOM     16  C   UNL     1      47.684   1.440   6.917  0.00  0.00    +0.000 A 
ATOM     17  C   UNL     1      46.706   1.141   7.851  0.00  0.00    +0.000 A 
ENDBRANCH  11  12
ENDBRANCH   9  11
ENDBRANCH   8   9
ENDBRANCH   5   8
ENDBRANCH   1   2
BRANCH   1  20
ATOM     18  O   UNL     1      49.524   6.827  13.917  0.00  0.00    +0.000 OA
ATOM     19  C   UNL     1      48.588   6.531  14.657  0.00  0.00    +0.000 C 
ATOM     20  N   UNL     1      47.397   6.029  14.203  0.00  0.00    +0.000 N 
ATOM     21  H   UNL     1      46.643   5.869  14.859  0.00  0.00    +0.000 HD
BRANCH  19  22
ATOM     22  C   UNL     1      48.705   6.657  16.113  0.00  0.00    +0.000 A 
ATOM     23  C   UNL     1      48.950   7.890  16.701  0.00  0.00    +0.000 A 
ATOM     24  S   UNL     1      49.033   7.820  18.406  0.00  0.00    +0.000 S 
ATOM     25  C   UNL     1      48.705   6.154  18.408  0.00  0.00    +0.000 A 
ATOM     26  N   UNL     1      48.595   5.458  19.578  0.00  0.00    +0.000 NA
ATOM     27  C   UNL     1      48.298   4.212  19.430  0.00  0.00    +0.000 A 
ATOM     28  N   UNL     1      48.108   3.590  18.222  0.00  0.00    +0.000 N 
ATOM     29  C   UNL     1      48.293   4.225  17.021  0.00  0.00    +0.000 A 
ATOM     30  O   UNL     1      48.275   3.592  15.969  0.00  0.00    +0.000 OA
ATOM     31  C   UNL     1      48.569   5.647  17.134  0.00  0.00    +0.000 A 
ATOM     32  H   UNL     1      47.916   2.598  18.172  0.00  0.00    +0.000 HD
ENDBRANCH  19  22
ENDBRANCH   1  20
TORSDOF 7
ENDMDL
MODEL 4
REMARK VINA RESULT:    -7.875      3.414      9.333
REMARK INTER + INTRA:         -11.649
REMARK INTER:                 -10.293
REMARK INTRA:                  -1.356
REMARK UNBOUND:                -0.551
REMARK  Name = 
REMARK  7 active torsions:
REMARK  status: ('A' for Active; 'I' for Inactive)
REMARK    1  A    between atoms: C_2  and  C_20
REMARK    2  A    between atoms: N_3  and  C_4
REMARK    3  A    between atoms: C_4  and  C_5
REMARK    4  A    between atoms: C_8  and  C_9
REMARK    5  A    between atoms: C_9  and  N_10
REMARK    6  A    between atoms: N_10  and  C_11
REMARK    7  A    between atoms: C_11  and  C_12
REMARK                            x       y       z     vdW  Elec       q    Type
REMARK                         _______ _______ _______ _____ _____    ______ ____
ROOT
ATOM      1  C   UNL     1      48.627   5.786  16.231  0.00  0.00    +0.000 C 
ENDROOT
BRANCH   1   2
ATOM      2  C   UNL     1      48.145   5.087  17.520  0.00  0.00    +0.000 C 
ATOM      3  C   UNL     1      47.534   3.698  17.269  0.00  0.00    +0.000 C 
ATOM      4  C   UNL     1      48.565   2.687  16.764  0.00  0.00    +0.000 C 
ATOM      5  C   UNL     1      49.798   2.597  17.682  0.00  0.00    +0.000 C 
ATOM      6  C   UNL     1      50.372   3.988  18.014  0.00  0.00    +0.000 C 
ATOM      7  C   UNL     1      49.296   4.942  18.523  0.00  0.00    +0.000 C 
BRANCH   5   8
ATOM      8  C   UNL     1      50.877   1.692  17.050  0.00  0.00    +0.000 C 
BRANCH   8   9
ATOM      9  N   UNL     1      51.561   0.940  18.098  0.00  0.00    +0.000 NA
ATOM     10  H   UNL     1      51.057   0.078  18.296  0.00  0.00    +0.000 HD
BRANCH   9  11
ATOM     11  C   UNL     1      52.944   0.628  17.758  0.00  0.00    +0.000 C 
BRANCH  11  12
ATOM     12  C   UNL     1      53.821   1.831  18.005  0.00  0.00    +0.000 A 
ATOM     13  C   UNL     1      54.822   2.194  17.101  0.00  0.00    +0.000 A 
ATOM     14  C   UNL     1      55.605   3.302  17.385  0.00  0.00    +0.000 A 
ATOM     15  N   UNL     1      55.465   4.063  18.492  0.00  0.00    +0.000 NA
ATOM     16  C   UNL     1      54.494   3.695  19.356  0.00  0.00    +0.000 A 
ATOM     17  C   UNL     1      53.660   2.607  19.159  0.00  0.00    +0.000 A 
ENDBRANCH  11  12
ENDBRANCH   9  11
ENDBRANCH   8   9
ENDBRANCH   5   8
ENDBRANCH   1   2
BRANCH   1  20
ATOM     18  O   UNL     1      48.946   6.472  13.485  0.00  0.00    +0.000 OA
ATOM     19  C   UNL     1      47.837   6.159  13.913  0.00  0.00    +0.000 C 
ATOM     20  N   UNL     1      47.593   5.859  15.228  0.00  0.00    +0.000 N 
ATOM     21  H   UNL     1      46.671   5.543  15.502  0.00  0.00    +0.000 HD
BRANCH  19  22
ATOM     22  C   UNL     1      46.666   6.131  13.032  0.00  0.00    +0.000 A 
ATOM     23  C   UNL     1      46.198   7.294  12.436  0.00  0.00    +0.000 A 
ATOM     24  S   UNL     1      44.837   7.039  11.436  0.00  0.00    +0.000 S 
ATOM     25  C   UNL     1      44.859   5.368  11.738  0.00  0.00    +0.000 A 
ATOM     26  N   UNL     1      43.959   4.532  11.141  0.00  0.00    +0.000 NA
ATOM     27  C   UNL     1      44.123   3.284  11.425  0.00  0.00    +0.000 A 
ATOM     28  N   UNL     1      45.096   2.791  12.257  0.00  0.00    +0.000 N 
ATOM     29  C   UNL     1      45.965   3.599  12.946  0.00  0.00    +0.000 A 
ATOM     30  O   UNL     1      46.709   3.130  13.804  0.00  0.00    +0.000 OA
ATOM     31  C   UNL     1      45.861   5.008  12.612  0.00  0.00    +0.000 A 
ATOM     32  H   UNL     1      45.147   1.804  12.472  0.00  0.00    +0.000 HD
ENDBRANCH  19  22
ENDBRANCH   1  20
TORSDOF 7
ENDMDL
MODEL 5
REMARK VINA RESULT:    -7.733      3.584      8.627
REMARK INTER + INTRA:         -11.448
REMARK INTER:                  -9.770
REMARK INTRA:                  -1.678
REMARK UNBOUND:                -0.551
REMARK  Name = 
REMARK  7 active torsions:
REMARK  status: ('A' for Active; 'I' for Inactive)
REMARK    1  A    between atoms: C_2  and  C_20
REMARK    2  A    between atoms: N_3  and  C_4
REMARK    3  A    between atoms: C_4  and  C_5
REMARK    4  A    between atoms: C_8  and  C_9
REMARK    5  A    between atoms: C_9  and  N_10
REMARK    6  A    between atoms: N_10  and  C_11
REMARK    7  A    between atoms: C_11  and  C_12
REMARK                            x       y       z     vdW  Elec       q    Type
REMARK                         _______ _______ _______ _____ _____    ______ ____
ROOT
ATOM      1  C   UNL     1      48.924   6.235  15.717  0.00  0.00    +0.000 C 
ENDROOT
BRANCH   1   2
ATOM      2  C   UNL     1      49.311   7.674  16.119  0.00  0.00    +0.000 C 
ATOM      3  C   UNL     1      48.306   8.329  17.080  0.00  0.00    +0.000 C 
ATOM      4  C   UNL     1      48.274   7.649  18.449  0.00  0.00    +0.000 C 
ATOM      5  C   UNL     1      49.671   7.546  19.089  0.00  0.00    +0.000 C 
ATOM      6  C   UNL     1      50.711   6.970  18.108  0.00  0.00    +0.000 C 
ATOM      7  C   UNL     1      50.700   7.701  16.770  0.00  0.00    +0.000 C 
BRANCH   5   8
ATOM      8  C   UNL     1      49.612   6.711  20.384  0.00  0.00    +0.000 C 
BRANCH   8   9
ATOM      9  N   UNL     1      49.949   5.322  20.087  0.00  0.00    +0.000 NA
ATOM     10  H   UNL     1      50.468   4.913  20.863  0.00  0.00    +0.000 HD
BRANCH   9  11
ATOM     11  C   UNL     1      48.776   4.504  19.804  0.00  0.00    +0.000 C 
BRANCH  11  12
ATOM     12  C   UNL     1      49.013   3.668  18.570  0.00  0.00    +0.000 A 
ATOM     13  C   UNL     1      47.954   3.262  17.756  0.00  0.00    +0.000 A 
ATOM     14  C   UNL     1      48.230   2.485  16.641  0.00  0.00    +0.000 A 
ATOM     15  N   UNL     1      49.471   2.090  16.286  0.00  0.00    +0.000 NA
ATOM     16  C   UNL     1      50.483   2.489  17.085  0.00  0.00    +0.000 A 
ATOM     17  C   UNL     1      50.308   3.268  18.218  0.00  0.00    +0.000 A 
ENDBRANCH  11  12
ENDBRANCH   9  11
ENDBRANCH   8   9
ENDBRANCH   5   8
ENDBRANCH   1   2
BRANCH   1  20
ATOM     18  O   UNL     1      48.899   6.322  12.870  0.00  0.00    +0.000 OA
ATOM     19  C   UNL     1      47.843   6.206  13.488  0.00  0.00    +0.000 C 
ATOM     20  N   UNL     1      47.766   6.200  14.856  0.00  0.00    +0.000 N 
ATOM     21  H   UNL     1      46.874   6.032  15.302  0.00  0.00    +0.000 HD
BRANCH  19  22
ATOM     22  C   UNL     1      46.561   6.109  12.784  0.00  0.00    +0.000 A 
ATOM     23  C   UNL     1      45.977   7.234  12.216  0.00  0.00    +0.000 A 
ATOM     24  S   UNL     1      44.497   6.901  11.431  0.00  0.00    +0.000 S 
ATOM     25  C   UNL     1      44.614   5.245  11.790  0.00  0.00    +0.000 A 
ATOM     26  N   UNL     1      43.667   4.362  11.360  0.00  0.00    +0.000 NA
ATOM     27  C   UNL     1      43.909   3.132  11.666  0.00  0.00    +0.000 A 
ATOM     28  N   UNL     1      45.005   2.700  12.369  0.00  0.00    +0.000 N 
ATOM     29  C   UNL     1      45.936   3.559  12.896  0.00  0.00    +0.000 A 
ATOM     30  O   UNL     1      46.808   3.147  13.656  0.00  0.00    +0.000 OA
ATOM     31  C   UNL     1      45.741   4.950  12.526  0.00  0.00    +0.000 A 
ATOM     32  H   UNL     1      45.117   1.725  12.613  0.00  0.00    +0.000 HD
ENDBRANCH  19  22
ENDBRANCH   1  20
TORSDOF 7
ENDMDL
MODEL 6
REMARK VINA RESULT:    -7.676      3.379      8.518
REMARK INTER + INTRA:         -11.369
REMARK INTER:                 -10.144
REMARK INTRA:                  -1.225
REMARK UNBOUND:                -0.551
REMARK  Name = 
REMARK  7 active torsions:
REMARK  status: ('A' for Active; 'I' for Inactive)
REMARK    1  A    between atoms: C_2  and  C_20
REMARK    2  A    between atoms: N_3  and  C_4
REMARK    3  A    between atoms: C_4  and  C_5
REMARK    4  A    between atoms: C_8  and  C_9
REMARK    5  A    between atoms: C_9  and  N_10
REMARK    6  A    between atoms: N_10  and  C_11
REMARK    7  A    between atoms: C_11  and  C_12
REMARK                            x       y       z     vdW  Elec       q    Type
REMARK                         _______ _______ _______ _____ _____    ______ ____
ROOT
ATOM      1  C   UNL     1      46.425   8.129  13.000  0.00  0.00    +0.000 C 
ENDROOT
BRANCH   1   2
ATOM      2  C   UNL     1      47.903   8.300  12.589  0.00  0.00    +0.000 C 
ATOM      3  C   UNL     1      48.612   9.446  13.328  0.00  0.00    +0.000 C 
ATOM      4  C   UNL     1      48.762   9.175  14.826  0.00  0.00    +0.000 C 
ATOM      5  C   UNL     1      49.439   7.822  15.114  0.00  0.00    +0.000 C 
ATOM      6  C   UNL     1      48.794   6.674  14.313  0.00  0.00    +0.000 C 
ATOM      7  C   UNL     1      48.687   7.004  12.828  0.00  0.00    +0.000 C 
BRANCH   5   8
ATOM      8  C   UNL     1      49.419   7.519  16.626  0.00  0.00    +0.000 C 
BRANCH   8   9
ATOM      9  N   UNL     1      48.270   6.675  16.942  0.00  0.00    +0.000 NA
ATOM     10  H   UNL     1      47.967   6.170  16.111  0.00  0.00    +0.000 HD
BRANCH   9  11
ATOM     11  C   UNL     1      48.542   5.728  18.016  0.00  0.00    +0.000 C 
BRANCH  11  12
ATOM     12  C   UNL     1      48.861   4.370  17.439  0.00  0.00    +0.000 A 
ATOM     13  C   UNL     1      50.093   3.755  17.674  0.00  0.00    +0.000 A 
ATOM     14  C   UNL     1      50.334   2.512  17.110  0.00  0.00    +0.000 A 
ATOM     15  N   UNL     1      49.448   1.847  16.339  0.00  0.00    +0.000 NA
ATOM     16  C   UNL     1      48.263   2.457  16.121  0.00  0.00    +0.000 A 
ATOM     17  C   UNL     1      47.927   3.696  16.642  0.00  0.00    +0.000 A 
ENDBRANCH  11  12
ENDBRANCH   9  11
ENDBRANCH   8   9
ENDBRANCH   5   8
ENDBRANCH   1   2
BRANCH   1  20
ATOM     18  O   UNL     1      44.242   7.563  11.260  0.00  0.00    +0.000 OA
ATOM     19  C   UNL     1      44.873   6.640  11.770  0.00  0.00    +0.000 C 
ATOM     20  N   UNL     1      45.906   6.828  12.650  0.00  0.00    +0.000 N 
ATOM     21  H   UNL     1      46.428   6.027  12.981  0.00  0.00    +0.000 HD
BRANCH  19  22
ATOM     22  C   UNL     1      44.523   5.243  11.498  0.00  0.00    +0.000 A 
ATOM     23  C   UNL     1      43.751   4.517  12.395  0.00  0.00    +0.000 A 
ATOM     24  S   UNL     1      43.444   2.917  11.881  0.00  0.00    +0.000 S 
ATOM     25  C   UNL     1      44.297   3.160  10.432  0.00  0.00    +0.000 A 
ATOM     26  N   UNL     1      44.389   2.173   9.494  0.00  0.00    +0.000 NA
ATOM     27  C   UNL     1      45.026   2.512   8.425  0.00  0.00    +0.000 A 
ATOM     28  N   UNL     1      45.589   3.744   8.206  0.00  0.00    +0.000 N 
ATOM     29  C   UNL     1      45.597   4.737   9.153  0.00  0.00    +0.000 A 
ATOM     30  O   UNL     1      46.252   5.761   8.980  0.00  0.00    +0.000 OA
ATOM     31  C   UNL     1      44.838   4.425  10.351  0.00  0.00    +0.000 A 
ATOM     32  H   UNL     1      46.111   3.935   7.361  0.00  0.00    +0.000 HD
ENDBRANCH  19  22
ENDBRANCH   1  20
TORSDOF 7
ENDMDL
MODEL 7
REMARK VINA RESULT:    -7.429      3.691      9.084
REMARK INTER + INTRA:         -11.020
REMARK INTER:                  -8.867
REMARK INTRA:                  -2.153
REMARK UNBOUND:                -0.551
REMARK  Name = 
REMARK  7 active torsions:
REMARK  status: ('A' for Active; 'I' for Inactive)
REMARK    1  A    between atoms: C_2  and  C_20
REMARK    2  A    between atoms: N_3  and  C_4
REMARK    3  A    between atoms: C_4  and  C_5
REMARK    4  A    between atoms: C_8  and  C_9
REMARK    5  A    between atoms: C_9  and  N_10
REMARK    6  A    between atoms: N_10  and  C_11
REMARK    7  A    between atoms: C_11  and  C_12
REMARK                            x       y       z     vdW  Elec       q    Type
REMARK                         _______ _______ _______ _____ _____    ______ ____
ROOT
ATOM      1  C   UNL     1      48.835   5.839  16.307  0.00  0.00    +0.000 C 
ENDROOT
BRANCH   1   2
ATOM      2  C   UNL     1      48.730   4.581  17.196  0.00  0.00    +0.000 C 
ATOM      3  C   UNL     1      49.799   4.523  18.299  0.00  0.00    +0.000 C 
ATOM      4  C   UNL     1      49.625   5.627  19.344  0.00  0.00    +0.000 C 
ATOM      5  C   UNL     1      48.206   5.651  19.943  0.00  0.00    +0.000 C 
ATOM      6  C   UNL     1      47.120   5.623  18.850  0.00  0.00    +0.000 C 
ATOM      7  C   UNL     1      47.345   4.493  17.850  0.00  0.00    +0.000 C 
BRANCH   5   8
ATOM      8  C   UNL     1      48.030   6.876  20.864  0.00  0.00    +0.000 C 
BRANCH   8   9
ATOM      9  N   UNL     1      47.512   8.001  20.090  0.00  0.00    +0.000 NA
ATOM     10  H   UNL     1      46.678   8.380  20.537  0.00  0.00    +0.000 HD
BRANCH   9  11
ATOM     11  C   UNL     1      48.493   9.063  19.911  0.00  0.00    +0.000 C 
BRANCH  11  12
ATOM     12  C   UNL     1      48.885   9.166  18.457  0.00  0.00    +0.000 A 
ATOM     13  C   UNL     1      47.926   9.351  17.459  0.00  0.00    +0.000 A 
ATOM     14  C   UNL     1      48.343   9.426  16.140  0.00  0.00    +0.000 A 
ATOM     15  N   UNL     1      49.632   9.332  15.748  0.00  0.00    +0.000 NA
ATOM     16  C   UNL     1      50.546   9.152  16.726  0.00  0.00    +0.000 A 
ATOM     17  C   UNL     1      50.228   9.066  18.071  0.00  0.00    +0.000 A 
ENDBRANCH  11  12
ENDBRANCH   9  11
ENDBRANCH   8   9
ENDBRANCH   5   8
ENDBRANCH   1   2
BRANCH   1  20
ATOM     18  O   UNL     1      49.132   6.571  13.570  0.00  0.00    +0.000 OA
ATOM     19  C   UNL     1      48.034   6.214  13.993  0.00  0.00    +0.000 C 
ATOM     20  N   UNL     1      47.800   5.888  15.303  0.00  0.00    +0.000 N 
ATOM     21  H   UNL     1      46.889   5.536  15.571  0.00  0.00    +0.000 HD
BRANCH  19  22
ATOM     22  C   UNL     1      46.866   6.155  13.109  0.00  0.00    +0.000 A 
ATOM     23  C   UNL     1      46.390   7.301  12.486  0.00  0.00    +0.000 A 
ATOM     24  S   UNL     1      45.034   7.011  11.488  0.00  0.00    +0.000 S 
ATOM     25  C   UNL     1      45.070   5.348  11.828  0.00  0.00    +0.000 A 
ATOM     26  N   UNL     1      44.179   4.491  11.247  0.00  0.00    +0.000 NA
ATOM     27  C   UNL     1      44.353   3.251  11.560  0.00  0.00    +0.000 A 
ATOM     28  N   UNL     1      45.328   2.786  12.406  0.00  0.00    +0.000 N 
ATOM     29  C   UNL     1      46.188   3.616  13.078  0.00  0.00    +0.000 A 
ATOM     30  O   UNL     1      46.933   3.173  13.948  0.00  0.00    +0.000 OA
ATOM     31  C   UNL     1      46.073   5.017  12.712  0.00  0.00    +0.000 A 
ATOM     32  H   UNL     1      45.386   1.804  12.643  0.00  0.00    +0.000 HD
ENDBRANCH  19  22
ENDBRANCH   1  20
TORSDOF 7
ENDMDL
MODEL 8
REMARK VINA RESULT:    -7.368      3.599      9.063
REMARK INTER + INTRA:         -10.934
REMARK INTER:                  -8.823
REMARK INTRA:                  -2.111
REMARK UNBOUND:                -0.551
REMARK  Name = 
REMARK  7 active torsions:
REMARK  status: ('A' for Active; 'I' for Inactive)
REMARK    1  A    between atoms: C_2  and  C_20
REMARK    2  A    between atoms: N_3  and  C_4
REMARK    3  A    between atoms: C_4  and  C_5
REMARK    4  A    between atoms: C_8  and  C_9
REMARK    5  A    between atoms: C_9  and  N_10
REMARK    6  A    between atoms: N_10  and  C_11
REMARK    7  A    between atoms: C_11  and  C_12
REMARK                            x       y       z     vdW  Elec       q    Type
REMARK                         _______ _______ _______ _____ _____    ______ ____
ROOT
ATOM      1  C   UNL     1      48.369   5.293  15.896  0.00  0.00    +0.000 C 
ENDROOT
BRANCH   1   2
ATOM      2  C   UNL     1      48.129   4.028  16.748  0.00  0.00    +0.000 C 
ATOM      3  C   UNL     1      49.401   3.510  17.440  0.00  0.00    +0.000 C 
ATOM      4  C   UNL     1      49.926   4.476  18.503  0.00  0.00    +0.000 C 
ATOM      5  C   UNL     1      48.847   4.859  19.533  0.00  0.00    +0.000 C 
ATOM      6  C   UNL     1      47.535   5.300  18.855  0.00  0.00    +0.000 C 
ATOM      7  C   UNL     1      47.061   4.288  17.817  0.00  0.00    +0.000 C 
BRANCH   5   8
ATOM      8  C   UNL     1      49.373   5.956  20.483  0.00  0.00    +0.000 C 
BRANCH   8   9
ATOM      9  N   UNL     1      50.381   6.758  19.795  0.00  0.00    +0.000 NA
ATOM     10  H   UNL     1      50.624   6.327  18.905  0.00  0.00    +0.000 HD
BRANCH   9  11
ATOM     11  C   UNL     1      49.951   8.132  19.568  0.00  0.00    +0.000 C 
BRANCH  11  12
ATOM     12  C   UNL     1      49.692   8.357  18.098  0.00  0.00    +0.000 A 
ATOM     13  C   UNL     1      50.685   8.125  17.144  0.00  0.00    +0.000 A 
ATOM     14  C   UNL     1      50.394   8.360  15.810  0.00  0.00    +0.000 A 
ATOM     15  N   UNL     1      49.200   8.805  15.364  0.00  0.00    +0.000 NA
ATOM     16  C   UNL     1      48.252   9.027  16.300  0.00  0.00    +0.000 A 
ATOM     17  C   UNL     1      48.446   8.819  17.656  0.00  0.00    +0.000 A 
ENDBRANCH  11  12
ENDBRANCH   9  11
ENDBRANCH   8   9
ENDBRANCH   5   8
ENDBRANCH   1   2
BRANCH   1  20
ATOM     18  O   UNL     1      48.664   6.170  13.202  0.00  0.00    +0.000 OA
ATOM     19  C   UNL     1      47.548   5.897  13.638  0.00  0.00    +0.000 C 
ATOM     20  N   UNL     1      47.317   5.511  14.932  0.00  0.00    +0.000 N 
ATOM     21  H   UNL     1      46.383   5.236  15.209  0.00  0.00    +0.000 HD
BRANCH  19  22
ATOM     22  C   UNL     1      46.356   6.014  12.793  0.00  0.00    +0.000 A 
ATOM     23  C   UNL     1      45.938   7.252  12.322  0.00  0.00    +0.000 A 
ATOM     24  S   UNL     1      44.541   7.165  11.343  0.00  0.00    +0.000 S 
ATOM     25  C   UNL     1      44.479   5.474  11.486  0.00  0.00    +0.000 A 
ATOM     26  N   UNL     1      43.521   4.747  10.840  0.00  0.00    +0.000 NA
ATOM     27  C   UNL     1      43.623   3.471  11.001  0.00  0.00    +0.000 A 
ATOM     28  N   UNL     1      44.587   2.851  11.754  0.00  0.00    +0.000 N 
ATOM     29  C   UNL     1      45.516   3.542  12.490  0.00  0.00    +0.000 A 
ATOM     30  O   UNL     1      46.253   2.956  13.277  0.00  0.00    +0.000 OA
ATOM     31  C   UNL     1      45.481   4.981  12.293  0.00  0.00    +0.000 A 
ATOM     32  H   UNL     1      44.588   1.846  11.873  0.00  0.00    +0.000 HD
ENDBRANCH  19  22
ENDBRANCH   1  20
TORSDOF 7
ENDMDL
MODEL 9
REMARK VINA RESULT:    -6.965      3.852      8.402
REMARK INTER + INTRA:         -10.366
REMARK INTER:                  -9.079
REMARK INTRA:                  -1.287
REMARK UNBOUND:                -0.551
REMARK  Name = 
REMARK  7 active torsions:
REMARK  status: ('A' for Active; 'I' for Inactive)
REMARK    1  A    between atoms: C_2  and  C_20
REMARK    2  A    between atoms: N_3  and  C_4
REMARK    3  A    between atoms: C_4  and  C_5
REMARK    4  A    between atoms: C_8  and  C_9
REMARK    5  A    between atoms: C_9  and  N_10
REMARK    6  A    between atoms: N_10  and  C_11
REMARK    7  A    between atoms: C_11  and  C_12
REMARK                            x       y       z     vdW  Elec       q    Type
REMARK                         _______ _______ _______ _____ _____    ______ ____
ROOT
ATOM      1  C   UNL     1      49.395   7.290  12.763  0.00  0.00    +0.000 C 
ENDROOT
BRANCH   1   2
ATOM      2  C   UNL     1      49.508   8.768  13.197  0.00  0.00    +0.000 C 
ATOM      3  C   UNL     1      48.638   9.113  14.417  0.00  0.00    +0.000 C 
ATOM      4  C   UNL     1      49.104   8.405  15.690  0.00  0.00    +0.000 C 
ATOM      5  C   UNL     1      50.597   8.645  15.983  0.00  0.00    +0.000 C 
ATOM      6  C   UNL     1      51.476   8.386  14.744  0.00  0.00    +0.000 C 
ATOM      7  C   UNL     1      50.964   9.130  13.515  0.00  0.00    +0.000 C 
BRANCH   5   8
ATOM      8  C   UNL     1      51.058   7.783  17.177  0.00  0.00    +0.000 C 
BRANCH   8   9
ATOM      9  N   UNL     1      51.029   6.372  16.803  0.00  0.00    +0.000 NA
ATOM     10  H   UNL     1      51.920   6.100  16.391  0.00  0.00    +0.000 HD
BRANCH   9  11
ATOM     11  C   UNL     1      50.725   5.496  17.927  0.00  0.00    +0.000 C 
BRANCH  11  12
ATOM     12  C   UNL     1      49.481   4.692  17.635  0.00  0.00    +0.000 A 
ATOM     13  C   UNL     1      48.212   5.270  17.705  0.00  0.00    +0.000 A 
ATOM     14  C   UNL     1      47.105   4.480  17.437  0.00  0.00    +0.000 A 
ATOM     15  N   UNL     1      47.171   3.172  17.110  0.00  0.00    +0.000 NA
ATOM     16  C   UNL     1      48.406   2.629  17.049  0.00  0.00    +0.000 A 
ATOM     17  C   UNL     1      49.571   3.335  17.297  0.00  0.00    +0.000 A 
ENDBRANCH  11  12
ENDBRANCH   9  11
ENDBRANCH   8   9
ENDBRANCH   5   8
ENDBRANCH   1   2
BRANCH   1  20
ATOM     18  O   UNL     1      47.472   5.764  14.207  0.00  0.00    +0.000 OA
ATOM     19  C   UNL     1      47.179   6.238  13.111  0.00  0.00    +0.000 C 
ATOM     20  N   UNL     1      48.060   6.946  12.336  0.00  0.00    +0.000 N 
ATOM     21  H   UNL     1      47.736   7.367  11.475  0.00  0.00    +0.000 HD
BRANCH  19  22
ATOM     22  C   UNL     1      45.850   6.033  12.528  0.00  0.00    +0.000 A 
ATOM     23  C   UNL     1      45.130   7.102  12.012  0.00  0.00    +0.000 A 
ATOM     24  S   UNL     1      43.616   6.645  11.366  0.00  0.00    +0.000 S 
ATOM     25  C   UNL     1      43.896   5.008  11.720  0.00  0.00    +0.000 A 
ATOM     26  N   UNL     1      42.987   4.047  11.382  0.00  0.00    +0.000 NA
ATOM     27  C   UNL     1      43.352   2.844  11.670  0.00  0.00    +0.000 A 
ATOM     28  N   UNL     1      44.539   2.508  12.272  0.00  0.00    +0.000 N 
ATOM     29  C   UNL     1      45.443   3.443  12.707  0.00  0.00    +0.000 A 
ATOM     30  O   UNL     1      46.410   3.110  13.387  0.00  0.00    +0.000 OA
ATOM     31  C   UNL     1      45.105   4.810  12.351  0.00  0.00    +0.000 A 
ATOM     32  H   UNL     1      44.749   1.547  12.508  0.00  0.00    +0.000 HD
ENDBRANCH  19  22
ENDBRANCH   1  20
TORSDOF 7
ENDMDL
