MODEL 1
REMARK VINA RESULT:    -8.808      0.000      0.000
REMARK INTER + INTRA:         -12.254
REMARK INTER:                 -11.382
REMARK INTRA:                  -0.872
REMARK UNBOUND:                -0.872
REMARK  Name = 
REMARK  5 active torsions:
REMARK  status: ('A' for Active; 'I' for Inactive)
REMARK    1  A    between atoms: C_2  and  C_4
REMARK    2  A    between atoms: C_7  and  O_8
REMARK    3  A    between atoms: O_8  and  C_9
REMARK    4  A    between atoms: C_9  and  C_10
REMARK    5  A    between atoms: C_14  and  C_15
REMARK                            x       y       z     vdW  Elec       q    Type
REMARK                         _______ _______ _______ _____ _____    ______ ____
ROOT
ATOM      1  C   UNL     1      43.730   4.124  11.288  0.00  0.00    +0.000 C 
ENDROOT
BRANCH   1   2
ATOM      2  C   UNL     1      44.947   4.576  12.064  0.00  0.00    +0.000 A 
ATOM      3  C   UNL     1      45.659   3.716  12.903  0.00  0.00    +0.000 A 
ATOM      4  C   UNL     1      46.815   4.161  13.540  0.00  0.00    +0.000 A 
ATOM      5  C   UNL     1      47.278   5.465  13.330  0.00  0.00    +0.000 A 
ATOM      6  C   UNL     1      46.612   6.352  12.467  0.00  0.00    +0.000 A 
ATOM      7  C   UNL     1      45.440   5.879  11.848  0.00  0.00    +0.000 A 
BRANCH   6   8
ATOM      8  C   UNL     1      47.134   7.714  12.197  0.00  0.00    +0.000 A 
ATOM      9  C   UNL     1      46.314   8.857  12.292  0.00  0.00    +0.000 A 
ATOM     10  C   UNL     1      46.808  10.141  12.027  0.00  0.00    +0.000 A 
ATOM     11  C   UNL     1      48.140  10.313  11.670  0.00  0.00    +0.000 A 
ATOM     12  C   UNL     1      48.961   9.200  11.570  0.00  0.00    +0.000 A 
ATOM     13  F   UNL     1      50.247   9.356  11.225  0.00  0.00    +0.000 F 
ATOM     14  C   UNL     1      48.473   7.919  11.820  0.00  0.00    +0.000 A 
ENDBRANCH   6   8
ENDBRANCH   1   2
BRANCH   1  15
ATOM     15  O   UNL     1      43.740   4.601   9.938  0.00  0.00    +0.000 OA
BRANCH  15  19
ATOM     16  C   UNL     1      46.442   2.468   7.670  0.00  0.00    +0.000 A 
ATOM     17  C   UNL     1      45.604   1.794   8.561  0.00  0.00    +0.000 A 
ATOM     18  C   UNL     1      44.689   2.525   9.323  0.00  0.00    +0.000 A 
ATOM     19  C   UNL     1      44.644   3.903   9.162  0.00  0.00    +0.000 A 
ATOM     20  N   UNL     1      45.440   4.577   8.304  0.00  0.00    +0.000 NA
ATOM     21  C   UNL     1      46.329   3.849   7.588  0.00  0.00    +0.000 A 
BRANCH  16  23
ATOM     22  N   UNL     1      48.516   2.562   6.406  0.00  0.00    +0.000 N 
ATOM     23  C   UNL     1      47.462   1.805   6.834  0.00  0.00    +0.000 C 
ATOM     24  O   UNL     1      47.393   0.614   6.566  0.00  0.00    +0.000 OA
ATOM     25  H   UNL     1      49.258   2.059   5.933  0.00  0.00    +0.000 HD
ATOM     26  H   UNL     1      48.746   3.457   6.813  0.00  0.00    +0.000 HD
ENDBRANCH  16  23
ENDBRANCH  15  19
ENDBRANCH   1  15
TORSDOF 5
ENDMDL
MODEL 2
REMARK VINA RESULT:    -8.790      0.963      1.373
REMARK INTER + INTRA:         -12.231
REMARK INTER:                 -11.354
REMARK INTRA:                  -0.878
REMARK UNBOUND:                -0.872
REMARK  Name = 
REMARK  5 active torsions:
REMARK  status: ('A' for Active; 'I' for Inactive)
REMARK    1  A    between atoms: C_2  and  C_4
REMARK    2  A    between atoms: C_7  and  O_8
REMARK    3  A    between atoms: O_8  and  C_9
REMARK    4  A    between atoms: C_9  and  C_10
REMARK    5  A    between atoms: C_14  and  C_15
REMARK                            x       y       z     vdW  Elec       q    Type
REMARK                         _______ _______ _______ _____ _____    ______ ____
ROOT
ATOM      1  C   UNL     1      43.662   4.359  11.246  0.00  0.00    +0.000 C 
ENDROOT
BRANCH   1   2
ATOM      2  C   UNL     1      44.877   4.778  12.044  0.00  0.00    +0.000 A 
ATOM      3  C   UNL     1      45.533   3.908  12.917  0.00  0.00    +0.000 A 
ATOM      4  C   UNL     1      46.690   4.320  13.574  0.00  0.00    +0.000 A 
ATOM      5  C   UNL     1      47.211   5.599  13.350  0.00  0.00    +0.000 A 
ATOM      6  C   UNL     1      46.602   6.494  12.453  0.00  0.00    +0.000 A 
ATOM      7  C   UNL     1      45.428   6.055  11.814  0.00  0.00    +0.000 A 
BRANCH   6   8
ATOM      8  C   UNL     1      47.186   7.829  12.169  0.00  0.00    +0.000 A 
ATOM      9  C   UNL     1      48.539   7.987  11.807  0.00  0.00    +0.000 A 
ATOM     10  C   UNL     1      49.089   9.250  11.550  0.00  0.00    +0.000 A 
ATOM     11  C   UNL     1      48.291  10.385  11.638  0.00  0.00    +0.000 A 
ATOM     12  C   UNL     1      46.958  10.248  11.992  0.00  0.00    +0.000 A 
ATOM     13  F   UNL     1      46.183  11.337  12.080  0.00  0.00    +0.000 F 
ATOM     14  C   UNL     1      46.408   8.997  12.262  0.00  0.00    +0.000 A 
ENDBRANCH   6   8
ENDBRANCH   1   2
BRANCH   1  15
ATOM     15  O   UNL     1      43.745   4.767   9.877  0.00  0.00    +0.000 OA
BRANCH  15  19
ATOM     16  C   UNL     1      46.338   2.327   7.797  0.00  0.00    +0.000 A 
ATOM     17  C   UNL     1      45.436   1.765   8.703  0.00  0.00    +0.000 A 
ATOM     18  C   UNL     1      44.559   2.599   9.401  0.00  0.00    +0.000 A 
ATOM     19  C   UNL     1      44.614   3.965   9.162  0.00  0.00    +0.000 A 
ATOM     20  N   UNL     1      45.474   4.532   8.289  0.00  0.00    +0.000 NA
ATOM     21  C   UNL     1      46.323   3.706   7.636  0.00  0.00    +0.000 A 
BRANCH  16  23
ATOM     22  N   UNL     1      48.411   2.218   6.534  0.00  0.00    +0.000 N 
ATOM     23  C   UNL     1      47.325   1.549   7.024  0.00  0.00    +0.000 C 
ATOM     24  O   UNL     1      47.203   0.343   6.861  0.00  0.00    +0.000 OA
ATOM     25  H   UNL     1      49.129   1.643   6.108  0.00  0.00    +0.000 HD
ATOM     26  H   UNL     1      48.681   3.135   6.861  0.00  0.00    +0.000 HD
ENDBRANCH  16  23
ENDBRANCH  15  19
ENDBRANCH   1  15
TORSDOF 5
ENDMDL
MODEL 3
REMARK VINA RESULT:    -8.714      2.721      4.087
REMARK INTER + INTRA:         -12.133
REMARK INTER:                 -11.458
REMARK INTRA:                  -0.675
REMARK UNBOUND:                -0.872
REMARK  Name = 
REMARK  5 active torsions:
REMARK  status: ('A' for Active; 'I' for Inactive)
REMARK    1  A    between atoms: C_2  and  C_4
REMARK    2  A    between atoms: C_7  and  O_8
REMARK    3  A    between atoms: O_8  and  C_9
REMARK    4  A    between atoms: C_9  and  C_10
REMARK    5  A    between atoms: C_14  and  C_15
REMARK                            x       y       z     vdW  Elec       q    Type
REMARK                         _______ _______ _______ _____ _____    ______ ____
ROOT
ATOM      1  C   UNL     1      44.293   4.482  11.506  0.00  0.00    +0.000 C 
ENDROOT
BRANCH   1   2
ATOM      2  C   UNL     1      45.501   5.209  12.054  0.00  0.00    +0.000 A 
ATOM      3  C   UNL     1      46.061   6.317  11.414  0.00  0.00    +0.000 A 
ATOM      4  C   UNL     1      47.128   6.994  11.997  0.00  0.00    +0.000 A 
ATOM      5  C   UNL     1      47.634   6.581  13.235  0.00  0.00    +0.000 A 
ATOM      6  C   UNL     1      47.078   5.493  13.931  0.00  0.00    +0.000 A 
ATOM      7  C   UNL     1      46.009   4.820  13.311  0.00  0.00    +0.000 A 
BRANCH   6   8
ATOM      8  C   UNL     1      47.574   5.090  15.270  0.00  0.00    +0.000 A 
ATOM      9  C   UNL     1      48.533   5.852  15.968  0.00  0.00    +0.000 A 
ATOM     10  C   UNL     1      49.007   5.463  17.228  0.00  0.00    +0.000 A 
ATOM     11  C   UNL     1      48.521   4.305  17.825  0.00  0.00    +0.000 A 
ATOM     12  C   UNL     1      47.577   3.544  17.153  0.00  0.00    +0.000 A 
ATOM     13  F   UNL     1      47.104   2.426  17.721  0.00  0.00    +0.000 F 
ATOM     14  C   UNL     1      47.112   3.918  15.894  0.00  0.00    +0.000 A 
ENDBRANCH   6   8
ENDBRANCH   1   2
BRANCH   1  15
ATOM     15  O   UNL     1      44.060   4.783  10.126  0.00  0.00    +0.000 OA
BRANCH  15  19
ATOM     16  C   UNL     1      46.470   2.468   7.711  0.00  0.00    +0.000 A 
ATOM     17  C   UNL     1      45.671   1.857   8.679  0.00  0.00    +0.000 A 
ATOM     18  C   UNL     1      44.854   2.649   9.491  0.00  0.00    +0.000 A 
ATOM     19  C   UNL     1      44.866   4.024   9.300  0.00  0.00    +0.000 A 
ATOM     20  N   UNL     1      45.626   4.638   8.368  0.00  0.00    +0.000 NA
ATOM     21  C   UNL     1      46.419   3.852   7.604  0.00  0.00    +0.000 A 
BRANCH  16  23
ATOM     22  N   UNL     1      48.484   2.408   6.352  0.00  0.00    +0.000 N 
ATOM     23  C   UNL     1      47.388   1.737   6.816  0.00  0.00    +0.000 C 
ATOM     24  O   UNL     1      47.202   0.562   6.531  0.00  0.00    +0.000 OA
ATOM     25  H   UNL     1      49.156   1.853   5.835  0.00  0.00    +0.000 HD
ATOM     26  H   UNL     1      48.810   3.271   6.763  0.00  0.00    +0.000 HD
ENDBRANCH  16  23
ENDBRANCH  15  19
ENDBRANCH   1  15
TORSDOF 5
ENDMDL
MODEL 4
REMARK VINA RESULT:    -8.269      2.252      2.802
REMARK INTER + INTRA:         -11.557
REMARK INTER:                 -10.580
REMARK INTRA:                  -0.977
REMARK UNBOUND:                -0.872
REMARK  Name = 
REMARK  5 active torsions:
REMARK  status: ('A' for Active; 'I' for Inactive)
REMARK    1  A    between atoms: C_2  and  C_4
REMARK    2  A    between atoms: C_7  and  O_8
REMARK    3  A    between atoms: O_8  and  C_9
REMARK    4  A    between atoms: C_9  and  C_10
REMARK    5  A    between atoms: C_14  and  C_15
REMARK                            x       y       z     vdW  Elec       q    Type
REMARK                         _______ _______ _______ _____ _____    ______ ____
ROOT
ATOM      1  C   UNL     1      44.058   3.592  11.614  0.00  0.00    +0.000 C 
ENDROOT
BRANCH   1   2
ATOM      2  C   UNL     1      44.908   4.745  12.100  0.00  0.00    +0.000 A 
ATOM      3  C   UNL     1      46.112   4.551  12.781  0.00  0.00    +0.000 A 
ATOM      4  C   UNL     1      46.892   5.646  13.145  0.00  0.00    +0.000 A 
ATOM      5  C   UNL     1      46.485   6.943  12.815  0.00  0.00    +0.000 A 
ATOM      6  C   UNL     1      45.298   7.181  12.100  0.00  0.00    +0.000 A 
ATOM      7  C   UNL     1      44.523   6.058  11.758  0.00  0.00    +0.000 A 
BRANCH   6   8
ATOM      8  C   UNL     1      44.894   8.552  11.698  0.00  0.00    +0.000 A 
ATOM      9  C   UNL     1      45.637   9.688  12.077  0.00  0.00    +0.000 A 
ATOM     10  C   UNL     1      45.247  10.981  11.705  0.00  0.00    +0.000 A 
ATOM     11  C   UNL     1      44.106  11.166  10.932  0.00  0.00    +0.000 A 
ATOM     12  C   UNL     1      43.363  10.059  10.550  0.00  0.00    +0.000 A 
ATOM     13  F   UNL     1      42.261  10.229   9.805  0.00  0.00    +0.000 F 
ATOM     14  C   UNL     1      43.738   8.772  10.928  0.00  0.00    +0.000 A 
ENDBRANCH   6   8
ENDBRANCH   1   2
BRANCH   1  15
ATOM     15  O   UNL     1      43.638   3.762  10.257  0.00  0.00    +0.000 OA
BRANCH  15  19
ATOM     16  C   UNL     1      46.566   2.669   7.568  0.00  0.00    +0.000 A 
ATOM     17  C   UNL     1      46.171   4.005   7.654  0.00  0.00    +0.000 A 
ATOM     18  C   UNL     1      45.181   4.367   8.570  0.00  0.00    +0.000 A 
ATOM     19  C   UNL     1      44.625   3.378   9.370  0.00  0.00    +0.000 A 
ATOM     20  N   UNL     1      44.993   2.080   9.309  0.00  0.00    +0.000 NA
ATOM     21  C   UNL     1      45.944   1.751   8.404  0.00  0.00    +0.000 A 
BRANCH  16  23
ATOM     22  N   UNL     1      47.861   2.938   5.529  0.00  0.00    +0.000 N 
ATOM     23  C   UNL     1      47.583   2.167   6.623  0.00  0.00    +0.000 C 
ATOM     24  O   UNL     1      48.185   1.123   6.827  0.00  0.00    +0.000 OA
ATOM     25  H   UNL     1      48.641   2.630   4.959  0.00  0.00    +0.000 HD
ATOM     26  H   UNL     1      47.589   3.908   5.461  0.00  0.00    +0.000 HD
ENDBRANCH  16  23
ENDBRANCH  15  19
ENDBRANCH   1  15
TORSDOF 5
ENDMDL
MODEL 5
REMARK VINA RESULT:    -8.247      1.787      2.526
REMARK INTER + INTRA:         -11.529
REMARK INTER:                 -10.716
REMARK INTRA:                  -0.813
REMARK UNBOUND:                -0.872
REMARK  Name = 
REMARK  5 active torsions:
REMARK  status: ('A' for Active; 'I' for Inactive)
REMARK    1  A    between atoms: C_2  and  C_4
REMARK    2  A    between atoms: C_7  and  O_8
REMARK    3  A    between atoms: O_8  and  C_9
REMARK    4  A    between atoms: C_9  and  C_10
REMARK    5  A    between atoms: C_14  and  C_15
REMARK                            x       y       z     vdW  Elec       q    Type
REMARK                         _______ _______ _______ _____ _____    ______ ____
ROOT
ATOM      1  C   UNL     1      44.297   3.465  11.442  0.00  0.00    +0.000 C 
ENDROOT
BRANCH   1   2
ATOM      2  C   UNL     1      44.616   4.943  11.489  0.00  0.00    +0.000 A 
ATOM      3  C   UNL     1      43.648   5.924  11.261  0.00  0.00    +0.000 A 
ATOM      4  C   UNL     1      43.978   7.271  11.386  0.00  0.00    +0.000 A 
ATOM      5  C   UNL     1      45.273   7.648  11.758  0.00  0.00    +0.000 A 
ATOM      6  C   UNL     1      46.268   6.694  12.031  0.00  0.00    +0.000 A 
ATOM      7  C   UNL     1      45.910   5.341  11.883  0.00  0.00    +0.000 A 
BRANCH   6   8
ATOM      8  C   UNL     1      47.625   7.091  12.483  0.00  0.00    +0.000 A 
ATOM      9  C   UNL     1      48.519   7.778  11.636  0.00  0.00    +0.000 A 
ATOM     10  C   UNL     1      49.803   8.142  12.062  0.00  0.00    +0.000 A 
ATOM     11  C   UNL     1      50.218   7.836  13.353  0.00  0.00    +0.000 A 
ATOM     12  C   UNL     1      49.352   7.160  14.199  0.00  0.00    +0.000 A 
ATOM     13  F   UNL     1      49.746   6.861  15.445  0.00  0.00    +0.000 F 
ATOM     14  C   UNL     1      48.079   6.783  13.777  0.00  0.00    +0.000 A 
ENDBRANCH   6   8
ENDBRANCH   1   2
BRANCH   1  15
ATOM     15  O   UNL     1      43.723   3.074  10.191  0.00  0.00    +0.000 OA
BRANCH  15  19
ATOM     16  C   UNL     1      46.588   2.572   7.269  0.00  0.00    +0.000 A 
ATOM     17  C   UNL     1      45.938   3.801   7.395  0.00  0.00    +0.000 A 
ATOM     18  C   UNL     1      44.971   3.963   8.390  0.00  0.00    +0.000 A 
ATOM     19  C   UNL     1      44.694   2.889   9.226  0.00  0.00    +0.000 A 
ATOM     20  N   UNL     1      45.312   1.693   9.127  0.00  0.00    +0.000 NA
ATOM     21  C   UNL     1      46.234   1.555   8.146  0.00  0.00    +0.000 A 
BRANCH  16  23
ATOM     22  N   UNL     1      47.690   3.128   5.176  0.00  0.00    +0.000 N 
ATOM     23  C   UNL     1      47.607   2.277   6.242  0.00  0.00    +0.000 C 
ATOM     24  O   UNL     1      48.377   1.334   6.357  0.00  0.00    +0.000 OA
ATOM     25  H   UNL     1      48.470   2.972   4.546  0.00  0.00    +0.000 HD
ATOM     26  H   UNL     1      47.266   4.044   5.173  0.00  0.00    +0.000 HD
ENDBRANCH  16  23
ENDBRANCH  15  19
ENDBRANCH   1  15
TORSDOF 5
ENDMDL
MODEL 6
REMARK VINA RESULT:    -8.074      1.673      2.100
REMARK INTER + INTRA:         -11.306
REMARK INTER:                 -10.403
REMARK INTRA:                  -0.903
REMARK UNBOUND:                -0.872
REMARK  Name = 
REMARK  5 active torsions:
REMARK  status: ('A' for Active; 'I' for Inactive)
REMARK    1  A    between atoms: C_2  and  C_4
REMARK    2  A    between atoms: C_7  and  O_8
REMARK    3  A    between atoms: O_8  and  C_9
REMARK    4  A    between atoms: C_9  and  C_10
REMARK    5  A    between atoms: C_14  and  C_15
REMARK                            x       y       z     vdW  Elec       q    Type
REMARK                         _______ _______ _______ _____ _____    ______ ____
ROOT
ATOM      1  C   UNL     1      44.691   5.831  10.641  0.00  0.00    +0.000 C 
ENDROOT
BRANCH   1   2
ATOM      2  C   UNL     1      45.570   5.672  11.861  0.00  0.00    +0.000 A 
ATOM      3  C   UNL     1      45.305   4.727  12.854  0.00  0.00    +0.000 A 
ATOM      4  C   UNL     1      46.185   4.572  13.923  0.00  0.00    +0.000 A 
ATOM      5  C   UNL     1      47.347   5.349  13.997  0.00  0.00    +0.000 A 
ATOM      6  C   UNL     1      47.670   6.287  13.002  0.00  0.00    +0.000 A 
ATOM      7  C   UNL     1      46.755   6.432  11.943  0.00  0.00    +0.000 A 
BRANCH   6   8
ATOM      8  C   UNL     1      48.929   7.070  13.050  0.00  0.00    +0.000 A 
ATOM      9  C   UNL     1      49.551   7.551  11.879  0.00  0.00    +0.000 A 
ATOM     10  C   UNL     1      50.745   8.281  11.927  0.00  0.00    +0.000 A 
ATOM     11  C   UNL     1      51.342   8.557  13.152  0.00  0.00    +0.000 A 
ATOM     12  C   UNL     1      50.745   8.092  14.313  0.00  0.00    +0.000 A 
ATOM     13  F   UNL     1      51.314   8.353  15.498  0.00  0.00    +0.000 F 
ATOM     14  C   UNL     1      49.564   7.354  14.272  0.00  0.00    +0.000 A 
ENDBRANCH   6   8
ENDBRANCH   1   2
BRANCH   1  15
ATOM     15  O   UNL     1      44.147   4.583  10.198  0.00  0.00    +0.000 OA
BRANCH  15  19
ATOM     16  C   UNL     1      46.628   2.695   7.501  0.00  0.00    +0.000 A 
ATOM     17  C   UNL     1      45.912   1.937   8.429  0.00  0.00    +0.000 A 
ATOM     18  C   UNL     1      45.071   2.585   9.337  0.00  0.00    +0.000 A 
ATOM     19  C   UNL     1      44.975   3.968   9.279  0.00  0.00    +0.000 A 
ATOM     20  N   UNL     1      45.653   4.723   8.389  0.00  0.00    +0.000 NA
ATOM     21  C   UNL     1      46.472   4.075   7.529  0.00  0.00    +0.000 A 
BRANCH  16  23
ATOM     22  N   UNL     1      47.916   2.908   5.451  0.00  0.00    +0.000 N 
ATOM     23  C   UNL     1      47.562   2.123   6.512  0.00  0.00    +0.000 C 
ATOM     24  O   UNL     1      48.037   1.005   6.653  0.00  0.00    +0.000 OA
ATOM     25  H   UNL     1      48.645   2.538   4.851  0.00  0.00    +0.000 HD
ATOM     26  H   UNL     1      47.762   3.906   5.435  0.00  0.00    +0.000 HD
ENDBRANCH  16  23
ENDBRANCH  15  19
ENDBRANCH   1  15
TORSDOF 5
ENDMDL
MODEL 7
REMARK VINA RESULT:    -7.862      5.094      8.246
REMARK INTER + INTRA:         -11.032
REMARK INTER:                 -10.390
REMARK INTRA:                  -0.642
REMARK UNBOUND:                -0.872
REMARK  Name = 
REMARK  5 active torsions:
REMARK  status: ('A' for Active; 'I' for Inactive)
REMARK    1  A    between atoms: C_2  and  C_4
REMARK    2  A    between atoms: C_7  and  O_8
REMARK    3  A    between atoms: O_8  and  C_9
REMARK    4  A    between atoms: C_9  and  C_10
REMARK    5  A    between atoms: C_14  and  C_15
REMARK                            x       y       z     vdW  Elec       q    Type
REMARK                         _______ _______ _______ _____ _____    ______ ____
ROOT
ATOM      1  C   UNL     1      45.974   5.188  13.918  0.00  0.00    +0.000 C 
ENDROOT
BRANCH   1   2
ATOM      2  C   UNL     1      45.071   4.980  12.722  0.00  0.00    +0.000 A 
ATOM      3  C   UNL     1      43.777   5.502  12.663  0.00  0.00    +0.000 A 
ATOM      4  C   UNL     1      43.013   5.343  11.510  0.00  0.00    +0.000 A 
ATOM      5  C   UNL     1      43.542   4.676  10.399  0.00  0.00    +0.000 A 
ATOM      6  C   UNL     1      44.851   4.166  10.403  0.00  0.00    +0.000 A 
ATOM      7  C   UNL     1      45.595   4.329  11.586  0.00  0.00    +0.000 A 
BRANCH   6   8
ATOM      8  C   UNL     1      45.435   3.510   9.206  0.00  0.00    +0.000 A 
ATOM      9  C   UNL     1      45.871   4.252   8.090  0.00  0.00    +0.000 A 
ATOM     10  C   UNL     1      46.412   3.629   6.958  0.00  0.00    +0.000 A 
ATOM     11  C   UNL     1      46.539   2.245   6.921  0.00  0.00    +0.000 A 
ATOM     12  C   UNL     1      46.115   1.499   8.010  0.00  0.00    +0.000 A 
ATOM     13  F   UNL     1      46.233   0.165   7.982  0.00  0.00    +0.000 F 
ATOM     14  C   UNL     1      45.564   2.112   9.133  0.00  0.00    +0.000 A 
ENDBRANCH   6   8
ENDBRANCH   1   2
BRANCH   1  15
ATOM     15  O   UNL     1      46.471   3.953  14.443  0.00  0.00    +0.000 OA
BRANCH  15  19
ATOM     16  C   UNL     1      48.410   4.532  18.035  0.00  0.00    +0.000 A 
ATOM     17  C   UNL     1      48.678   5.382  16.960  0.00  0.00    +0.000 A 
ATOM     18  C   UNL     1      48.014   5.180  15.747  0.00  0.00    +0.000 A 
ATOM     19  C   UNL     1      47.102   4.137  15.657  0.00  0.00    +0.000 A 
ATOM     20  N   UNL     1      46.822   3.305  16.683  0.00  0.00    +0.000 NA
ATOM     21  C   UNL     1      47.488   3.511  17.843  0.00  0.00    +0.000 A 
BRANCH  16  23
ATOM     22  N   UNL     1      48.552   3.885  20.373  0.00  0.00    +0.000 N 
ATOM     23  C   UNL     1      49.067   4.634  19.352  0.00  0.00    +0.000 C 
ATOM     24  O   UNL     1      50.060   5.328  19.520  0.00  0.00    +0.000 OA
ATOM     25  H   UNL     1      49.089   3.883  21.234  0.00  0.00    +0.000 HD
ATOM     26  H   UNL     1      47.916   3.116  20.219  0.00  0.00    +0.000 HD
ENDBRANCH  16  23
ENDBRANCH  15  19
ENDBRANCH   1  15
TORSDOF 5
ENDMDL
MODEL 8
REMARK VINA RESULT:    -7.787      1.304      2.336
REMARK INTER + INTRA:         -10.935
REMARK INTER:                 -10.114
REMARK INTRA:                  -0.821
REMARK UNBOUND:                -0.872
REMARK  Name = 
REMARK  5 active torsions:
REMARK  status: ('A' for Active; 'I' for Inactive)
REMARK    1  A    between atoms: C_2  and  C_4
REMARK    2  A    between atoms: C_7  and  O_8
REMARK    3  A    between atoms: O_8  and  C_9
REMARK    4  A    between atoms: C_9  and  C_10
REMARK    5  A    between atoms: C_14  and  C_15
REMARK                            x       y       z     vdW  Elec       q    Type
REMARK                         _______ _______ _______ _____ _____    ______ ____
ROOT
ATOM      1  C   UNL     1      44.752   5.022  11.439  0.00  0.00    +0.000 C 
ENDROOT
BRANCH   1   2
ATOM      2  C   UNL     1      45.260   6.439  11.587  0.00  0.00    +0.000 A 
ATOM      3  C   UNL     1      44.400   7.538  11.651  0.00  0.00    +0.000 A 
ATOM      4  C   UNL     1      44.915   8.815  11.859  0.00  0.00    +0.000 A 
ATOM      5  C   UNL     1      46.292   9.002  12.024  0.00  0.00    +0.000 A 
ATOM      6  C   UNL     1      47.189   7.920  12.002  0.00  0.00    +0.000 A 
ATOM      7  C   UNL     1      46.643   6.644  11.775  0.00  0.00    +0.000 A 
BRANCH   6   8
ATOM      8  C   UNL     1      48.643   8.110  12.234  0.00  0.00    +0.000 A 
ATOM      9  C   UNL     1      49.134   8.748  13.391  0.00  0.00    +0.000 A 
ATOM     10  C   UNL     1      50.506   8.935  13.602  0.00  0.00    +0.000 A 
ATOM     11  C   UNL     1      51.422   8.474  12.663  0.00  0.00    +0.000 A 
ATOM     12  C   UNL     1      50.957   7.843  11.519  0.00  0.00    +0.000 A 
ATOM     13  F   UNL     1      51.833   7.397  10.609  0.00  0.00    +0.000 F 
ATOM     14  C   UNL     1      49.593   7.667  11.297  0.00  0.00    +0.000 A 
ENDBRANCH   6   8
ENDBRANCH   1   2
BRANCH   1  15
ATOM     15  O   UNL     1      44.114   4.804  10.176  0.00  0.00    +0.000 OA
BRANCH  15  19
ATOM     16  C   UNL     1      46.450   2.441   7.736  0.00  0.00    +0.000 A 
ATOM     17  C   UNL     1      45.638   1.845   8.702  0.00  0.00    +0.000 A 
ATOM     18  C   UNL     1      44.846   2.653   9.523  0.00  0.00    +0.000 A 
ATOM     19  C   UNL     1      44.895   4.029   9.342  0.00  0.00    +0.000 A 
ATOM     20  N   UNL     1      45.669   4.629   8.412  0.00  0.00    +0.000 NA
ATOM     21  C   UNL     1      46.437   3.827   7.639  0.00  0.00    +0.000 A 
BRANCH  16  23
ATOM     22  N   UNL     1      48.419   2.357   6.314  0.00  0.00    +0.000 N 
ATOM     23  C   UNL     1      47.344   1.692   6.831  0.00  0.00    +0.000 C 
ATOM     24  O   UNL     1      47.157   0.508   6.584  0.00  0.00    +0.000 OA
ATOM     25  H   UNL     1      49.079   1.792   5.792  0.00  0.00    +0.000 HD
ATOM     26  H   UNL     1      48.753   3.233   6.691  0.00  0.00    +0.000 HD
ENDBRANCH  16  23
ENDBRANCH  15  19
ENDBRANCH   1  15
TORSDOF 5
ENDMDL
MODEL 9
REMARK VINA RESULT:    -7.624      4.219      7.495
REMARK INTER + INTRA:         -10.724
REMARK INTER:                 -10.168
REMARK INTRA:                  -0.556
REMARK UNBOUND:                -0.872
REMARK  Name = 
REMARK  5 active torsions:
REMARK  status: ('A' for Active; 'I' for Inactive)
REMARK    1  A    between atoms: C_2  and  C_4
REMARK    2  A    between atoms: C_7  and  O_8
REMARK    3  A    between atoms: O_8  and  C_9
REMARK    4  A    between atoms: C_9  and  C_10
REMARK    5  A    between atoms: C_14  and  C_15
REMARK                            x       y       z     vdW  Elec       q    Type
REMARK                         _______ _______ _______ _____ _____    ______ ____
ROOT
ATOM      1  C   UNL     1      46.205   7.224  11.944  0.00  0.00    +0.000 C 
ENDROOT
BRANCH   1   2
ATOM      2  C   UNL     1      45.319   6.169  11.318  0.00  0.00    +0.000 A 
ATOM      3  C   UNL     1      43.953   6.082  11.593  0.00  0.00    +0.000 A 
ATOM      4  C   UNL     1      43.168   5.138  10.937  0.00  0.00    +0.000 A 
ATOM      5  C   UNL     1      43.739   4.284   9.986  0.00  0.00    +0.000 A 
ATOM      6  C   UNL     1      45.102   4.361   9.654  0.00  0.00    +0.000 A 
ATOM      7  C   UNL     1      45.873   5.315  10.343  0.00  0.00    +0.000 A 
BRANCH   6   8
ATOM      8  C   UNL     1      45.697   3.496   8.605  0.00  0.00    +0.000 A 
ATOM      9  C   UNL     1      46.222   4.030   7.410  0.00  0.00    +0.000 A 
ATOM     10  C   UNL     1      46.774   3.211   6.417  0.00  0.00    +0.000 A 
ATOM     11  C   UNL     1      46.824   1.834   6.603  0.00  0.00    +0.000 A 
ATOM     12  C   UNL     1      46.312   1.291   7.771  0.00  0.00    +0.000 A 
ATOM     13  F   UNL     1      46.356  -0.036   7.957  0.00  0.00    +0.000 F 
ATOM     14  C   UNL     1      45.750   2.100   8.757  0.00  0.00    +0.000 A 
ENDBRANCH   6   8
ENDBRANCH   1   2
BRANCH   1  15
ATOM     15  O   UNL     1      47.538   6.751  12.165  0.00  0.00    +0.000 OA
BRANCH  15  19
ATOM     16  C   UNL     1      47.908   5.152  15.947  0.00  0.00    +0.000 A 
ATOM     17  C   UNL     1      47.091   4.521  15.007  0.00  0.00    +0.000 A 
ATOM     18  C   UNL     1      46.975   5.068  13.726  0.00  0.00    +0.000 A 
ATOM     19  C   UNL     1      47.684   6.225  13.434  0.00  0.00    +0.000 A 
ATOM     20  N   UNL     1      48.483   6.851  14.323  0.00  0.00    +0.000 NA
ATOM     21  C   UNL     1      48.569   6.311  15.561  0.00  0.00    +0.000 A 
BRANCH  16  23
ATOM     22  N   UNL     1      47.112   3.883  17.860  0.00  0.00    +0.000 N 
ATOM     23  C   UNL     1      48.089   4.680  17.334  0.00  0.00    +0.000 C 
ATOM     24  O   UNL     1      49.092   4.955  17.977  0.00  0.00    +0.000 OA
ATOM     25  H   UNL     1      47.313   3.479  18.768  0.00  0.00    +0.000 HD
ATOM     26  H   UNL     1      46.414   3.425  17.291  0.00  0.00    +0.000 HD
ENDBRANCH  16  23
ENDBRANCH  15  19
ENDBRANCH   1  15
TORSDOF 5
ENDMDL
