MODEL 1
REMARK VINA RESULT:    -8.155      0.000      0.000
REMARK INTER + INTRA:         -14.164
REMARK INTER:                 -12.923
REMARK INTRA:                  -1.241
REMARK UNBOUND:                -1.241
REMARK  Name = 
REMARK  14 active torsions:
REMARK  status: ('A' for Active; 'I' for Inactive)
REMARK    1  A    between atoms: C_1  and  C_2
REMARK    2  A    between atoms: C_2  and  C_3
REMARK    3  A    between atoms: C_2  and  C_4
REMARK    4  A    between atoms: C_4  and  N_5
REMARK    5  A    between atoms: C_6  and  C_8
REMARK    6  A    between atoms: C_8  and  O_9
REMARK    7  A    between atoms: O_9  and  C_10
REMARK    8  A    between atoms: C_14  and  C_15
REMARK    9  A    between atoms: C_15  and  C_16
REMARK   10  A    between atoms: C_15  and  C_17
REMARK   11  A    between atoms: C_15  and  C_18
REMARK   12  A    between atoms: C_18  and  N_19
REMARK   13  A    between atoms: N_19  and  C_20
REMARK   14  A    between atoms: C_23  and  C_24
REMARK                            x       y       z     vdW  Elec       q    Type
REMARK                         _______ _______ _______ _____ _____    ______ ____
ROOT
ATOM      1  C   UNL     1      47.157   5.592  13.694  0.00  0.00    +0.000 A 
ATOM      2  C   UNL     1      47.693   6.536  12.820  0.00  0.00    +0.000 A 
ATOM      3  C   UNL     1      46.913   6.880  11.725  0.00  0.00    +0.000 A 
ATOM      4  N   UNL     1      45.696   6.372  11.462  0.00  0.00    +0.000 NA
ATOM      5  C   UNL     1      45.187   5.443  12.319  0.00  0.00    +0.000 A 
ATOM      6  C   UNL     1      45.920   5.056  13.429  0.00  0.00    +0.000 A 
ENDROOT
BRANCH   5   7
ATOM      7  C   UNL     1      43.807   4.875  11.996  0.00  0.00    +0.000 C 
ATOM      8  C   UNL     1      43.013   4.775  13.322  0.00  0.00    +0.000 C 
ATOM      9  C   UNL     1      43.072   5.843  11.048  0.00  0.00    +0.000 C 
BRANCH   7  10
ATOM     10  C   UNL     1      43.861   3.451  11.357  0.00  0.00    +0.000 C 
BRANCH  10  11
ATOM     11  N   UNL     1      43.720   3.465   9.894  0.00  0.00    +0.000 N 
ATOM     12  H   UNL     1      43.218   4.261   9.512  0.00  0.00    +0.000 HD
BRANCH  11  13
ATOM     13  C   UNL     1      44.824   3.130   9.110  0.00  0.00    +0.000 A 
ATOM     14  C   UNL     1      45.255   1.808   8.966  0.00  0.00    +0.000 A 
ATOM     15  C   UNL     1      46.250   1.468   8.049  0.00  0.00    +0.000 A 
ATOM     16  C   UNL     1      46.830   2.454   7.248  0.00  0.00    +0.000 A 
ATOM     17  C   UNL     1      46.438   3.785   7.406  0.00  0.00    +0.000 A 
ATOM     18  C   UNL     1      45.435   4.115   8.322  0.00  0.00    +0.000 A 
BRANCH  16  19
ATOM     19  C   UNL     1      47.780   2.096   6.248  0.00  0.00    +0.000 C 
ATOM     20  N   UNL     1      48.580   1.811   5.433  0.00  0.00    +0.000 NA
ENDBRANCH  16  19
ENDBRANCH  11  13
ENDBRANCH  10  11
ENDBRANCH   7  10
ENDBRANCH   5   7
BRANCH   1  21
ATOM     21  O   UNL     1      47.883   5.160  14.777  0.00  0.00    +0.000 OA
BRANCH  21  22
ATOM     22  C   UNL     1      47.460   3.883  15.300  0.00  0.00    +0.000 C 
BRANCH  22  24
ATOM     23  N   UNL     1      47.476   5.256  17.319  0.00  0.00    +0.000 N 
ATOM     24  C   UNL     1      47.109   4.052  16.769  0.00  0.00    +0.000 C 
ATOM     25  O   UNL     1      46.527   3.168  17.410  0.00  0.00    +0.000 OA
ATOM     26  H   UNL     1      47.931   5.939  16.716  0.00  0.00    +0.000 HD
BRANCH  23  27
ATOM     27  C   UNL     1      47.216   5.557  18.707  0.00  0.00    +0.000 C 
BRANCH  27  29
ATOM     28  C   UNL     1      48.759   4.424  20.345  0.00  0.00    +0.000 C 
ATOM     29  C   UNL     1      48.496   5.700  19.544  0.00  0.00    +0.000 C 
ATOM     30  C   UNL     1      49.707   6.001  18.655  0.00  0.00    +0.000 C 
ENDBRANCH  27  29
ENDBRANCH  23  27
ENDBRANCH  22  24
ENDBRANCH  21  22
ENDBRANCH   1  21
TORSDOF 10
ENDMDL
MODEL 2
REMARK VINA RESULT:    -7.753      1.730      1.924
REMARK INTER + INTRA:         -13.527
REMARK INTER:                 -12.411
REMARK INTRA:                  -1.116
REMARK UNBOUND:                -1.241
REMARK  Name = 
REMARK  14 active torsions:
REMARK  status: ('A' for Active; 'I' for Inactive)
REMARK    1  A    between atoms: C_1  and  C_2
REMARK    2  A    between atoms: C_2  and  C_3
REMARK    3  A    between atoms: C_2  and  C_4
REMARK    4  A    between atoms: C_4  and  N_5
REMARK    5  A    between atoms: C_6  and  C_8
REMARK    6  A    between atoms: C_8  and  O_9
REMARK    7  A    between atoms: O_9  and  C_10
REMARK    8  A    between atoms: C_14  and  C_15
REMARK    9  A    between atoms: C_15  and  C_16
REMARK   10  A    between atoms: C_15  and  C_17
REMARK   11  A    between atoms: C_15  and  C_18
REMARK   12  A    between atoms: C_18  and  N_19
REMARK   13  A    between atoms: N_19  and  C_20
REMARK   14  A    between atoms: C_23  and  C_24
REMARK                            x       y       z     vdW  Elec       q    Type
REMARK                         _______ _______ _______ _____ _____    ______ ____
ROOT
ATOM      1  C   UNL     1      47.187   5.531  13.664  0.00  0.00    +0.000 A 
ATOM      2  C   UNL     1      47.681   6.547  12.848  0.00  0.00    +0.000 A 
ATOM      3  C   UNL     1      46.865   6.954  11.802  0.00  0.00    +0.000 A 
ATOM      4  N   UNL     1      45.650   6.440  11.535  0.00  0.00    +0.000 NA
ATOM      5  C   UNL     1      45.183   5.442  12.336  0.00  0.00    +0.000 A 
ATOM      6  C   UNL     1      45.953   4.991  13.395  0.00  0.00    +0.000 A 
ENDROOT
BRANCH   5   7
ATOM      7  C   UNL     1      43.805   4.870  12.009  0.00  0.00    +0.000 C 
ATOM      8  C   UNL     1      42.999   4.792  13.329  0.00  0.00    +0.000 C 
ATOM      9  C   UNL     1      43.079   5.826  11.040  0.00  0.00    +0.000 C 
BRANCH   7  10
ATOM     10  C   UNL     1      43.863   3.437  11.392  0.00  0.00    +0.000 C 
BRANCH  10  11
ATOM     11  N   UNL     1      43.711   3.428   9.930  0.00  0.00    +0.000 N 
ATOM     12  H   UNL     1      43.192   4.208   9.540  0.00  0.00    +0.000 HD
BRANCH  11  13
ATOM     13  C   UNL     1      44.817   3.103   9.143  0.00  0.00    +0.000 A 
ATOM     14  C   UNL     1      45.239   1.782   8.972  0.00  0.00    +0.000 A 
ATOM     15  C   UNL     1      46.236   1.455   8.052  0.00  0.00    +0.000 A 
ATOM     16  C   UNL     1      46.826   2.454   7.274  0.00  0.00    +0.000 A 
ATOM     17  C   UNL     1      46.441   3.784   7.459  0.00  0.00    +0.000 A 
ATOM     18  C   UNL     1      45.437   4.101   8.378  0.00  0.00    +0.000 A 
BRANCH  16  19
ATOM     19  C   UNL     1      47.777   2.112   6.270  0.00  0.00    +0.000 C 
ATOM     20  N   UNL     1      48.565   1.810   5.450  0.00  0.00    +0.000 NA
ENDBRANCH  16  19
ENDBRANCH  11  13
ENDBRANCH  10  11
ENDBRANCH   7  10
ENDBRANCH   5   7
BRANCH   1  21
ATOM     21  O   UNL     1      47.952   5.037  14.693  0.00  0.00    +0.000 OA
BRANCH  21  22
ATOM     22  C   UNL     1      47.198   4.331  15.702  0.00  0.00    +0.000 C 
BRANCH  22  24
ATOM     23  N   UNL     1      48.735   2.709  16.687  0.00  0.00    +0.000 N 
ATOM     24  C   UNL     1      48.142   3.940  16.827  0.00  0.00    +0.000 C 
ATOM     25  O   UNL     1      48.358   4.686  17.791  0.00  0.00    +0.000 OA
ATOM     26  H   UNL     1      48.520   2.167  15.853  0.00  0.00    +0.000 HD
BRANCH  23  27
ATOM     27  C   UNL     1      49.648   2.199  17.682  0.00  0.00    +0.000 C 
BRANCH  27  29
ATOM     28  C   UNL     1      51.777   3.514  17.968  0.00  0.00    +0.000 C 
ATOM     29  C   UNL     1      51.122   2.322  17.269  0.00  0.00    +0.000 C 
ATOM     30  C   UNL     1      51.900   1.045  17.602  0.00  0.00    +0.000 C 
ENDBRANCH  27  29
ENDBRANCH  23  27
ENDBRANCH  22  24
ENDBRANCH  21  22
ENDBRANCH   1  21
TORSDOF 10
ENDMDL
MODEL 3
REMARK VINA RESULT:    -7.658      2.851      5.376
REMARK INTER + INTRA:         -13.376
REMARK INTER:                 -12.174
REMARK INTRA:                  -1.202
REMARK UNBOUND:                -1.241
REMARK  Name = 
REMARK  14 active torsions:
REMARK  status: ('A' for Active; 'I' for Inactive)
REMARK    1  A    between atoms: C_1  and  C_2
REMARK    2  A    between atoms: C_2  and  C_3
REMARK    3  A    between atoms: C_2  and  C_4
REMARK    4  A    between atoms: C_4  and  N_5
REMARK    5  A    between atoms: C_6  and  C_8
REMARK    6  A    between atoms: C_8  and  O_9
REMARK    7  A    between atoms: O_9  and  C_10
REMARK    8  A    between atoms: C_14  and  C_15
REMARK    9  A    between atoms: C_15  and  C_16
REMARK   10  A    between atoms: C_15  and  C_17
REMARK   11  A    between atoms: C_15  and  C_18
REMARK   12  A    between atoms: C_18  and  N_19
REMARK   13  A    between atoms: N_19  and  C_20
REMARK   14  A    between atoms: C_23  and  C_24
REMARK                            x       y       z     vdW  Elec       q    Type
REMARK                         _______ _______ _______ _____ _____    ______ ____
ROOT
ATOM      1  C   UNL     1      46.890   6.536  13.049  0.00  0.00    +0.000 A 
ATOM      2  C   UNL     1      47.589   5.633  13.848  0.00  0.00    +0.000 A 
ATOM      3  C   UNL     1      46.997   4.393  14.045  0.00  0.00    +0.000 A 
ATOM      4  N   UNL     1      45.818   4.017  13.520  0.00  0.00    +0.000 NA
ATOM      5  C   UNL     1      45.141   4.912  12.748  0.00  0.00    +0.000 A 
ATOM      6  C   UNL     1      45.678   6.167  12.517  0.00  0.00    +0.000 A 
ENDROOT
BRANCH   5   7
ATOM      7  C   UNL     1      43.801   4.464  12.169  0.00  0.00    +0.000 C 
ATOM      8  C   UNL     1      43.647   2.948  12.446  0.00  0.00    +0.000 C 
ATOM      9  C   UNL     1      42.663   5.217  12.888  0.00  0.00    +0.000 C 
BRANCH   7  10
ATOM     10  C   UNL     1      43.689   4.687  10.628  0.00  0.00    +0.000 C 
BRANCH  10  11
ATOM     11  N   UNL     1      43.677   3.435   9.858  0.00  0.00    +0.000 N 
ATOM     12  H   UNL     1      42.817   3.242   9.354  0.00  0.00    +0.000 HD
BRANCH  11  13
ATOM     13  C   UNL     1      44.801   3.101   9.104  0.00  0.00    +0.000 A 
ATOM     14  C   UNL     1      45.258   1.783   9.001  0.00  0.00    +0.000 A 
ATOM     15  C   UNL     1      46.276   1.439   8.112  0.00  0.00    +0.000 A 
ATOM     16  C   UNL     1      46.853   2.414   7.296  0.00  0.00    +0.000 A 
ATOM     17  C   UNL     1      46.435   3.742   7.413  0.00  0.00    +0.000 A 
ATOM     18  C   UNL     1      45.409   4.076   8.301  0.00  0.00    +0.000 A 
BRANCH  16  19
ATOM     19  C   UNL     1      47.828   2.049   6.323  0.00  0.00    +0.000 C 
ATOM     20  N   UNL     1      48.618   1.735   5.509  0.00  0.00    +0.000 NA
ENDBRANCH  16  19
ENDBRANCH  11  13
ENDBRANCH  10  11
ENDBRANCH   7  10
ENDBRANCH   5   7
BRANCH   1  21
ATOM     21  O   UNL     1      47.382   7.802  12.843  0.00  0.00    +0.000 OA
BRANCH  21  22
ATOM     22  C   UNL     1      46.598   8.848  13.455  0.00  0.00    +0.000 C 
BRANCH  22  24
ATOM     23  N   UNL     1      44.684  10.051  12.533  0.00  0.00    +0.000 N 
ATOM     24  C   UNL     1      46.005   9.716  12.358  0.00  0.00    +0.000 C 
ATOM     25  O   UNL     1      46.673  10.093  11.387  0.00  0.00    +0.000 OA
ATOM     26  H   UNL     1      44.212   9.717  13.371  0.00  0.00    +0.000 HD
BRANCH  23  27
ATOM     27  C   UNL     1      43.983  10.864  11.567  0.00  0.00    +0.000 C 
BRANCH  27  29
ATOM     28  C   UNL     1      41.889   9.844  10.606  0.00  0.00    +0.000 C 
ATOM     29  C   UNL     1      43.392  10.048  10.407  0.00  0.00    +0.000 C 
ATOM     30  C   UNL     1      43.638  10.738   9.062  0.00  0.00    +0.000 C 
ENDBRANCH  27  29
ENDBRANCH  23  27
ENDBRANCH  22  24
ENDBRANCH  21  22
ENDBRANCH   1  21
TORSDOF 10
ENDMDL
MODEL 4
REMARK VINA RESULT:    -7.476      1.580      2.310
REMARK INTER + INTRA:         -13.088
REMARK INTER:                 -11.677
REMARK INTRA:                  -1.412
REMARK UNBOUND:                -1.241
REMARK  Name = 
REMARK  14 active torsions:
REMARK  status: ('A' for Active; 'I' for Inactive)
REMARK    1  A    between atoms: C_1  and  C_2
REMARK    2  A    between atoms: C_2  and  C_3
REMARK    3  A    between atoms: C_2  and  C_4
REMARK    4  A    between atoms: C_4  and  N_5
REMARK    5  A    between atoms: C_6  and  C_8
REMARK    6  A    between atoms: C_8  and  O_9
REMARK    7  A    between atoms: O_9  and  C_10
REMARK    8  A    between atoms: C_14  and  C_15
REMARK    9  A    between atoms: C_15  and  C_16
REMARK   10  A    between atoms: C_15  and  C_17
REMARK   11  A    between atoms: C_15  and  C_18
REMARK   12  A    between atoms: C_18  and  N_19
REMARK   13  A    between atoms: N_19  and  C_20
REMARK   14  A    between atoms: C_23  and  C_24
REMARK                            x       y       z     vdW  Elec       q    Type
REMARK                         _______ _______ _______ _____ _____    ______ ____
ROOT
ATOM      1  C   UNL     1      47.438   5.335  13.113  0.00  0.00    +0.000 A 
ATOM      2  C   UNL     1      47.426   4.042  13.633  0.00  0.00    +0.000 A 
ATOM      3  C   UNL     1      46.239   3.335  13.510  0.00  0.00    +0.000 A 
ATOM      4  N   UNL     1      45.122   3.810  12.928  0.00  0.00    +0.000 NA
ATOM      5  C   UNL     1      45.144   5.078  12.431  0.00  0.00    +0.000 A 
ATOM      6  C   UNL     1      46.300   5.835  12.527  0.00  0.00    +0.000 A 
ENDROOT
BRANCH   5   7
ATOM      7  C   UNL     1      43.863   5.597  11.782  0.00  0.00    +0.000 C 
ATOM      8  C   UNL     1      42.691   5.309  12.751  0.00  0.00    +0.000 C 
ATOM      9  C   UNL     1      43.980   7.122  11.583  0.00  0.00    +0.000 C 
BRANCH   7  10
ATOM     10  C   UNL     1      43.542   4.911  10.417  0.00  0.00    +0.000 C 
BRANCH  10  11
ATOM     11  N   UNL     1      44.030   3.527  10.333  0.00  0.00    +0.000 N 
ATOM     12  H   UNL     1      43.347   2.809  10.553  0.00  0.00    +0.000 HD
BRANCH  11  13
ATOM     13  C   UNL     1      44.826   3.162   9.247  0.00  0.00    +0.000 A 
ATOM     14  C   UNL     1      45.419   4.113   8.411  0.00  0.00    +0.000 A 
ATOM     15  C   UNL     1      46.345   3.742   7.437  0.00  0.00    +0.000 A 
ATOM     16  C   UNL     1      46.705   2.401   7.287  0.00  0.00    +0.000 A 
ATOM     17  C   UNL     1      46.095   1.433   8.089  0.00  0.00    +0.000 A 
ATOM     18  C   UNL     1      45.173   1.816   9.068  0.00  0.00    +0.000 A 
BRANCH  16  19
ATOM     19  C   UNL     1      47.718   2.030   6.356  0.00  0.00    +0.000 C 
ATOM     20  N   UNL     1      48.567   1.719   5.603  0.00  0.00    +0.000 NA
ENDBRANCH  16  19
ENDBRANCH  11  13
ENDBRANCH  10  11
ENDBRANCH   7  10
ENDBRANCH   5   7
BRANCH   1  21
ATOM     21  O   UNL     1      48.558   6.120  13.235  0.00  0.00    +0.000 OA
BRANCH  21  22
ATOM     22  C   UNL     1      48.455   7.143  14.249  0.00  0.00    +0.000 C 
BRANCH  22  24
ATOM     23  N   UNL     1      48.404   6.216  16.507  0.00  0.00    +0.000 N 
ATOM     24  C   UNL     1      49.201   6.676  15.487  0.00  0.00    +0.000 C 
ATOM     25  O   UNL     1      50.437   6.705  15.558  0.00  0.00    +0.000 OA
ATOM     26  H   UNL     1      47.397   6.205  16.360  0.00  0.00    +0.000 HD
BRANCH  23  27
ATOM     27  C   UNL     1      48.972   5.748  17.750  0.00  0.00    +0.000 C 
BRANCH  27  29
ATOM     28  C   UNL     1      48.551   4.021  19.534  0.00  0.00    +0.000 C 
ATOM     29  C   UNL     1      48.674   4.268  18.030  0.00  0.00    +0.000 C 
ATOM     30  C   UNL     1      47.384   3.822  17.335  0.00  0.00    +0.000 C 
ENDBRANCH  27  29
ENDBRANCH  23  27
ENDBRANCH  22  24
ENDBRANCH  21  22
ENDBRANCH   1  21
TORSDOF 10
ENDMDL
MODEL 5
REMARK VINA RESULT:    -7.302      3.112      5.137
REMARK INTER + INTRA:         -12.812
REMARK INTER:                 -11.767
REMARK INTRA:                  -1.045
REMARK UNBOUND:                -1.241
REMARK  Name = 
REMARK  14 active torsions:
REMARK  status: ('A' for Active; 'I' for Inactive)
REMARK    1  A    between atoms: C_1  and  C_2
REMARK    2  A    between atoms: C_2  and  C_3
REMARK    3  A    between atoms: C_2  and  C_4
REMARK    4  A    between atoms: C_4  and  N_5
REMARK    5  A    between atoms: C_6  and  C_8
REMARK    6  A    between atoms: C_8  and  O_9
REMARK    7  A    between atoms: O_9  and  C_10
REMARK    8  A    between atoms: C_14  and  C_15
REMARK    9  A    between atoms: C_15  and  C_16
REMARK   10  A    between atoms: C_15  and  C_17
REMARK   11  A    between atoms: C_15  and  C_18
REMARK   12  A    between atoms: C_18  and  N_19
REMARK   13  A    between atoms: N_19  and  C_20
REMARK   14  A    between atoms: C_23  and  C_24
REMARK                            x       y       z     vdW  Elec       q    Type
REMARK                         _______ _______ _______ _____ _____    ______ ____
ROOT
ATOM      1  C   UNL     1      47.134   6.262  12.984  0.00  0.00    +0.000 A 
ATOM      2  C   UNL     1      47.570   5.462  14.038  0.00  0.00    +0.000 A 
ATOM      3  C   UNL     1      46.738   4.414  14.406  0.00  0.00    +0.000 A 
ATOM      4  N   UNL     1      45.564   4.126  13.817  0.00  0.00    +0.000 NA
ATOM      5  C   UNL     1      45.145   4.921  12.793  0.00  0.00    +0.000 A 
ATOM      6  C   UNL     1      45.930   5.986  12.382  0.00  0.00    +0.000 A 
ENDROOT
BRANCH   5   7
ATOM      7  C   UNL     1      43.805   4.580  12.145  0.00  0.00    +0.000 C 
ATOM      8  C   UNL     1      43.524   3.079  12.401  0.00  0.00    +0.000 C 
ATOM      9  C   UNL     1      42.693   5.414  12.813  0.00  0.00    +0.000 C 
BRANCH   7  10
ATOM     10  C   UNL     1      43.787   4.819  10.602  0.00  0.00    +0.000 C 
BRANCH  10  11
ATOM     11  N   UNL     1      43.729   3.574   9.822  0.00  0.00    +0.000 N 
ATOM     12  H   UNL     1      42.863   3.417   9.316  0.00  0.00    +0.000 HD
BRANCH  11  13
ATOM     13  C   UNL     1      44.840   3.205   9.064  0.00  0.00    +0.000 A 
ATOM     14  C   UNL     1      45.249   1.873   8.950  0.00  0.00    +0.000 A 
ATOM     15  C   UNL     1      46.253   1.499   8.057  0.00  0.00    +0.000 A 
ATOM     16  C   UNL     1      46.866   2.459   7.249  0.00  0.00    +0.000 A 
ATOM     17  C   UNL     1      46.495   3.801   7.377  0.00  0.00    +0.000 A 
ATOM     18  C   UNL     1      45.483   4.165   8.269  0.00  0.00    +0.000 A 
BRANCH  16  19
ATOM     19  C   UNL     1      47.826   2.067   6.272  0.00  0.00    +0.000 C 
ATOM     20  N   UNL     1      48.608   1.754   5.451  0.00  0.00    +0.000 NA
ENDBRANCH  16  19
ENDBRANCH  11  13
ENDBRANCH  10  11
ENDBRANCH   7  10
ENDBRANCH   5   7
BRANCH   1  21
ATOM     21  O   UNL     1      47.874   7.350  12.588  0.00  0.00    +0.000 OA
BRANCH  21  22
ATOM     22  C   UNL     1      49.291   7.218  12.827  0.00  0.00    +0.000 C 
BRANCH  22  24
ATOM     23  N   UNL     1      51.167   7.283  11.267  0.00  0.00    +0.000 N 
ATOM     24  C   UNL     1      50.040   7.928  11.712  0.00  0.00    +0.000 C 
ATOM     25  O   UNL     1      49.650   9.005  11.242  0.00  0.00    +0.000 OA
ATOM     26  H   UNL     1      51.407   6.390  11.691  0.00  0.00    +0.000 HD
BRANCH  23  27
ATOM     27  C   UNL     1      51.987   7.843  10.217  0.00  0.00    +0.000 C 
BRANCH  27  29
ATOM     28  C   UNL     1      53.180   6.717   8.305  0.00  0.00    +0.000 C 
ATOM     29  C   UNL     1      53.160   6.935   9.819  0.00  0.00    +0.000 C 
ATOM     30  C   UNL     1      54.498   7.533  10.264  0.00  0.00    +0.000 C 
ENDBRANCH  27  29
ENDBRANCH  23  27
ENDBRANCH  22  24
ENDBRANCH  21  22
ENDBRANCH   1  21
TORSDOF 10
ENDMDL
MODEL 6
REMARK VINA RESULT:    -7.290      2.206      3.040
REMARK INTER + INTRA:         -12.794
REMARK INTER:                 -11.583
REMARK INTRA:                  -1.211
REMARK UNBOUND:                -1.241
REMARK  Name = 
REMARK  14 active torsions:
REMARK  status: ('A' for Active; 'I' for Inactive)
REMARK    1  A    between atoms: C_1  and  C_2
REMARK    2  A    between atoms: C_2  and  C_3
REMARK    3  A    between atoms: C_2  and  C_4
REMARK    4  A    between atoms: C_4  and  N_5
REMARK    5  A    between atoms: C_6  and  C_8
REMARK    6  A    between atoms: C_8  and  O_9
REMARK    7  A    between atoms: O_9  and  C_10
REMARK    8  A    between atoms: C_14  and  C_15
REMARK    9  A    between atoms: C_15  and  C_16
REMARK   10  A    between atoms: C_15  and  C_17
REMARK   11  A    between atoms: C_15  and  C_18
REMARK   12  A    between atoms: C_18  and  N_19
REMARK   13  A    between atoms: N_19  and  C_20
REMARK   14  A    between atoms: C_23  and  C_24
REMARK                            x       y       z     vdW  Elec       q    Type
REMARK                         _______ _______ _______ _____ _____    ______ ____
ROOT
ATOM      1  C   UNL     1      47.082   6.361  12.885  0.00  0.00    +0.000 A 
ATOM      2  C   UNL     1      47.622   5.559  13.887  0.00  0.00    +0.000 A 
ATOM      3  C   UNL     1      46.880   4.446  14.258  0.00  0.00    +0.000 A 
ATOM      4  N   UNL     1      45.698   4.100  13.718  0.00  0.00    +0.000 NA
ATOM      5  C   UNL     1      45.176   4.898  12.745  0.00  0.00    +0.000 A 
ATOM      6  C   UNL     1      45.869   6.025  12.334  0.00  0.00    +0.000 A 
ENDROOT
BRANCH   5   7
ATOM      7  C   UNL     1      43.830   4.490  12.152  0.00  0.00    +0.000 C 
ATOM      8  C   UNL     1      43.642   2.973  12.403  0.00  0.00    +0.000 C 
ATOM      9  C   UNL     1      42.705   5.256  12.877  0.00  0.00    +0.000 C 
BRANCH   7  10
ATOM     10  C   UNL     1      43.731   4.740  10.614  0.00  0.00    +0.000 C 
BRANCH  10  11
ATOM     11  N   UNL     1      43.689   3.501   9.824  0.00  0.00    +0.000 N 
ATOM     12  H   UNL     1      42.824   3.335   9.320  0.00  0.00    +0.000 HD
BRANCH  11  13
ATOM     13  C   UNL     1      44.804   3.154   9.060  0.00  0.00    +0.000 A 
ATOM     14  C   UNL     1      45.249   1.833   8.960  0.00  0.00    +0.000 A 
ATOM     15  C   UNL     1      46.255   1.476   8.063  0.00  0.00    +0.000 A 
ATOM     16  C   UNL     1      46.832   2.443   7.236  0.00  0.00    +0.000 A 
ATOM     17  C   UNL     1      46.425   3.774   7.350  0.00  0.00    +0.000 A 
ATOM     18  C   UNL     1      45.411   4.121   8.247  0.00  0.00    +0.000 A 
BRANCH  16  19
ATOM     19  C   UNL     1      47.795   2.065   6.255  0.00  0.00    +0.000 C 
ATOM     20  N   UNL     1      48.587   1.772   5.437  0.00  0.00    +0.000 NA
ENDBRANCH  16  19
ENDBRANCH  11  13
ENDBRANCH  10  11
ENDBRANCH   7  10
ENDBRANCH   5   7
BRANCH   1  21
ATOM     21  O   UNL     1      47.729   7.508  12.492  0.00  0.00    +0.000 OA
BRANCH  21  22
ATOM     22  C   UNL     1      47.126   8.724  12.984  0.00  0.00    +0.000 C 
BRANCH  22  24
ATOM     23  N   UNL     1      47.614   8.940  15.366  0.00  0.00    +0.000 N 
ATOM     24  C   UNL     1      48.000   9.284  14.094  0.00  0.00    +0.000 C 
ATOM     25  O   UNL     1      48.988   9.991  13.857  0.00  0.00    +0.000 OA
ATOM     26  H   UNL     1      46.802   8.336  15.473  0.00  0.00    +0.000 HD
BRANCH  23  27
ATOM     27  C   UNL     1      48.343   9.406  16.523  0.00  0.00    +0.000 C 
BRANCH  27  29
ATOM     28  C   UNL     1      49.712   8.698  18.515  0.00  0.00    +0.000 C 
ATOM     29  C   UNL     1      49.333   8.368  17.071  0.00  0.00    +0.000 C 
ATOM     30  C   UNL     1      48.744   6.955  17.010  0.00  0.00    +0.000 C 
ENDBRANCH  27  29
ENDBRANCH  23  27
ENDBRANCH  22  24
ENDBRANCH  21  22
ENDBRANCH   1  21
TORSDOF 10
ENDMDL
MODEL 7
REMARK VINA RESULT:    -6.712      2.616      8.630
REMARK INTER + INTRA:         -11.878
REMARK INTER:                 -10.726
REMARK INTRA:                  -1.151
REMARK UNBOUND:                -1.241
REMARK  Name = 
REMARK  14 active torsions:
REMARK  status: ('A' for Active; 'I' for Inactive)
REMARK    1  A    between atoms: C_1  and  C_2
REMARK    2  A    between atoms: C_2  and  C_3
REMARK    3  A    between atoms: C_2  and  C_4
REMARK    4  A    between atoms: C_4  and  N_5
REMARK    5  A    between atoms: C_6  and  C_8
REMARK    6  A    between atoms: C_8  and  O_9
REMARK    7  A    between atoms: O_9  and  C_10
REMARK    8  A    between atoms: C_14  and  C_15
REMARK    9  A    between atoms: C_15  and  C_16
REMARK   10  A    between atoms: C_15  and  C_17
REMARK   11  A    between atoms: C_15  and  C_18
REMARK   12  A    between atoms: C_18  and  N_19
REMARK   13  A    between atoms: N_19  and  C_20
REMARK   14  A    between atoms: C_23  and  C_24
REMARK                            x       y       z     vdW  Elec       q    Type
REMARK                         _______ _______ _______ _____ _____    ______ ____
ROOT
ATOM      1  C   UNL     1      45.073   4.865  12.713  0.00  0.00    +0.000 A 
ATOM      2  C   UNL     1      45.759   3.738  13.163  0.00  0.00    +0.000 A 
ATOM      3  C   UNL     1      47.067   3.935  13.584  0.00  0.00    +0.000 A 
ATOM      4  N   UNL     1      47.698   5.123  13.588  0.00  0.00    +0.000 NA
ATOM      5  C   UNL     1      47.019   6.215  13.138  0.00  0.00    +0.000 A 
ATOM      6  C   UNL     1      45.712   6.081  12.701  0.00  0.00    +0.000 A 
ENDROOT
BRANCH   5   7
ATOM      7  C   UNL     1      47.759   7.551  13.145  0.00  0.00    +0.000 C 
ATOM      8  C   UNL     1      48.470   7.707  11.778  0.00  0.00    +0.000 C 
ATOM      9  C   UNL     1      46.737   8.694  13.307  0.00  0.00    +0.000 C 
BRANCH   7  10
ATOM     10  C   UNL     1      48.842   7.650  14.266  0.00  0.00    +0.000 C 
BRANCH  10  11
ATOM     11  N   UNL     1      48.380   7.145  15.567  0.00  0.00    +0.000 N 
ATOM     12  H   UNL     1      47.432   6.782  15.582  0.00  0.00    +0.000 HD
BRANCH  11  13
ATOM     13  C   UNL     1      49.244   6.356  16.325  0.00  0.00    +0.000 A 
ATOM     14  C   UNL     1      48.805   5.206  16.989  0.00  0.00    +0.000 A 
ATOM     15  C   UNL     1      49.707   4.336  17.600  0.00  0.00    +0.000 A 
ATOM     16  C   UNL     1      51.078   4.598  17.550  0.00  0.00    +0.000 A 
ATOM     17  C   UNL     1      51.531   5.762  16.923  0.00  0.00    +0.000 A 
ATOM     18  C   UNL     1      50.620   6.624  16.307  0.00  0.00    +0.000 A 
BRANCH  16  19
ATOM     19  C   UNL     1      52.007   3.664  18.094  0.00  0.00    +0.000 C 
ATOM     20  N   UNL     1      52.789   2.903  18.532  0.00  0.00    +0.000 NA
ENDBRANCH  16  19
ENDBRANCH  11  13
ENDBRANCH  10  11
ENDBRANCH   7  10
ENDBRANCH   5   7
BRANCH   1  21
ATOM     21  O   UNL     1      43.791   4.749  12.234  0.00  0.00    +0.000 OA
BRANCH  21  22
ATOM     22  C   UNL     1      43.695   4.766  10.794  0.00  0.00    +0.000 C 
BRANCH  22  24
ATOM     23  N   UNL     1      45.085   3.375   9.347  0.00  0.00    +0.000 N 
ATOM     24  C   UNL     1      44.065   3.389  10.267  0.00  0.00    +0.000 C 
ATOM     25  O   UNL     1      43.489   2.363  10.650  0.00  0.00    +0.000 OA
ATOM     26  H   UNL     1      45.522   4.261   9.102  0.00  0.00    +0.000 HD
BRANCH  23  27
ATOM     27  C   UNL     1      45.540   2.140   8.751  0.00  0.00    +0.000 C 
BRANCH  27  29
ATOM     28  C   UNL     1      46.692   3.789   7.236  0.00  0.00    +0.000 C 
ATOM     29  C   UNL     1      46.221   2.342   7.390  0.00  0.00    +0.000 C 
ATOM     30  C   UNL     1      47.416   1.398   7.222  0.00  0.00    +0.000 C 
ENDBRANCH  27  29
ENDBRANCH  23  27
ENDBRANCH  22  24
ENDBRANCH  21  22
ENDBRANCH   1  21
TORSDOF 10
ENDMDL
MODEL 8
REMARK VINA RESULT:    -6.669      2.982      7.603
REMARK INTER + INTRA:         -11.808
REMARK INTER:                 -10.393
REMARK INTRA:                  -1.416
REMARK UNBOUND:                -1.241
REMARK  Name = 
REMARK  14 active torsions:
REMARK  status: ('A' for Active; 'I' for Inactive)
REMARK    1  A    between atoms: C_1  and  C_2
REMARK    2  A    between atoms: C_2  and  C_3
REMARK    3  A    between atoms: C_2  and  C_4
REMARK    4  A    between atoms: C_4  and  N_5
REMARK    5  A    between atoms: C_6  and  C_8
REMARK    6  A    between atoms: C_8  and  O_9
REMARK    7  A    between atoms: O_9  and  C_10
REMARK    8  A    between atoms: C_14  and  C_15
REMARK    9  A    between atoms: C_15  and  C_16
REMARK   10  A    between atoms: C_15  and  C_17
REMARK   11  A    between atoms: C_15  and  C_18
REMARK   12  A    between atoms: C_18  and  N_19
REMARK   13  A    between atoms: N_19  and  C_20
REMARK   14  A    between atoms: C_23  and  C_24
REMARK                            x       y       z     vdW  Elec       q    Type
REMARK                         _______ _______ _______ _____ _____    ______ ____
ROOT
ATOM      1  C   UNL     1      46.745   4.376  13.838  0.00  0.00    +0.000 A 
ATOM      2  C   UNL     1      47.071   4.168  15.176  0.00  0.00    +0.000 A 
ATOM      3  C   UNL     1      47.895   5.115  15.768  0.00  0.00    +0.000 A 
ATOM      4  N   UNL     1      48.385   6.200  15.142  0.00  0.00    +0.000 NA
ATOM      5  C   UNL     1      48.065   6.388  13.831  0.00  0.00    +0.000 A 
ATOM      6  C   UNL     1      47.249   5.475  13.185  0.00  0.00    +0.000 A 
ENDROOT
BRANCH   5   7
ATOM      7  C   UNL     1      48.639   7.623  13.141  0.00  0.00    +0.000 C 
ATOM      8  C   UNL     1      50.125   7.750  13.555  0.00  0.00    +0.000 C 
ATOM      9  C   UNL     1      48.564   7.428  11.613  0.00  0.00    +0.000 C 
BRANCH   7  10
ATOM     10  C   UNL     1      47.911   8.946  13.540  0.00  0.00    +0.000 C 
BRANCH  10  11
ATOM     11  N   UNL     1      46.453   8.799  13.643  0.00  0.00    +0.000 N 
ATOM     12  H   UNL     1      46.061   8.972  14.564  0.00  0.00    +0.000 HD
BRANCH  11  13
ATOM     13  C   UNL     1      45.651   9.336  12.635  0.00  0.00    +0.000 A 
ATOM     14  C   UNL     1      45.875  10.613  12.114  0.00  0.00    +0.000 A 
ATOM     15  C   UNL     1      45.178  11.070  10.996  0.00  0.00    +0.000 A 
ATOM     16  C   UNL     1      44.243  10.245  10.368  0.00  0.00    +0.000 A 
ATOM     17  C   UNL     1      43.980   8.979  10.898  0.00  0.00    +0.000 A 
ATOM     18  C   UNL     1      44.689   8.527  12.015  0.00  0.00    +0.000 A 
BRANCH  16  19
ATOM     19  C   UNL     1      43.597  10.674   9.172  0.00  0.00    +0.000 C 
ATOM     20  N   UNL     1      43.059  11.008   8.181  0.00  0.00    +0.000 NA
ENDBRANCH  16  19
ENDBRANCH  11  13
ENDBRANCH  10  11
ENDBRANCH   7  10
ENDBRANCH   5   7
BRANCH   1  21
ATOM     21  O   UNL     1      45.973   3.461  13.163  0.00  0.00    +0.000 OA
BRANCH  21  22
ATOM     22  C   UNL     1      44.634   3.918  12.874  0.00  0.00    +0.000 C 
BRANCH  22  24
ATOM     23  N   UNL     1      45.145   2.923  10.704  0.00  0.00    +0.000 N 
ATOM     24  C   UNL     1      44.155   3.241  11.601  0.00  0.00    +0.000 C 
ATOM     25  O   UNL     1      42.959   2.993  11.400  0.00  0.00    +0.000 OA
ATOM     26  H   UNL     1      46.107   3.141  10.955  0.00  0.00    +0.000 HD
BRANCH  23  27
ATOM     27  C   UNL     1      44.840   2.284   9.445  0.00  0.00    +0.000 C 
BRANCH  27  29
ATOM     28  C   UNL     1      45.583   4.560   8.662  0.00  0.00    +0.000 C 
ATOM     29  C   UNL     1      45.220   3.139   8.227  0.00  0.00    +0.000 C 
ATOM     30  C   UNL     1      46.397   2.525   7.464  0.00  0.00    +0.000 C 
ENDBRANCH  27  29
ENDBRANCH  23  27
ENDBRANCH  22  24
ENDBRANCH  21  22
ENDBRANCH   1  21
TORSDOF 10
ENDMDL
MODEL 9
REMARK VINA RESULT:    -6.529      3.234      4.604
REMARK INTER + INTRA:         -11.587
REMARK INTER:                 -10.830
REMARK INTRA:                  -0.758
REMARK UNBOUND:                -1.241
REMARK  Name = 
REMARK  14 active torsions:
REMARK  status: ('A' for Active; 'I' for Inactive)
REMARK    1  A    between atoms: C_1  and  C_2
REMARK    2  A    between atoms: C_2  and  C_3
REMARK    3  A    between atoms: C_2  and  C_4
REMARK    4  A    between atoms: C_4  and  N_5
REMARK    5  A    between atoms: C_6  and  C_8
REMARK    6  A    between atoms: C_8  and  O_9
REMARK    7  A    between atoms: O_9  and  C_10
REMARK    8  A    between atoms: C_14  and  C_15
REMARK    9  A    between atoms: C_15  and  C_16
REMARK   10  A    between atoms: C_15  and  C_17
REMARK   11  A    between atoms: C_15  and  C_18
REMARK   12  A    between atoms: C_18  and  N_19
REMARK   13  A    between atoms: N_19  and  C_20
REMARK   14  A    between atoms: C_23  and  C_24
REMARK                            x       y       z     vdW  Elec       q    Type
REMARK                         _______ _______ _______ _____ _____    ______ ____
ROOT
ATOM      1  C   UNL     1      46.775   7.554  13.239  0.00  0.00    +0.000 A 
ATOM      2  C   UNL     1      46.251   8.679  12.606  0.00  0.00    +0.000 A 
ATOM      3  C   UNL     1      45.109   8.485  11.842  0.00  0.00    +0.000 A 
ATOM      4  N   UNL     1      44.488   7.303  11.681  0.00  0.00    +0.000 NA
ATOM      5  C   UNL     1      45.016   6.209  12.298  0.00  0.00    +0.000 A 
ATOM      6  C   UNL     1      46.157   6.339  13.072  0.00  0.00    +0.000 A 
ENDROOT
BRANCH   5   7
ATOM      7  C   UNL     1      44.297   4.877  12.095  0.00  0.00    +0.000 C 
ATOM      8  C   UNL     1      45.301   3.743  12.417  0.00  0.00    +0.000 C 
ATOM      9  C   UNL     1      43.114   4.786  13.079  0.00  0.00    +0.000 C 
BRANCH   7  10
ATOM     10  C   UNL     1      43.785   4.669  10.634  0.00  0.00    +0.000 C 
BRANCH  10  11
ATOM     11  N   UNL     1      43.865   3.272  10.184  0.00  0.00    +0.000 N 
ATOM     12  H   UNL     1      42.977   2.787  10.110  0.00  0.00    +0.000 HD
BRANCH  11  13
ATOM     13  C   UNL     1      44.712   2.958   9.121  0.00  0.00    +0.000 A 
ATOM     14  C   UNL     1      45.204   3.936   8.253  0.00  0.00    +0.000 A 
ATOM     15  C   UNL     1      46.180   3.635   7.303  0.00  0.00    +0.000 A 
ATOM     16  C   UNL     1      46.692   2.339   7.211  0.00  0.00    +0.000 A 
ATOM     17  C   UNL     1      46.185   1.341   8.047  0.00  0.00    +0.000 A 
ATOM     18  C   UNL     1      45.212   1.654   9.000  0.00  0.00    +0.000 A 
BRANCH  16  19
ATOM     19  C   UNL     1      47.753   2.050   6.305  0.00  0.00    +0.000 C 
ATOM     20  N   UNL     1      48.615   1.809   5.541  0.00  0.00    +0.000 NA
ENDBRANCH  16  19
ENDBRANCH  11  13
ENDBRANCH  10  11
ENDBRANCH   7  10
ENDBRANCH   5   7
BRANCH   1  21
ATOM     21  O   UNL     1      47.931   7.650  13.976  0.00  0.00    +0.000 OA
BRANCH  21  22
ATOM     22  C   UNL     1      49.072   7.004  13.371  0.00  0.00    +0.000 C 
BRANCH  22  24
ATOM     23  N   UNL     1      50.826   7.520  11.753  0.00  0.00    +0.000 N 
ATOM     24  C   UNL     1      49.835   8.033  12.553  0.00  0.00    +0.000 C 
ATOM     25  O   UNL     1      49.569   9.241  12.607  0.00  0.00    +0.000 OA
ATOM     26  H   UNL     1      50.966   6.512  11.751  0.00  0.00    +0.000 HD
BRANCH  23  27
ATOM     27  C   UNL     1      51.642   8.379  10.926  0.00  0.00    +0.000 C 
BRANCH  27  29
ATOM     28  C   UNL     1      52.879  10.371  11.848  0.00  0.00    +0.000 C 
ATOM     29  C   UNL     1      52.920   8.857  11.630  0.00  0.00    +0.000 C 
ATOM     30  C   UNL     1      53.106   8.155  12.979  0.00  0.00    +0.000 C 
ENDBRANCH  27  29
ENDBRANCH  23  27
ENDBRANCH  22  24
ENDBRANCH  21  22
ENDBRANCH   1  21
TORSDOF 10
ENDMDL
