MODEL 1
REMARK VINA RESULT:    -8.462      0.000      0.000
REMARK INTER + INTRA:         -13.219
REMARK INTER:                 -12.172
REMARK INTRA:                  -1.047
REMARK UNBOUND:                -1.047
REMARK  Name = 
REMARK  9 active torsions:
REMARK  status: ('A' for Active; 'I' for Inactive)
REMARK    1  A    between atoms: C_1  and  C_2
REMARK    2  A    between atoms: C_2  and  O_3
REMARK    3  A    between atoms: C_5  and  O_6
REMARK    4  A    between atoms: O_6  and  C_7
REMARK    5  A    between atoms: C_11  and  C_12
REMARK    6  A    between atoms: C_12  and  C_13
REMARK    7  A    between atoms: C_13  and  N_14
REMARK    8  A    between atoms: N_14  and  C_15
REMARK    9  A    between atoms: C_18  and  C_19
REMARK                            x       y       z     vdW  Elec       q    Type
REMARK                         _______ _______ _______ _____ _____    ______ ____
ROOT
ATOM      1  C   UNL     1      43.342   5.021  12.553  0.00  0.00    +0.000 C 
ENDROOT
BRANCH   1   6
ATOM      2  C   UNL     1      46.923   4.618  13.892  0.00  0.00    +0.000 A 
ATOM      3  C   UNL     1      47.493   5.830  13.522  0.00  0.00    +0.000 A 
ATOM      4  C   UNL     1      46.707   6.804  12.902  0.00  0.00    +0.000 A 
ATOM      5  C   UNL     1      45.358   6.555  12.618  0.00  0.00    +0.000 A 
ATOM      6  C   UNL     1      44.782   5.320  12.943  0.00  0.00    +0.000 A 
ATOM      7  C   UNL     1      45.585   4.372  13.599  0.00  0.00    +0.000 A 
BRANCH   2   8
ATOM      8  O   UNL     1      47.735   3.696  14.505  0.00  0.00    +0.000 OA
BRANCH   8  12
ATOM      9  C   UNL     1      49.085   4.137  18.777  0.00  0.00    +0.000 C 
ATOM     10  C   UNL     1      48.793   4.100  17.285  0.00  0.00    +0.000 C 
ATOM     11  C   UNL     1      47.321   4.419  16.921  0.00  0.00    +0.000 C 
ATOM     12  C   UNL     1      47.399   3.293  15.858  0.00  0.00    +0.000 C 
ATOM     13  C   UNL     1      48.560   2.691  16.683  0.00  0.00    +0.000 C 
BRANCH  10  14
ATOM     14  O   UNL     1      49.793   4.882  16.596  0.00  0.00    +0.000 OA
ATOM     15  H   UNL     1      50.649   4.492  16.844  0.00  0.00    +0.000 HD
ENDBRANCH  10  14
ENDBRANCH   8  12
ENDBRANCH   2   8
ENDBRANCH   1   6
BRANCH   1  16
ATOM     16  C   UNL     1      43.228   4.131  11.307  0.00  0.00    +0.000 C 
BRANCH  16  17
ATOM     17  N   UNL     1      43.726   4.754  10.080  0.00  0.00    +0.000 N 
ATOM     18  H   UNL     1      44.073   5.697  10.245  0.00  0.00    +0.000 HD
BRANCH  17  19
ATOM     19  C   UNL     1      44.668   3.979   9.366  0.00  0.00    +0.000 A 
ATOM     20  C   UNL     1      44.764   2.588   9.484  0.00  0.00    +0.000 A 
ATOM     21  C   UNL     1      45.661   1.861   8.704  0.00  0.00    +0.000 A 
ATOM     22  C   UNL     1      46.428   2.547   7.776  0.00  0.00    +0.000 A 
ATOM     23  N   UNL     1      46.359   3.896   7.593  0.00  0.00    +0.000 NA
ATOM     24  C   UNL     1      45.470   4.561   8.377  0.00  0.00    +0.000 A 
BRANCH  22  25
ATOM     25  C   UNL     1      47.383   1.787   6.915  0.00  0.00    +0.000 C 
ATOM     26  N   UNL     1      48.479   2.490   6.494  0.00  0.00    +0.000 N 
ATOM     27  O   UNL     1      47.202   0.625   6.592  0.00  0.00    +0.000 OA
ATOM     28  H   UNL     1      48.579   3.462   6.767  0.00  0.00    +0.000 HD
ATOM     29  H   UNL     1      49.149   2.052   5.884  0.00  0.00    +0.000 HD
ENDBRANCH  22  25
ENDBRANCH  17  19
ENDBRANCH  16  17
ENDBRANCH   1  16
TORSDOF 8
ENDMDL
MODEL 2
REMARK VINA RESULT:    -7.790      1.542      2.035
REMARK INTER + INTRA:         -12.253
REMARK INTER:                 -11.780
REMARK INTRA:                  -0.473
REMARK UNBOUND:                -1.047
REMARK  Name = 
REMARK  9 active torsions:
REMARK  status: ('A' for Active; 'I' for Inactive)
REMARK    1  A    between atoms: C_1  and  C_2
REMARK    2  A    between atoms: C_2  and  O_3
REMARK    3  A    between atoms: C_5  and  O_6
REMARK    4  A    between atoms: O_6  and  C_7
REMARK    5  A    between atoms: C_11  and  C_12
REMARK    6  A    between atoms: C_12  and  C_13
REMARK    7  A    between atoms: C_13  and  N_14
REMARK    8  A    between atoms: N_14  and  C_15
REMARK    9  A    between atoms: C_18  and  C_19
REMARK                            x       y       z     vdW  Elec       q    Type
REMARK                         _______ _______ _______ _____ _____    ______ ____
ROOT
ATOM      1  C   UNL     1      45.769   6.004  10.707  0.00  0.00    +0.000 C 
ENDROOT
BRANCH   1   6
ATOM      2  C   UNL     1      47.366   5.487  14.166  0.00  0.00    +0.000 A 
ATOM      3  C   UNL     1      48.206   6.589  14.249  0.00  0.00    +0.000 A 
ATOM      4  C   UNL     1      48.209   7.537  13.222  0.00  0.00    +0.000 A 
ATOM      5  C   UNL     1      47.398   7.363  12.093  0.00  0.00    +0.000 A 
ATOM      6  C   UNL     1      46.581   6.232  11.974  0.00  0.00    +0.000 A 
ATOM      7  C   UNL     1      46.570   5.315  13.038  0.00  0.00    +0.000 A 
BRANCH   2   8
ATOM      8  O   UNL     1      47.394   4.588  15.204  0.00  0.00    +0.000 OA
BRANCH   8  12
ATOM      9  C   UNL     1      48.263   3.342  19.443  0.00  0.00    +0.000 C 
ATOM     10  C   UNL     1      47.816   3.627  18.017  0.00  0.00    +0.000 C 
ATOM     11  C   UNL     1      48.975   3.663  16.987  0.00  0.00    +0.000 C 
ATOM     12  C   UNL     1      48.271   4.876  16.324  0.00  0.00    +0.000 C 
ATOM     13  C   UNL     1      47.567   5.119  17.678  0.00  0.00    +0.000 C 
BRANCH  10  14
ATOM     14  O   UNL     1      46.714   2.752  17.691  0.00  0.00    +0.000 OA
ATOM     15  H   UNL     1      46.607   2.167  18.460  0.00  0.00    +0.000 HD
ENDBRANCH  10  14
ENDBRANCH   8  12
ENDBRANCH   2   8
ENDBRANCH   1   6
BRANCH   1  16
ATOM     16  C   UNL     1      44.365   5.449  10.983  0.00  0.00    +0.000 C 
BRANCH  16  17
ATOM     17  N   UNL     1      43.724   4.840   9.817  0.00  0.00    +0.000 N 
ATOM     18  H   UNL     1      43.333   5.539   9.188  0.00  0.00    +0.000 HD
BRANCH  17  19
ATOM     19  C   UNL     1      44.531   3.915   9.117  0.00  0.00    +0.000 A 
ATOM     20  C   UNL     1      45.474   4.294   8.154  0.00  0.00    +0.000 A 
ATOM     21  C   UNL     1      46.297   3.350   7.544  0.00  0.00    +0.000 A 
ATOM     22  C   UNL     1      46.188   2.028   7.944  0.00  0.00    +0.000 A 
ATOM     23  N   UNL     1      45.312   1.601   8.897  0.00  0.00    +0.000 NA
ATOM     24  C   UNL     1      44.530   2.558   9.463  0.00  0.00    +0.000 A 
BRANCH  22  25
ATOM     25  C   UNL     1      47.073   1.001   7.319  0.00  0.00    +0.000 C 
ATOM     26  N   UNL     1      46.825  -0.292   7.692  0.00  0.00    +0.000 N 
ATOM     27  O   UNL     1      47.966   1.284   6.538  0.00  0.00    +0.000 OA
ATOM     28  H   UNL     1      46.087  -0.482   8.362  0.00  0.00    +0.000 HD
ATOM     29  H   UNL     1      47.403  -1.034   7.335  0.00  0.00    +0.000 HD
ENDBRANCH  22  25
ENDBRANCH  17  19
ENDBRANCH  16  17
ENDBRANCH   1  16
TORSDOF 8
ENDMDL
MODEL 3
REMARK VINA RESULT:    -7.216      2.374      3.725
REMARK INTER + INTRA:         -11.426
REMARK INTER:                 -10.560
REMARK INTRA:                  -0.866
REMARK UNBOUND:                -1.047
REMARK  Name = 
REMARK  9 active torsions:
REMARK  status: ('A' for Active; 'I' for Inactive)
REMARK    1  A    between atoms: C_1  and  C_2
REMARK    2  A    between atoms: C_2  and  O_3
REMARK    3  A    between atoms: C_5  and  O_6
REMARK    4  A    between atoms: O_6  and  C_7
REMARK    5  A    between atoms: C_11  and  C_12
REMARK    6  A    between atoms: C_12  and  C_13
REMARK    7  A    between atoms: C_13  and  N_14
REMARK    8  A    between atoms: N_14  and  C_15
REMARK    9  A    between atoms: C_18  and  C_19
REMARK                            x       y       z     vdW  Elec       q    Type
REMARK                         _______ _______ _______ _____ _____    ______ ____
ROOT
ATOM      1  C   UNL     1      43.699   5.547  12.218  0.00  0.00    +0.000 C 
ENDROOT
BRANCH   1   6
ATOM      2  C   UNL     1      47.401   6.584  12.167  0.00  0.00    +0.000 A 
ATOM      3  C   UNL     1      47.891   5.906  13.276  0.00  0.00    +0.000 A 
ATOM      4  C   UNL     1      47.047   5.062  14.001  0.00  0.00    +0.000 A 
ATOM      5  C   UNL     1      45.701   4.921  13.639  0.00  0.00    +0.000 A 
ATOM      6  C   UNL     1      45.181   5.635  12.552  0.00  0.00    +0.000 A 
ATOM      7  C   UNL     1      46.061   6.448  11.818  0.00  0.00    +0.000 A 
BRANCH   2   8
ATOM      8  O   UNL     1      48.271   7.396  11.483  0.00  0.00    +0.000 OA
BRANCH   8  12
ATOM      9  C   UNL     1      50.909  10.236  13.775  0.00  0.00    +0.000 C 
ATOM     10  C   UNL     1      50.152   9.131  13.053  0.00  0.00    +0.000 C 
ATOM     11  C   UNL     1      49.714   9.502  11.613  0.00  0.00    +0.000 C 
ATOM     12  C   UNL     1      48.370   8.783  11.898  0.00  0.00    +0.000 C 
ATOM     13  C   UNL     1      48.646   9.013  13.401  0.00  0.00    +0.000 C 
BRANCH  10  14
ATOM     14  O   UNL     1      50.891   7.898  13.186  0.00  0.00    +0.000 OA
ATOM     15  H   UNL     1      50.551   7.311  12.490  0.00  0.00    +0.000 HD
ENDBRANCH  10  14
ENDBRANCH   8  12
ENDBRANCH   2   8
ENDBRANCH   1   6
BRANCH   1  16
ATOM     16  C   UNL     1      43.432   5.160  10.756  0.00  0.00    +0.000 C 
BRANCH  16  17
ATOM     17  N   UNL     1      43.532   3.725  10.491  0.00  0.00    +0.000 N 
ATOM     18  H   UNL     1      42.634   3.321  10.231  0.00  0.00    +0.000 HD
BRANCH  17  19
ATOM     19  C   UNL     1      44.542   3.365   9.569  0.00  0.00    +0.000 A 
ATOM     20  C   UNL     1      44.949   2.043   9.354  0.00  0.00    +0.000 A 
ATOM     21  C   UNL     1      45.897   1.732   8.382  0.00  0.00    +0.000 A 
ATOM     22  C   UNL     1      46.398   2.762   7.602  0.00  0.00    +0.000 A 
ATOM     23  N   UNL     1      46.020   4.064   7.742  0.00  0.00    +0.000 NA
ATOM     24  C   UNL     1      45.093   4.317   8.704  0.00  0.00    +0.000 A 
BRANCH  22  25
ATOM     25  C   UNL     1      47.401   2.451   6.540  0.00  0.00    +0.000 C 
ATOM     26  N   UNL     1      47.297   3.198   5.398  0.00  0.00    +0.000 N 
ATOM     27  O   UNL     1      48.251   1.585   6.666  0.00  0.00    +0.000 OA
ATOM     28  H   UNL     1      46.561   3.893   5.327  0.00  0.00    +0.000 HD
ATOM     29  H   UNL     1      47.920   3.022   4.628  0.00  0.00    +0.000 HD
ENDBRANCH  22  25
ENDBRANCH  17  19
ENDBRANCH  16  17
ENDBRANCH   1  16
TORSDOF 8
ENDMDL
MODEL 4
REMARK VINA RESULT:    -7.035      3.297      4.473
REMARK INTER + INTRA:         -11.166
REMARK INTER:                 -10.604
REMARK INTRA:                  -0.562
REMARK UNBOUND:                -1.047
REMARK  Name = 
REMARK  9 active torsions:
REMARK  status: ('A' for Active; 'I' for Inactive)
REMARK    1  A    between atoms: C_1  and  C_2
REMARK    2  A    between atoms: C_2  and  O_3
REMARK    3  A    between atoms: C_5  and  O_6
REMARK    4  A    between atoms: O_6  and  C_7
REMARK    5  A    between atoms: C_11  and  C_12
REMARK    6  A    between atoms: C_12  and  C_13
REMARK    7  A    between atoms: C_13  and  N_14
REMARK    8  A    between atoms: N_14  and  C_15
REMARK    9  A    between atoms: C_18  and  C_19
REMARK                            x       y       z     vdW  Elec       q    Type
REMARK                         _______ _______ _______ _____ _____    ______ ____
ROOT
ATOM      1  C   UNL     1      45.770   6.025  10.635  0.00  0.00    +0.000 C 
ENDROOT
BRANCH   1   6
ATOM      2  C   UNL     1      48.242   7.749  13.021  0.00  0.00    +0.000 A 
ATOM      3  C   UNL     1      47.431   8.708  13.612  0.00  0.00    +0.000 A 
ATOM      4  C   UNL     1      46.071   8.757  13.294  0.00  0.00    +0.000 A 
ATOM      5  C   UNL     1      45.528   7.869  12.356  0.00  0.00    +0.000 A 
ATOM      6  C   UNL     1      46.345   6.927  11.717  0.00  0.00    +0.000 A 
ATOM      7  C   UNL     1      47.700   6.876  12.083  0.00  0.00    +0.000 A 
BRANCH   2   8
ATOM      8  O   UNL     1      49.570   7.737  13.372  0.00  0.00    +0.000 OA
BRANCH   8  12
ATOM      9  C   UNL     1      52.705   9.066  10.426  0.00  0.00    +0.000 C 
ATOM     10  C   UNL     1      51.659   8.434  11.332  0.00  0.00    +0.000 C 
ATOM     11  C   UNL     1      50.374   9.283  11.502  0.00  0.00    +0.000 C 
ATOM     12  C   UNL     1      50.378   8.885  13.001  0.00  0.00    +0.000 C 
ATOM     13  C   UNL     1      51.893   8.615  12.854  0.00  0.00    +0.000 C 
BRANCH  10  14
ATOM     14  O   UNL     1      51.455   7.064  10.921  0.00  0.00    +0.000 OA
ATOM     15  H   UNL     1      51.665   7.040   9.972  0.00  0.00    +0.000 HD
ENDBRANCH  10  14
ENDBRANCH   8  12
ENDBRANCH   2   8
ENDBRANCH   1   6
BRANCH   1  16
ATOM     16  C   UNL     1      44.397   5.445  11.001  0.00  0.00    +0.000 C 
BRANCH  16  17
ATOM     17  N   UNL     1      43.717   4.774   9.893  0.00  0.00    +0.000 N 
ATOM     18  H   UNL     1      43.273   5.438   9.260  0.00  0.00    +0.000 HD
BRANCH  17  19
ATOM     19  C   UNL     1      44.516   3.848   9.185  0.00  0.00    +0.000 A 
ATOM     20  C   UNL     1      45.357   4.211   8.126  0.00  0.00    +0.000 A 
ATOM     21  C   UNL     1      46.180   3.273   7.508  0.00  0.00    +0.000 A 
ATOM     22  C   UNL     1      46.175   1.975   7.994  0.00  0.00    +0.000 A 
ATOM     23  N   UNL     1      45.402   1.567   9.040  0.00  0.00    +0.000 NA
ATOM     24  C   UNL     1      44.616   2.518   9.610  0.00  0.00    +0.000 A 
BRANCH  22  25
ATOM     25  C   UNL     1      47.063   0.955   7.360  0.00  0.00    +0.000 C 
ATOM     26  N   UNL     1      46.749  -0.348   7.635  0.00  0.00    +0.000 N 
ATOM     27  O   UNL     1      48.013   1.252   6.654  0.00  0.00    +0.000 OA
ATOM     28  H   UNL     1      45.964  -0.550   8.246  0.00  0.00    +0.000 HD
ATOM     29  H   UNL     1      47.323  -1.088   7.268  0.00  0.00    +0.000 HD
ENDBRANCH  22  25
ENDBRANCH  17  19
ENDBRANCH  16  17
ENDBRANCH   1  16
TORSDOF 8
ENDMDL
MODEL 5
REMARK VINA RESULT:    -6.887      2.094      2.390
REMARK INTER + INTRA:         -10.954
REMARK INTER:                 -10.340
REMARK INTRA:                  -0.614
REMARK UNBOUND:                -1.047
REMARK  Name = 
REMARK  9 active torsions:
REMARK  status: ('A' for Active; 'I' for Inactive)
REMARK    1  A    between atoms: C_1  and  C_2
REMARK    2  A    between atoms: C_2  and  O_3
REMARK    3  A    between atoms: C_5  and  O_6
REMARK    4  A    between atoms: O_6  and  C_7
REMARK    5  A    between atoms: C_11  and  C_12
REMARK    6  A    between atoms: C_12  and  C_13
REMARK    7  A    between atoms: C_13  and  N_14
REMARK    8  A    between atoms: N_14  and  C_15
REMARK    9  A    between atoms: C_18  and  C_19
REMARK                            x       y       z     vdW  Elec       q    Type
REMARK                         _______ _______ _______ _____ _____    ______ ____
ROOT
ATOM      1  C   UNL     1      43.941   4.710  12.564  0.00  0.00    +0.000 C 
ENDROOT
BRANCH   1   6
ATOM      2  C   UNL     1      47.318   6.286  13.509  0.00  0.00    +0.000 A 
ATOM      3  C   UNL     1      47.266   7.487  12.813  0.00  0.00    +0.000 A 
ATOM      4  C   UNL     1      46.116   7.821  12.093  0.00  0.00    +0.000 A 
ATOM      5  C   UNL     1      45.029   6.938  12.039  0.00  0.00    +0.000 A 
ATOM      6  C   UNL     1      45.087   5.703  12.698  0.00  0.00    +0.000 A 
ATOM      7  C   UNL     1      46.240   5.409  13.444  0.00  0.00    +0.000 A 
BRANCH   2   8
ATOM      8  O   UNL     1      48.467   6.007  14.207  0.00  0.00    +0.000 OA
BRANCH   8  12
ATOM      9  C   UNL     1      51.390   8.474  16.583  0.00  0.00    +0.000 C 
ATOM     10  C   UNL     1      50.545   7.639  15.633  0.00  0.00    +0.000 C 
ATOM     11  C   UNL     1      49.080   8.128  15.495  0.00  0.00    +0.000 C 
ATOM     12  C   UNL     1      48.643   6.640  15.501  0.00  0.00    +0.000 C 
ATOM     13  C   UNL     1      49.973   6.325  16.224  0.00  0.00    +0.000 C 
BRANCH  10  14
ATOM     14  O   UNL     1      51.268   7.469  14.394  0.00  0.00    +0.000 OA
ATOM     15  H   UNL     1      51.666   6.583  14.443  0.00  0.00    +0.000 HD
ENDBRANCH  10  14
ENDBRANCH   8  12
ENDBRANCH   2   8
ENDBRANCH   1   6
BRANCH   1  16
ATOM     16  C   UNL     1      43.527   4.462  11.106  0.00  0.00    +0.000 C 
BRANCH  16  17
ATOM     17  N   UNL     1      43.770   3.097  10.641  0.00  0.00    +0.000 N 
ATOM     18  H   UNL     1      42.903   2.609  10.421  0.00  0.00    +0.000 HD
BRANCH  17  19
ATOM     19  C   UNL     1      44.700   2.991   9.582  0.00  0.00    +0.000 A 
ATOM     20  C   UNL     1      45.216   1.770   9.132  0.00  0.00    +0.000 A 
ATOM     21  C   UNL     1      46.075   1.712   8.036  0.00  0.00    +0.000 A 
ATOM     22  C   UNL     1      46.374   2.893   7.376  0.00  0.00    +0.000 A 
ATOM     23  N   UNL     1      45.881   4.109   7.746  0.00  0.00    +0.000 NA
ATOM     24  C   UNL     1      45.048   4.113   8.820  0.00  0.00    +0.000 A 
BRANCH  22  25
ATOM     25  C   UNL     1      47.278   2.855   6.187  0.00  0.00    +0.000 C 
ATOM     26  N   UNL     1      48.583   2.539   6.452  0.00  0.00    +0.000 N 
ATOM     27  O   UNL     1      46.893   3.099   5.056  0.00  0.00    +0.000 OA
ATOM     28  H   UNL     1      48.865   2.365   7.411  0.00  0.00    +0.000 HD
ATOM     29  H   UNL     1      49.255   2.526   5.703  0.00  0.00    +0.000 HD
ENDBRANCH  22  25
ENDBRANCH  17  19
ENDBRANCH  16  17
ENDBRANCH   1  16
TORSDOF 8
ENDMDL
MODEL 6
REMARK VINA RESULT:    -6.607      2.822      3.659
REMARK INTER + INTRA:         -10.551
REMARK INTER:                  -9.828
REMARK INTRA:                  -0.723
REMARK UNBOUND:                -1.047
REMARK  Name = 
REMARK  9 active torsions:
REMARK  status: ('A' for Active; 'I' for Inactive)
REMARK    1  A    between atoms: C_1  and  C_2
REMARK    2  A    between atoms: C_2  and  O_3
REMARK    3  A    between atoms: C_5  and  O_6
REMARK    4  A    between atoms: O_6  and  C_7
REMARK    5  A    between atoms: C_11  and  C_12
REMARK    6  A    between atoms: C_12  and  C_13
REMARK    7  A    between atoms: C_13  and  N_14
REMARK    8  A    between atoms: N_14  and  C_15
REMARK    9  A    between atoms: C_18  and  C_19
REMARK                            x       y       z     vdW  Elec       q    Type
REMARK                         _______ _______ _______ _____ _____    ______ ____
ROOT
ATOM      1  C   UNL     1      43.571   4.432  12.350  0.00  0.00    +0.000 C 
ENDROOT
BRANCH   1   6
ATOM      2  C   UNL     1      46.255   7.107  12.997  0.00  0.00    +0.000 A 
ATOM      3  C   UNL     1      45.852   8.116  12.132  0.00  0.00    +0.000 A 
ATOM      4  C   UNL     1      44.678   7.964  11.389  0.00  0.00    +0.000 A 
ATOM      5  C   UNL     1      43.925   6.787  11.484  0.00  0.00    +0.000 A 
ATOM      6  C   UNL     1      44.344   5.742  12.318  0.00  0.00    +0.000 A 
ATOM      7  C   UNL     1      45.508   5.936  13.080  0.00  0.00    +0.000 A 
BRANCH   2   8
ATOM      8  O   UNL     1      47.412   7.307  13.710  0.00  0.00    +0.000 OA
BRANCH   8  12
ATOM      9  C   UNL     1      51.001   8.991  11.576  0.00  0.00    +0.000 C 
ATOM     10  C   UNL     1      49.717   8.614  12.300  0.00  0.00    +0.000 C 
ATOM     11  C   UNL     1      49.932   7.692  13.528  0.00  0.00    +0.000 C 
ATOM     12  C   UNL     1      48.664   6.912  13.092  0.00  0.00    +0.000 C 
ATOM     13  C   UNL     1      48.905   7.456  11.665  0.00  0.00    +0.000 C 
BRANCH  10  14
ATOM     14  O   UNL     1      48.951   9.814  12.543  0.00  0.00    +0.000 OA
ATOM     15  H   UNL     1      48.355   9.904  11.781  0.00  0.00    +0.000 HD
ENDBRANCH  10  14
ENDBRANCH   8  12
ENDBRANCH   2   8
ENDBRANCH   1   6
BRANCH   1  16
ATOM     16  C   UNL     1      43.281   3.869  10.951  0.00  0.00    +0.000 C 
BRANCH  16  17
ATOM     17  N   UNL     1      43.938   2.591  10.674  0.00  0.00    +0.000 N 
ATOM     18  H   UNL     1      43.268   1.829  10.586  0.00  0.00    +0.000 HD
BRANCH  17  19
ATOM     19  C   UNL     1      44.835   2.614   9.582  0.00  0.00    +0.000 A 
ATOM     20  C   UNL     1      45.358   1.456   8.994  0.00  0.00    +0.000 A 
ATOM     21  C   UNL     1      46.181   1.528   7.872  0.00  0.00    +0.000 A 
ATOM     22  C   UNL     1      46.437   2.775   7.327  0.00  0.00    +0.000 A 
ATOM     23  N   UNL     1      45.934   3.936   7.834  0.00  0.00    +0.000 NA
ATOM     24  C   UNL     1      45.137   3.814   8.929  0.00  0.00    +0.000 A 
BRANCH  22  25
ATOM     25  C   UNL     1      47.302   2.877   6.113  0.00  0.00    +0.000 C 
ATOM     26  N   UNL     1      48.637   2.662   6.324  0.00  0.00    +0.000 N 
ATOM     27  O   UNL     1      46.861   3.146   5.008  0.00  0.00    +0.000 OA
ATOM     28  H   UNL     1      48.964   2.464   7.264  0.00  0.00    +0.000 HD
ATOM     29  H   UNL     1      49.283   2.746   5.557  0.00  0.00    +0.000 HD
ENDBRANCH  22  25
ENDBRANCH  17  19
ENDBRANCH  16  17
ENDBRANCH   1  16
TORSDOF 8
ENDMDL
MODEL 7
REMARK VINA RESULT:    -6.356      2.753      4.479
REMARK INTER + INTRA:         -10.189
REMARK INTER:                  -8.832
REMARK INTRA:                  -1.357
REMARK UNBOUND:                -1.047
REMARK  Name = 
REMARK  9 active torsions:
REMARK  status: ('A' for Active; 'I' for Inactive)
REMARK    1  A    between atoms: C_1  and  C_2
REMARK    2  A    between atoms: C_2  and  O_3
REMARK    3  A    between atoms: C_5  and  O_6
REMARK    4  A    between atoms: O_6  and  C_7
REMARK    5  A    between atoms: C_11  and  C_12
REMARK    6  A    between atoms: C_12  and  C_13
REMARK    7  A    between atoms: C_13  and  N_14
REMARK    8  A    between atoms: N_14  and  C_15
REMARK    9  A    between atoms: C_18  and  C_19
REMARK                            x       y       z     vdW  Elec       q    Type
REMARK                         _______ _______ _______ _____ _____    ______ ____
ROOT
ATOM      1  C   UNL     1      48.145   8.439  12.437  0.00  0.00    +0.000 C 
ENDROOT
BRANCH   1   6
ATOM      2  C   UNL     1      49.684   6.994  15.650  0.00  0.00    +0.000 A 
ATOM      3  C   UNL     1      49.773   8.128  16.447  0.00  0.00    +0.000 A 
ATOM      4  C   UNL     1      49.275   9.346  15.976  0.00  0.00    +0.000 A 
ATOM      5  C   UNL     1      48.720   9.439  14.693  0.00  0.00    +0.000 A 
ATOM      6  C   UNL     1      48.667   8.313  13.861  0.00  0.00    +0.000 A 
ATOM      7  C   UNL     1      49.141   7.094  14.374  0.00  0.00    +0.000 A 
BRANCH   2   8
ATOM      8  O   UNL     1      50.181   5.820  16.161  0.00  0.00    +0.000 OA
BRANCH   8  12
ATOM      9  C   UNL     1      47.239   2.743  17.626  0.00  0.00    +0.000 C 
ATOM     10  C   UNL     1      48.185   3.719  16.943  0.00  0.00    +0.000 C 
ATOM     11  C   UNL     1      49.605   3.762  17.562  0.00  0.00    +0.000 C 
ATOM     12  C   UNL     1      49.578   5.301  17.374  0.00  0.00    +0.000 C 
ATOM     13  C   UNL     1      48.036   5.203  17.365  0.00  0.00    +0.000 C 
BRANCH  10  14
ATOM     14  O   UNL     1      48.129   3.498  15.516  0.00  0.00    +0.000 OA
ATOM     15  H   UNL     1      48.143   4.382  15.113  0.00  0.00    +0.000 HD
ENDBRANCH  10  14
ENDBRANCH   8  12
ENDBRANCH   2   8
ENDBRANCH   1   6
BRANCH   1  16
ATOM     16  C   UNL     1      46.645   8.759  12.371  0.00  0.00    +0.000 C 
BRANCH  16  17
ATOM     17  N   UNL     1      45.821   7.947  13.267  0.00  0.00    +0.000 N 
ATOM     18  H   UNL     1      45.006   8.457  13.603  0.00  0.00    +0.000 HD
BRANCH  17  19
ATOM     19  C   UNL     1      45.457   6.683  12.749  0.00  0.00    +0.000 A 
ATOM     20  C   UNL     1      45.854   5.473  13.329  0.00  0.00    +0.000 A 
ATOM     21  C   UNL     1      45.409   4.253  12.824  0.00  0.00    +0.000 A 
ATOM     22  C   UNL     1      44.528   4.270  11.755  0.00  0.00    +0.000 A 
ATOM     23  N   UNL     1      44.081   5.414  11.166  0.00  0.00    +0.000 NA
ATOM     24  C   UNL     1      44.543   6.578  11.694  0.00  0.00    +0.000 A 
BRANCH  22  25
ATOM     25  C   UNL     1      44.021   2.975  11.207  0.00  0.00    +0.000 C 
ATOM     26  N   UNL     1      44.794   2.410  10.229  0.00  0.00    +0.000 N 
ATOM     27  O   UNL     1      42.986   2.456  11.589  0.00  0.00    +0.000 OA
ATOM     28  H   UNL     1      45.636   2.888   9.925  0.00  0.00    +0.000 HD
ATOM     29  H   UNL     1      44.497   1.554   9.791  0.00  0.00    +0.000 HD
ENDBRANCH  22  25
ENDBRANCH  17  19
ENDBRANCH  16  17
ENDBRANCH   1  16
TORSDOF 8
ENDMDL
MODEL 8
REMARK VINA RESULT:    -6.125      4.137      7.704
REMARK INTER + INTRA:          -9.857
REMARK INTER:                  -8.575
REMARK INTRA:                  -1.282
REMARK UNBOUND:                -1.047
REMARK  Name = 
REMARK  9 active torsions:
REMARK  status: ('A' for Active; 'I' for Inactive)
REMARK    1  A    between atoms: C_1  and  C_2
REMARK    2  A    between atoms: C_2  and  O_3
REMARK    3  A    between atoms: C_5  and  O_6
REMARK    4  A    between atoms: O_6  and  C_7
REMARK    5  A    between atoms: C_11  and  C_12
REMARK    6  A    between atoms: C_12  and  C_13
REMARK    7  A    between atoms: C_13  and  N_14
REMARK    8  A    between atoms: N_14  and  C_15
REMARK    9  A    between atoms: C_18  and  C_19
REMARK                            x       y       z     vdW  Elec       q    Type
REMARK                         _______ _______ _______ _____ _____    ______ ____
ROOT
ATOM      1  C   UNL     1      49.094   8.966  12.483  0.00  0.00    +0.000 C 
ENDROOT
BRANCH   1   6
ATOM      2  C   UNL     1      45.390   8.112  11.908  0.00  0.00    +0.000 A 
ATOM      3  C   UNL     1      44.842   9.375  11.726  0.00  0.00    +0.000 A 
ATOM      4  C   UNL     1      45.674  10.498  11.721  0.00  0.00    +0.000 A 
ATOM      5  C   UNL     1      47.052  10.361  11.933  0.00  0.00    +0.000 A 
ATOM      6  C   UNL     1      47.612   9.098  12.164  0.00  0.00    +0.000 A 
ATOM      7  C   UNL     1      46.757   7.984  12.128  0.00  0.00    +0.000 A 
BRANCH   2   8
ATOM      8  O   UNL     1      44.531   7.040  11.898  0.00  0.00    +0.000 OA
BRANCH   8  12
ATOM      9  C   UNL     1      43.413   2.681  11.763  0.00  0.00    +0.000 C 
ATOM     10  C   UNL     1      43.589   4.192  11.804  0.00  0.00    +0.000 C 
ATOM     11  C   UNL     1      44.649   4.731  10.809  0.00  0.00    +0.000 C 
ATOM     12  C   UNL     1      45.110   5.710  11.920  0.00  0.00    +0.000 C 
ATOM     13  C   UNL     1      44.492   4.730  12.944  0.00  0.00    +0.000 C 
BRANCH  10  14
ATOM     14  O   UNL     1      42.288   4.814  11.733  0.00  0.00    +0.000 OA
ATOM     15  H   UNL     1      41.662   4.093  11.551  0.00  0.00    +0.000 HD
ENDBRANCH  10  14
ENDBRANCH   8  12
ENDBRANCH   2   8
ENDBRANCH   1   6
BRANCH   1  16
ATOM     16  C   UNL     1      49.455   7.616  13.119  0.00  0.00    +0.000 C 
BRANCH  16  17
ATOM     17  N   UNL     1      49.713   7.684  14.557  0.00  0.00    +0.000 N 
ATOM     18  H   UNL     1      49.526   8.611  14.935  0.00  0.00    +0.000 HD
BRANCH  17  19
ATOM     19  C   UNL     1      49.071   6.681  15.319  0.00  0.00    +0.000 A 
ATOM     20  C   UNL     1      48.049   5.869  14.814  0.00  0.00    +0.000 A 
ATOM     21  C   UNL     1      47.498   4.846  15.582  0.00  0.00    +0.000 A 
ATOM     22  C   UNL     1      48.017   4.624  16.847  0.00  0.00    +0.000 A 
ATOM     23  N   UNL     1      49.031   5.359  17.384  0.00  0.00    +0.000 NA
ATOM     24  C   UNL     1      49.535   6.346  16.597  0.00  0.00    +0.000 A 
BRANCH  22  25
ATOM     25  C   UNL     1      47.456   3.520  17.683  0.00  0.00    +0.000 C 
ATOM     26  N   UNL     1      48.160   3.228  18.819  0.00  0.00    +0.000 N 
ATOM     27  O   UNL     1      46.447   2.906  17.377  0.00  0.00    +0.000 OA
ATOM     28  H   UNL     1      49.007   3.749  19.024  0.00  0.00    +0.000 HD
ATOM     29  H   UNL     1      47.859   2.475  19.413  0.00  0.00    +0.000 HD
ENDBRANCH  22  25
ENDBRANCH  17  19
ENDBRANCH  16  17
ENDBRANCH   1  16
TORSDOF 8
ENDMDL
MODEL 9
REMARK VINA RESULT:    -6.093      4.258      7.841
REMARK INTER + INTRA:          -9.812
REMARK INTER:                  -8.656
REMARK INTRA:                  -1.156
REMARK UNBOUND:                -1.047
REMARK  Name = 
REMARK  9 active torsions:
REMARK  status: ('A' for Active; 'I' for Inactive)
REMARK    1  A    between atoms: C_1  and  C_2
REMARK    2  A    between atoms: C_2  and  O_3
REMARK    3  A    between atoms: C_5  and  O_6
REMARK    4  A    between atoms: O_6  and  C_7
REMARK    5  A    between atoms: C_11  and  C_12
REMARK    6  A    between atoms: C_12  and  C_13
REMARK    7  A    between atoms: C_13  and  N_14
REMARK    8  A    between atoms: N_14  and  C_15
REMARK    9  A    between atoms: C_18  and  C_19
REMARK                            x       y       z     vdW  Elec       q    Type
REMARK                         _______ _______ _______ _____ _____    ______ ____
ROOT
ATOM      1  C   UNL     1      49.464   8.562  15.792  0.00  0.00    +0.000 C 
ENDROOT
BRANCH   1   6
ATOM      2  C   UNL     1      47.713   6.615  12.976  0.00  0.00    +0.000 A 
ATOM      3  C   UNL     1      47.870   7.483  11.904  0.00  0.00    +0.000 A 
ATOM      4  C   UNL     1      48.599   8.664  12.068  0.00  0.00    +0.000 A 
ATOM      5  C   UNL     1      49.141   8.996  13.316  0.00  0.00    +0.000 A 
ATOM      6  C   UNL     1      48.950   8.153  14.419  0.00  0.00    +0.000 A 
ATOM      7  C   UNL     1      48.246   6.955  14.216  0.00  0.00    +0.000 A 
BRANCH   2   8
ATOM      8  O   UNL     1      46.996   5.464  12.762  0.00  0.00    +0.000 OA
BRANCH   8  12
ATOM      9  C   UNL     1      43.325   3.049  11.781  0.00  0.00    +0.000 C 
ATOM     10  C   UNL     1      44.653   3.686  12.160  0.00  0.00    +0.000 C 
ATOM     11  C   UNL     1      44.520   4.919  13.090  0.00  0.00    +0.000 C 
ATOM     12  C   UNL     1      45.641   5.596  12.258  0.00  0.00    +0.000 C 
ATOM     13  C   UNL     1      45.263   4.642  11.102  0.00  0.00    +0.000 C 
BRANCH  10  14
ATOM     14  O   UNL     1      45.553   2.651  12.614  0.00  0.00    +0.000 OA
ATOM     15  H   UNL     1      46.189   2.520  11.891  0.00  0.00    +0.000 HD
ENDBRANCH  10  14
ENDBRANCH   8  12
ENDBRANCH   2   8
ENDBRANCH   1   6
BRANCH   1  16
ATOM     16  C   UNL     1      48.421   8.383  16.904  0.00  0.00    +0.000 C 
BRANCH  16  17
ATOM     17  N   UNL     1      48.895   7.603  18.047  0.00  0.00    +0.000 N 
ATOM     18  H   UNL     1      48.238   7.629  18.826  0.00  0.00    +0.000 HD
BRANCH  17  19
ATOM     19  C   UNL     1      49.272   6.276  17.740  0.00  0.00    +0.000 A 
ATOM     20  C   UNL     1      50.567   5.780  17.939  0.00  0.00    +0.000 A 
ATOM     21  C   UNL     1      50.871   4.444  17.689  0.00  0.00    +0.000 A 
ATOM     22  C   UNL     1      49.848   3.605  17.277  0.00  0.00    +0.000 A 
ATOM     23  N   UNL     1      48.562   4.020  17.094  0.00  0.00    +0.000 NA
ATOM     24  C   UNL     1      48.315   5.331  17.350  0.00  0.00    +0.000 A 
BRANCH  22  25
ATOM     25  C   UNL     1      50.145   2.164  17.021  0.00  0.00    +0.000 C 
ATOM     26  N   UNL     1      51.023   1.582  17.894  0.00  0.00    +0.000 N 
ATOM     27  O   UNL     1      49.655   1.542  16.093  0.00  0.00    +0.000 OA
ATOM     28  H   UNL     1      51.426   2.142  18.639  0.00  0.00    +0.000 HD
ATOM     29  H   UNL     1      51.295   0.622  17.764  0.00  0.00    +0.000 HD
ENDBRANCH  22  25
ENDBRANCH  17  19
ENDBRANCH  16  17
ENDBRANCH   1  16
TORSDOF 8
ENDMDL
