MODEL 1
REMARK VINA RESULT:    -8.604      0.000      0.000
REMARK INTER + INTRA:         -11.888
REMARK INTER:                 -11.119
REMARK INTRA:                  -0.769
REMARK UNBOUND:                -0.769
REMARK  Name = 
REMARK  5 active torsions:
REMARK  status: ('A' for Active; 'I' for Inactive)
REMARK    1  A    between atoms: C_2  and  C_4
REMARK    2  A    between atoms: C_7  and  O_8
REMARK    3  A    between atoms: O_8  and  C_9
REMARK    4  A    between atoms: C_9  and  C_10
REMARK    5  A    between atoms: C_14  and  C_15
REMARK                            x       y       z     vdW  Elec       q    Type
REMARK                         _______ _______ _______ _____ _____    ______ ____
ROOT
ATOM      1  C   UNL     1      43.630   4.338  11.181  0.00  0.00    +0.000 C 
ENDROOT
BRANCH   1   2
ATOM      2  C   UNL     1      44.846   4.748  11.985  0.00  0.00    +0.000 A 
ATOM      3  C   UNL     1      45.520   3.853  12.820  0.00  0.00    +0.000 A 
ATOM      4  C   UNL     1      46.689   4.248  13.465  0.00  0.00    +0.000 A 
ATOM      5  C   UNL     1      47.205   5.533  13.266  0.00  0.00    +0.000 A 
ATOM      6  C   UNL     1      46.574   6.455  12.412  0.00  0.00    +0.000 A 
ATOM      7  C   UNL     1      45.384   6.035  11.789  0.00  0.00    +0.000 A 
BRANCH   6   8
ATOM      8  C   UNL     1      47.154   7.790  12.151  0.00  0.00    +0.000 A 
ATOM      9  C   UNL     1      48.495   7.974  11.783  0.00  0.00    +0.000 A 
ATOM     10  C   UNL     1      49.005   9.255  11.559  0.00  0.00    +0.000 A 
ATOM     11  C   UNL     1      48.155  10.336  11.699  0.00  0.00    +0.000 A 
ATOM     12  N   UNL     1      46.860  10.221  12.053  0.00  0.00    +0.000 NA
ATOM     13  C   UNL     1      46.402   8.962  12.273  0.00  0.00    +0.000 A 
ENDBRANCH   6   8
ENDBRANCH   1   2
BRANCH   1  14
ATOM     14  O   UNL     1      43.716   4.766   9.817  0.00  0.00    +0.000 OA
BRANCH  14  18
ATOM     15  C   UNL     1      46.412   2.455   7.727  0.00  0.00    +0.000 A 
ATOM     16  C   UNL     1      45.543   1.850   8.636  0.00  0.00    +0.000 A 
ATOM     17  C   UNL     1      44.634   2.640   9.343  0.00  0.00    +0.000 A 
ATOM     18  C   UNL     1      44.626   4.009   9.108  0.00  0.00    +0.000 A 
ATOM     19  N   UNL     1      45.461   4.618   8.237  0.00  0.00    +0.000 NA
ATOM     20  C   UNL     1      46.343   3.832   7.575  0.00  0.00    +0.000 A 
BRANCH  15  22
ATOM     21  N   UNL     1      48.461   2.436   6.424  0.00  0.00    +0.000 N 
ATOM     22  C   UNL     1      47.415   1.719   6.934  0.00  0.00    +0.000 C 
ATOM     23  O   UNL     1      47.341   0.510   6.774  0.00  0.00    +0.000 OA
ATOM     24  H   UNL     1      49.199   1.895   5.987  0.00  0.00    +0.000 HD
ATOM     25  H   UNL     1      48.695   3.363   6.750  0.00  0.00    +0.000 HD
ENDBRANCH  15  22
ENDBRANCH  14  18
ENDBRANCH   1  14
TORSDOF 5
ENDMDL
MODEL 2
REMARK VINA RESULT:    -8.471      2.024      3.380
REMARK INTER + INTRA:         -11.716
REMARK INTER:                 -10.949
REMARK INTRA:                  -0.767
REMARK UNBOUND:                -0.769
REMARK  Name = 
REMARK  5 active torsions:
REMARK  status: ('A' for Active; 'I' for Inactive)
REMARK    1  A    between atoms: C_2  and  C_4
REMARK    2  A    between atoms: C_7  and  O_8
REMARK    3  A    between atoms: O_8  and  C_9
REMARK    4  A    between atoms: C_9  and  C_10
REMARK    5  A    between atoms: C_14  and  C_15
REMARK                            x       y       z     vdW  Elec       q    Type
REMARK                         _______ _______ _______ _____ _____    ______ ____
ROOT
ATOM      1  C   UNL     1      43.978   4.434  11.371  0.00  0.00    +0.000 C 
ENDROOT
BRANCH   1   2
ATOM      2  C   UNL     1      45.088   5.328  11.881  0.00  0.00    +0.000 A 
ATOM      3  C   UNL     1      45.320   6.599  11.351  0.00  0.00    +0.000 A 
ATOM      4  C   UNL     1      46.290   7.423  11.916  0.00  0.00    +0.000 A 
ATOM      5  C   UNL     1      47.022   6.991  13.027  0.00  0.00    +0.000 A 
ATOM      6  C   UNL     1      46.801   5.730  13.609  0.00  0.00    +0.000 A 
ATOM      7  C   UNL     1      45.828   4.911  13.005  0.00  0.00    +0.000 A 
BRANCH   6   8
ATOM      8  C   UNL     1      47.529   5.299  14.822  0.00  0.00    +0.000 A 
ATOM      9  C   UNL     1      47.226   4.112  15.506  0.00  0.00    +0.000 A 
ATOM     10  C   UNL     1      47.931   3.751  16.656  0.00  0.00    +0.000 A 
ATOM     11  C   UNL     1      48.940   4.585  17.099  0.00  0.00    +0.000 A 
ATOM     12  N   UNL     1      49.273   5.738  16.487  0.00  0.00    +0.000 NA
ATOM     13  C   UNL     1      48.560   6.063  15.379  0.00  0.00    +0.000 A 
ENDBRANCH   6   8
ENDBRANCH   1   2
BRANCH   1  14
ATOM     14  O   UNL     1      43.735   4.622   9.972  0.00  0.00    +0.000 OA
BRANCH  14  18
ATOM     15  C   UNL     1      46.403   2.444   7.711  0.00  0.00    +0.000 A 
ATOM     16  C   UNL     1      45.628   1.799   8.676  0.00  0.00    +0.000 A 
ATOM     17  C   UNL     1      44.728   2.544   9.440  0.00  0.00    +0.000 A 
ATOM     18  C   UNL     1      44.634   3.909   9.205  0.00  0.00    +0.000 A 
ATOM     19  N   UNL     1      45.377   4.557   8.280  0.00  0.00    +0.000 NA
ATOM     20  C   UNL     1      46.253   3.814   7.563  0.00  0.00    +0.000 A 
BRANCH  15  22
ATOM     21  N   UNL     1      48.473   2.479   6.441  0.00  0.00    +0.000 N 
ATOM     22  C   UNL     1      47.388   1.756   6.853  0.00  0.00    +0.000 C 
ATOM     23  O   UNL     1      47.267   0.577   6.560  0.00  0.00    +0.000 OA
ATOM     24  H   UNL     1      49.194   1.958   5.956  0.00  0.00    +0.000 HD
ATOM     25  H   UNL     1      48.739   3.354   6.871  0.00  0.00    +0.000 HD
ENDBRANCH  15  22
ENDBRANCH  14  18
ENDBRANCH   1  14
TORSDOF 5
ENDMDL
MODEL 3
REMARK VINA RESULT:    -7.804      1.902      2.616
REMARK INTER + INTRA:         -10.855
REMARK INTER:                 -10.168
REMARK INTRA:                  -0.687
REMARK UNBOUND:                -0.769
REMARK  Name = 
REMARK  5 active torsions:
REMARK  status: ('A' for Active; 'I' for Inactive)
REMARK    1  A    between atoms: C_2  and  C_4
REMARK    2  A    between atoms: C_7  and  O_8
REMARK    3  A    between atoms: O_8  and  C_9
REMARK    4  A    between atoms: C_9  and  C_10
REMARK    5  A    between atoms: C_14  and  C_15
REMARK                            x       y       z     vdW  Elec       q    Type
REMARK                         _______ _______ _______ _____ _____    ______ ____
ROOT
ATOM      1  C   UNL     1      44.468   4.861  11.333  0.00  0.00    +0.000 C 
ENDROOT
BRANCH   1   2
ATOM      2  C   UNL     1      45.084   6.191  11.709  0.00  0.00    +0.000 A 
ATOM      3  C   UNL     1      44.471   7.407  11.400  0.00  0.00    +0.000 A 
ATOM      4  C   UNL     1      45.027   8.602  11.850  0.00  0.00    +0.000 A 
ATOM      5  C   UNL     1      46.189   8.590  12.629  0.00  0.00    +0.000 A 
ATOM      6  C   UNL     1      46.823   7.386  12.986  0.00  0.00    +0.000 A 
ATOM      7  C   UNL     1      46.250   6.196  12.501  0.00  0.00    +0.000 A 
BRANCH   6   8
ATOM      8  C   UNL     1      48.014   7.370  13.863  0.00  0.00    +0.000 A 
ATOM      9  C   UNL     1      48.963   8.403  13.870  0.00  0.00    +0.000 A 
ATOM     10  C   UNL     1      50.080   8.340  14.705  0.00  0.00    +0.000 A 
ATOM     11  C   UNL     1      50.225   7.240  15.530  0.00  0.00    +0.000 A 
ATOM     12  N   UNL     1      49.349   6.217  15.564  0.00  0.00    +0.000 NA
ATOM     13  C   UNL     1      48.281   6.307  14.731  0.00  0.00    +0.000 A 
ENDBRANCH   6   8
ENDBRANCH   1   2
BRANCH   1  14
ATOM     14  O   UNL     1      44.045   4.830   9.964  0.00  0.00    +0.000 OA
BRANCH  14  18
ATOM     15  C   UNL     1      46.428   2.316   7.734  0.00  0.00    +0.000 A 
ATOM     16  C   UNL     1      45.596   1.784   8.720  0.00  0.00    +0.000 A 
ATOM     17  C   UNL     1      44.792   2.643   9.473  0.00  0.00    +0.000 A 
ATOM     18  C   UNL     1      44.851   4.004   9.208  0.00  0.00    +0.000 A 
ATOM     19  N   UNL     1      45.652   4.544   8.263  0.00  0.00    +0.000 NA
ATOM     20  C   UNL     1      46.432   3.692   7.556  0.00  0.00    +0.000 A 
BRANCH  15  22
ATOM     21  N   UNL     1      48.377   2.141   6.296  0.00  0.00    +0.000 N 
ATOM     22  C   UNL     1      47.321   1.504   6.885  0.00  0.00    +0.000 C 
ATOM     23  O   UNL     1      47.153   0.301   6.749  0.00  0.00    +0.000 OA
ATOM     24  H   UNL     1      49.044   1.545   5.818  0.00  0.00    +0.000 HD
ATOM     25  H   UNL     1      48.697   3.052   6.592  0.00  0.00    +0.000 HD
ENDBRANCH  15  22
ENDBRANCH  14  18
ENDBRANCH   1  14
TORSDOF 5
ENDMDL
MODEL 4
REMARK VINA RESULT:    -7.613      1.787      2.374
REMARK INTER + INTRA:         -10.608
REMARK INTER:                  -9.761
REMARK INTRA:                  -0.848
REMARK UNBOUND:                -0.769
REMARK  Name = 
REMARK  5 active torsions:
REMARK  status: ('A' for Active; 'I' for Inactive)
REMARK    1  A    between atoms: C_2  and  C_4
REMARK    2  A    between atoms: C_7  and  O_8
REMARK    3  A    between atoms: O_8  and  C_9
REMARK    4  A    between atoms: C_9  and  C_10
REMARK    5  A    between atoms: C_14  and  C_15
REMARK                            x       y       z     vdW  Elec       q    Type
REMARK                         _______ _______ _______ _____ _____    ______ ____
ROOT
ATOM      1  C   UNL     1      44.007   2.548  11.198  0.00  0.00    +0.000 C 
ENDROOT
BRANCH   1   2
ATOM      2  C   UNL     1      44.139   3.941  11.776  0.00  0.00    +0.000 A 
ATOM      3  C   UNL     1      43.059   4.608  12.358  0.00  0.00    +0.000 A 
ATOM      4  C   UNL     1      43.249   5.848  12.963  0.00  0.00    +0.000 A 
ATOM      5  C   UNL     1      44.524   6.422  13.008  0.00  0.00    +0.000 A 
ATOM      6  C   UNL     1      45.643   5.771  12.459  0.00  0.00    +0.000 A 
ATOM      7  C   UNL     1      45.418   4.529  11.838  0.00  0.00    +0.000 A 
BRANCH   6   8
ATOM      8  C   UNL     1      47.001   6.348  12.564  0.00  0.00    +0.000 A 
ATOM      9  C   UNL     1      47.568   7.139  11.554  0.00  0.00    +0.000 A 
ATOM     10  C   UNL     1      48.860   7.653  11.689  0.00  0.00    +0.000 A 
ATOM     11  C   UNL     1      49.563   7.370  12.845  0.00  0.00    +0.000 A 
ATOM     12  N   UNL     1      49.073   6.614  13.846  0.00  0.00    +0.000 NA
ATOM     13  C   UNL     1      47.819   6.123  13.676  0.00  0.00    +0.000 A 
ENDBRANCH   6   8
ENDBRANCH   1   2
BRANCH   1  14
ATOM     14  O   UNL     1      43.577   2.570   9.832  0.00  0.00    +0.000 OA
BRANCH  14  18
ATOM     15  C   UNL     1      46.774   2.512   7.234  0.00  0.00    +0.000 A 
ATOM     16  C   UNL     1      46.017   3.677   7.371  0.00  0.00    +0.000 A 
ATOM     17  C   UNL     1      44.934   3.688   8.252  0.00  0.00    +0.000 A 
ATOM     18  C   UNL     1      44.651   2.531   8.966  0.00  0.00    +0.000 A 
ATOM     19  N   UNL     1      45.366   1.391   8.846  0.00  0.00    +0.000 NA
ATOM     20  C   UNL     1      46.403   1.401   7.975  0.00  0.00    +0.000 A 
BRANCH  15  22
ATOM     21  N   UNL     1      47.785   2.851   5.052  0.00  0.00    +0.000 N 
ATOM     22  C   UNL     1      47.934   2.387   6.329  0.00  0.00    +0.000 C 
ATOM     23  O   UNL     1      48.999   1.930   6.715  0.00  0.00    +0.000 OA
ATOM     24  H   UNL     1      48.625   2.867   4.485  0.00  0.00    +0.000 HD
ATOM     25  H   UNL     1      47.029   3.464   4.780  0.00  0.00    +0.000 HD
ENDBRANCH  15  22
ENDBRANCH  14  18
ENDBRANCH   1  14
TORSDOF 5
ENDMDL
MODEL 5
REMARK VINA RESULT:    -7.336      2.676      6.714
REMARK INTER + INTRA:         -10.249
REMARK INTER:                  -9.379
REMARK INTRA:                  -0.871
REMARK UNBOUND:                -0.769
REMARK  Name = 
REMARK  5 active torsions:
REMARK  status: ('A' for Active; 'I' for Inactive)
REMARK    1  A    between atoms: C_2  and  C_4
REMARK    2  A    between atoms: C_7  and  O_8
REMARK    3  A    between atoms: O_8  and  C_9
REMARK    4  A    between atoms: C_9  and  C_10
REMARK    5  A    between atoms: C_14  and  C_15
REMARK                            x       y       z     vdW  Elec       q    Type
REMARK                         _______ _______ _______ _____ _____    ______ ____
ROOT
ATOM      1  C   UNL     1      43.957   6.119  11.390  0.00  0.00    +0.000 C 
ENDROOT
BRANCH   1   2
ATOM      2  C   UNL     1      44.087   4.662  11.001  0.00  0.00    +0.000 A 
ATOM      3  C   UNL     1      43.326   3.661  11.609  0.00  0.00    +0.000 A 
ATOM      4  C   UNL     1      43.410   2.348  11.153  0.00  0.00    +0.000 A 
ATOM      5  C   UNL     1      44.240   2.028  10.073  0.00  0.00    +0.000 A 
ATOM      6  C   UNL     1      45.002   3.010   9.415  0.00  0.00    +0.000 A 
ATOM      7  C   UNL     1      44.912   4.325   9.910  0.00  0.00    +0.000 A 
BRANCH   6   8
ATOM      8  C   UNL     1      45.829   2.684   8.233  0.00  0.00    +0.000 A 
ATOM      9  C   UNL     1      46.086   3.609   7.210  0.00  0.00    +0.000 A 
ATOM     10  C   UNL     1      46.862   3.253   6.105  0.00  0.00    +0.000 A 
ATOM     11  C   UNL     1      47.379   1.972   6.047  0.00  0.00    +0.000 A 
ATOM     12  N   UNL     1      47.164   1.042   6.997  0.00  0.00    +0.000 NA
ATOM     13  C   UNL     1      46.396   1.418   8.051  0.00  0.00    +0.000 A 
ENDBRANCH   6   8
ENDBRANCH   1   2
BRANCH   1  14
ATOM     14  O   UNL     1      44.395   6.360  12.733  0.00  0.00    +0.000 OA
BRANCH  14  18
ATOM     15  C   UNL     1      48.414   7.263  12.835  0.00  0.00    +0.000 A 
ATOM     16  C   UNL     1      47.540   8.083  12.120  0.00  0.00    +0.000 A 
ATOM     17  C   UNL     1      46.179   7.770  12.089  0.00  0.00    +0.000 A 
ATOM     18  C   UNL     1      45.744   6.646  12.778  0.00  0.00    +0.000 A 
ATOM     19  N   UNL     1      46.571   5.834  13.473  0.00  0.00    +0.000 NA
ATOM     20  C   UNL     1      47.888   6.152  13.477  0.00  0.00    +0.000 A 
BRANCH  15  22
ATOM     21  N   UNL     1      50.594   7.411  11.776  0.00  0.00    +0.000 N 
ATOM     22  C   UNL     1      49.868   7.497  12.931  0.00  0.00    +0.000 C 
ATOM     23  O   UNL     1      50.398   7.799  13.989  0.00  0.00    +0.000 OA
ATOM     24  H   UNL     1      51.565   7.691  11.840  0.00  0.00    +0.000 HD
ATOM     25  H   UNL     1      50.165   7.427  10.861  0.00  0.00    +0.000 HD
ENDBRANCH  15  22
ENDBRANCH  14  18
ENDBRANCH   1  14
TORSDOF 5
ENDMDL
MODEL 6
REMARK VINA RESULT:    -7.229      2.511      6.752
REMARK INTER + INTRA:         -10.112
REMARK INTER:                  -9.274
REMARK INTRA:                  -0.838
REMARK UNBOUND:                -0.769
REMARK  Name = 
REMARK  5 active torsions:
REMARK  status: ('A' for Active; 'I' for Inactive)
REMARK    1  A    between atoms: C_2  and  C_4
REMARK    2  A    between atoms: C_7  and  O_8
REMARK    3  A    between atoms: O_8  and  C_9
REMARK    4  A    between atoms: C_9  and  C_10
REMARK    5  A    between atoms: C_14  and  C_15
REMARK                            x       y       z     vdW  Elec       q    Type
REMARK                         _______ _______ _______ _____ _____    ______ ____
ROOT
ATOM      1  C   UNL     1      44.509   6.566  11.559  0.00  0.00    +0.000 C 
ENDROOT
BRANCH   1   2
ATOM      2  C   UNL     1      44.411   5.104  11.179  0.00  0.00    +0.000 A 
ATOM      3  C   UNL     1      43.511   4.235  11.799  0.00  0.00    +0.000 A 
ATOM      4  C   UNL     1      43.388   2.922  11.351  0.00  0.00    +0.000 A 
ATOM      5  C   UNL     1      44.150   2.473  10.268  0.00  0.00    +0.000 A 
ATOM      6  C   UNL     1      45.048   3.323   9.597  0.00  0.00    +0.000 A 
ATOM      7  C   UNL     1      45.165   4.638  10.084  0.00  0.00    +0.000 A 
BRANCH   6   8
ATOM      8  C   UNL     1      45.805   2.866   8.411  0.00  0.00    +0.000 A 
ATOM      9  C   UNL     1      46.128   3.719   7.345  0.00  0.00    +0.000 A 
ATOM     10  C   UNL     1      46.834   3.243   6.238  0.00  0.00    +0.000 A 
ATOM     11  C   UNL     1      47.214   1.913   6.222  0.00  0.00    +0.000 A 
ATOM     12  N   UNL     1      46.929   1.047   7.214  0.00  0.00    +0.000 NA
ATOM     13  C   UNL     1      46.233   1.543   8.268  0.00  0.00    +0.000 A 
ENDBRANCH   6   8
ENDBRANCH   1   2
BRANCH   1  14
ATOM     14  O   UNL     1      45.208   6.756  12.795  0.00  0.00    +0.000 OA
BRANCH  14  18
ATOM     15  C   UNL     1      49.067   8.058  12.173  0.00  0.00    +0.000 A 
ATOM     16  C   UNL     1      48.841   6.756  12.622  0.00  0.00    +0.000 A 
ATOM     17  C   UNL     1      47.531   6.322  12.833  0.00  0.00    +0.000 A 
ATOM     18  C   UNL     1      46.493   7.210  12.582  0.00  0.00    +0.000 A 
ATOM     19  N   UNL     1      46.686   8.476  12.151  0.00  0.00    +0.000 NA
ATOM     20  C   UNL     1      47.967   8.877  11.968  0.00  0.00    +0.000 A 
BRANCH  15  22
ATOM     21  N   UNL     1      51.483   7.899  12.364  0.00  0.00    +0.000 N 
ATOM     22  C   UNL     1      50.408   8.620  11.924  0.00  0.00    +0.000 C 
ATOM     23  O   UNL     1      50.558   9.666  11.310  0.00  0.00    +0.000 OA
ATOM     24  H   UNL     1      52.393   8.240  12.079  0.00  0.00    +0.000 HD
ATOM     25  H   UNL     1      51.413   6.926  12.630  0.00  0.00    +0.000 HD
ENDBRANCH  15  22
ENDBRANCH  14  18
ENDBRANCH   1  14
TORSDOF 5
ENDMDL
MODEL 7
REMARK VINA RESULT:    -7.162      4.580      8.117
REMARK INTER + INTRA:         -10.025
REMARK INTER:                  -9.476
REMARK INTRA:                  -0.550
REMARK UNBOUND:                -0.769
REMARK  Name = 
REMARK  5 active torsions:
REMARK  status: ('A' for Active; 'I' for Inactive)
REMARK    1  A    between atoms: C_2  and  C_4
REMARK    2  A    between atoms: C_7  and  O_8
REMARK    3  A    between atoms: O_8  and  C_9
REMARK    4  A    between atoms: C_9  and  C_10
REMARK    5  A    between atoms: C_14  and  C_15
REMARK                            x       y       z     vdW  Elec       q    Type
REMARK                         _______ _______ _______ _____ _____    ______ ____
ROOT
ATOM      1  C   UNL     1      45.930   5.128  14.016  0.00  0.00    +0.000 C 
ENDROOT
BRANCH   1   2
ATOM      2  C   UNL     1      44.996   4.822  12.864  0.00  0.00    +0.000 A 
ATOM      3  C   UNL     1      43.640   5.155  12.900  0.00  0.00    +0.000 A 
ATOM      4  C   UNL     1      42.840   4.941  11.781  0.00  0.00    +0.000 A 
ATOM      5  C   UNL     1      43.392   4.412  10.610  0.00  0.00    +0.000 A 
ATOM      6  C   UNL     1      44.758   4.090  10.522  0.00  0.00    +0.000 A 
ATOM      7  C   UNL     1      45.538   4.298  11.675  0.00  0.00    +0.000 A 
BRANCH   6   8
ATOM      8  C   UNL     1      45.356   3.591   9.264  0.00  0.00    +0.000 A 
ATOM      9  C   UNL     1      45.543   2.225   9.004  0.00  0.00    +0.000 A 
ATOM     10  C   UNL     1      46.123   1.799   7.808  0.00  0.00    +0.000 A 
ATOM     11  C   UNL     1      46.501   2.754   6.882  0.00  0.00    +0.000 A 
ATOM     12  N   UNL     1      46.350   4.078   7.078  0.00  0.00    +0.000 NA
ATOM     13  C   UNL     1      45.792   4.456   8.256  0.00  0.00    +0.000 A 
ENDBRANCH   6   8
ENDBRANCH   1   2
BRANCH   1  14
ATOM     14  O   UNL     1      46.692   3.982  14.411  0.00  0.00    +0.000 OA
BRANCH  14  18
ATOM     15  C   UNL     1      48.385   4.554  18.124  0.00  0.00    +0.000 A 
ATOM     16  C   UNL     1      48.623   5.479  17.106  0.00  0.00    +0.000 A 
ATOM     17  C   UNL     1      48.047   5.277  15.850  0.00  0.00    +0.000 A 
ATOM     18  C   UNL     1      47.251   4.156  15.661  0.00  0.00    +0.000 A 
ATOM     19  N   UNL     1      47.010   3.244  16.628  0.00  0.00    +0.000 NA
ATOM     20  C   UNL     1      47.591   3.455  17.833  0.00  0.00    +0.000 A 
BRANCH  15  22
ATOM     21  N   UNL     1      48.577   3.715  20.394  0.00  0.00    +0.000 N 
ATOM     22  C   UNL     1      48.947   4.665  19.484  0.00  0.00    +0.000 C 
ATOM     23  O   UNL     1      49.744   5.543  19.775  0.00  0.00    +0.000 OA
ATOM     24  H   UNL     1      49.064   3.739  21.283  0.00  0.00    +0.000 HD
ATOM     25  H   UNL     1      48.143   2.843  20.125  0.00  0.00    +0.000 HD
ENDBRANCH  15  22
ENDBRANCH  14  18
ENDBRANCH   1  14
TORSDOF 5
ENDMDL
MODEL 8
REMARK VINA RESULT:    -6.910      3.774      7.462
REMARK INTER + INTRA:          -9.700
REMARK INTER:                  -9.103
REMARK INTRA:                  -0.596
REMARK UNBOUND:                -0.769
REMARK  Name = 
REMARK  5 active torsions:
REMARK  status: ('A' for Active; 'I' for Inactive)
REMARK    1  A    between atoms: C_2  and  C_4
REMARK    2  A    between atoms: C_7  and  O_8
REMARK    3  A    between atoms: O_8  and  C_9
REMARK    4  A    between atoms: C_9  and  C_10
REMARK    5  A    between atoms: C_14  and  C_15
REMARK                            x       y       z     vdW  Elec       q    Type
REMARK                         _______ _______ _______ _____ _____    ______ ____
ROOT
ATOM      1  C   UNL     1      45.994   6.886  12.834  0.00  0.00    +0.000 C 
ENDROOT
BRANCH   1   2
ATOM      2  C   UNL     1      45.090   5.933  12.082  0.00  0.00    +0.000 A 
ATOM      3  C   UNL     1      43.706   5.921  12.266  0.00  0.00    +0.000 A 
ATOM      4  C   UNL     1      42.905   5.094  11.483  0.00  0.00    +0.000 A 
ATOM      5  C   UNL     1      43.480   4.287  10.495  0.00  0.00    +0.000 A 
ATOM      6  C   UNL     1      44.866   4.289  10.257  0.00  0.00    +0.000 A 
ATOM      7  C   UNL     1      45.652   5.120  11.077  0.00  0.00    +0.000 A 
BRANCH   6   8
ATOM      8  C   UNL     1      45.466   3.485   9.171  0.00  0.00    +0.000 A 
ATOM      9  C   UNL     1      46.031   4.063   8.024  0.00  0.00    +0.000 A 
ATOM     10  C   UNL     1      46.575   3.265   7.016  0.00  0.00    +0.000 A 
ATOM     11  C   UNL     1      46.551   1.892   7.178  0.00  0.00    +0.000 A 
ATOM     12  N   UNL     1      46.018   1.281   8.254  0.00  0.00    +0.000 NA
ATOM     13  C   UNL     1      45.489   2.087   9.208  0.00  0.00    +0.000 A 
ENDBRANCH   6   8
ENDBRANCH   1   2
BRANCH   1  14
ATOM     14  O   UNL     1      47.335   6.394  12.933  0.00  0.00    +0.000 OA
BRANCH  14  18
ATOM     15  C   UNL     1      48.041   4.744  16.641  0.00  0.00    +0.000 A 
ATOM     16  C   UNL     1      47.132   4.133  15.776  0.00  0.00    +0.000 A 
ATOM     17  C   UNL     1      46.897   4.699  14.521  0.00  0.00    +0.000 A 
ATOM     18  C   UNL     1      47.584   5.856  14.179  0.00  0.00    +0.000 A 
ATOM     19  N   UNL     1      48.464   6.468  15.001  0.00  0.00    +0.000 NA
ATOM     20  C   UNL     1      48.665   5.908  16.218  0.00  0.00    +0.000 A 
BRANCH  15  22
ATOM     21  N   UNL     1      47.690   3.124  18.416  0.00  0.00    +0.000 N 
ATOM     22  C   UNL     1      48.360   4.236  17.990  0.00  0.00    +0.000 C 
ATOM     23  O   UNL     1      49.220   4.759  18.682  0.00  0.00    +0.000 OA
ATOM     24  H   UNL     1      48.007   2.722  19.290  0.00  0.00    +0.000 HD
ATOM     25  H   UNL     1      47.180   2.521  17.785  0.00  0.00    +0.000 HD
ENDBRANCH  15  22
ENDBRANCH  14  18
ENDBRANCH   1  14
TORSDOF 5
ENDMDL
MODEL 9
REMARK VINA RESULT:    -6.729      5.411      7.922
REMARK INTER + INTRA:          -9.465
REMARK INTER:                  -8.710
REMARK INTRA:                  -0.755
REMARK UNBOUND:                -0.769
REMARK  Name = 
REMARK  5 active torsions:
REMARK  status: ('A' for Active; 'I' for Inactive)
REMARK    1  A    between atoms: C_2  and  C_4
REMARK    2  A    between atoms: C_7  and  O_8
REMARK    3  A    between atoms: O_8  and  C_9
REMARK    4  A    between atoms: C_9  and  C_10
REMARK    5  A    between atoms: C_14  and  C_15
REMARK                            x       y       z     vdW  Elec       q    Type
REMARK                         _______ _______ _______ _____ _____    ______ ____
ROOT
ATOM      1  C   UNL     1      48.745   6.491  15.868  0.00  0.00    +0.000 C 
ENDROOT
BRANCH   1   2
ATOM      2  C   UNL     1      48.246   6.657  14.449  0.00  0.00    +0.000 A 
ATOM      3  C   UNL     1      48.919   7.446  13.513  0.00  0.00    +0.000 A 
ATOM      4  C   UNL     1      48.476   7.493  12.194  0.00  0.00    +0.000 A 
ATOM      5  C   UNL     1      47.370   6.736  11.794  0.00  0.00    +0.000 A 
ATOM      6  C   UNL     1      46.680   5.907  12.697  0.00  0.00    +0.000 A 
ATOM      7  C   UNL     1      47.138   5.895  14.028  0.00  0.00    +0.000 A 
BRANCH   6   8
ATOM      8  C   UNL     1      45.551   5.059  12.261  0.00  0.00    +0.000 A 
ATOM      9  C   UNL     1      45.118   5.001  10.927  0.00  0.00    +0.000 A 
ATOM     10  C   UNL     1      44.037   4.196  10.561  0.00  0.00    +0.000 A 
ATOM     11  C   UNL     1      43.411   3.449  11.542  0.00  0.00    +0.000 A 
ATOM     12  N   UNL     1      43.779   3.466  12.837  0.00  0.00    +0.000 NA
ATOM     13  C   UNL     1      44.826   4.269  13.158  0.00  0.00    +0.000 A 
ENDBRANCH   6   8
ENDBRANCH   1   2
BRANCH   1  14
ATOM     14  O   UNL     1      48.152   5.361  16.520  0.00  0.00    +0.000 OA
BRANCH  14  18
ATOM     15  C   UNL     1      50.929   2.444  17.388  0.00  0.00    +0.000 A 
ATOM     16  C   UNL     1      49.635   2.077  17.014  0.00  0.00    +0.000 A 
ATOM     17  C   UNL     1      48.699   3.071  16.723  0.00  0.00    +0.000 A 
ATOM     18  C   UNL     1      49.095   4.398  16.815  0.00  0.00    +0.000 A 
ATOM     19  N   UNL     1      50.340   4.779  17.179  0.00  0.00    +0.000 NA
ATOM     20  C   UNL     1      51.225   3.796  17.470  0.00  0.00    +0.000 A 
BRANCH  15  22
ATOM     21  N   UNL     1      51.605   0.234  18.132  0.00  0.00    +0.000 N 
ATOM     22  C   UNL     1      51.994   1.478  17.722  0.00  0.00    +0.000 C 
ATOM     23  O   UNL     1      53.175   1.761  17.597  0.00  0.00    +0.000 OA
ATOM     24  H   UNL     1      52.346  -0.449  18.241  0.00  0.00    +0.000 HD
ATOM     25  H   UNL     1      50.666  -0.116  17.996  0.00  0.00    +0.000 HD
ENDBRANCH  15  22
ENDBRANCH  14  18
ENDBRANCH   1  14
TORSDOF 5
ENDMDL
