MODEL 1
REMARK VINA RESULT:    -8.431      0.000      0.000
REMARK INTER + INTRA:         -13.796
REMARK INTER:                 -12.620
REMARK INTRA:                  -1.177
REMARK UNBOUND:                -1.177
REMARK  Name = 
REMARK  9 active torsions:
REMARK  status: ('A' for Active; 'I' for Inactive)
REMARK    1  A    between atoms: N_1  and  C_2
REMARK    2  A    between atoms: C_2  and  C_3
REMARK    3  A    between atoms: C_3  and  N_4
REMARK    4  A    between atoms: C_3  and  C_26
REMARK    5  A    between atoms: N_4  and  C_5
REMARK    6  A    between atoms: C_5  and  C_6
REMARK    7  A    between atoms: C_9  and  C_10
REMARK    8  A    between atoms: C_10  and  N_11
REMARK    9  A    between atoms: C_12  and  C_14
REMARK                            x       y       z     vdW  Elec       q    Type
REMARK                         _______ _______ _______ _____ _____    ______ ____
ROOT
ATOM      1  C   UNL     1      44.566   5.925  11.142  0.00  0.00    +0.000 A 
ATOM      2  C   UNL     1      45.892   5.890  10.718  0.00  0.00    +0.000 A 
ATOM      3  C   UNL     1      46.841   6.634  11.410  0.00  0.00    +0.000 A 
ATOM      4  C   UNL     1      46.444   7.414  12.497  0.00  0.00    +0.000 A 
ATOM      5  C   UNL     1      45.100   7.380  12.856  0.00  0.00    +0.000 A 
ATOM      6  N   UNL     1      44.156   6.657  12.210  0.00  0.00    +0.000 NA
ENDROOT
BRANCH   1   7
ATOM      7  C   UNL     1      43.515   5.125  10.393  0.00  0.00    +0.000 C 
BRANCH   7   8
ATOM      8  N   UNL     1      44.089   4.501   9.201  0.00  0.00    +0.000 NA
ATOM      9  H   UNL     1      43.442   4.705   8.435  0.00  0.00    +0.000 HD
BRANCH   8  10
ATOM     10  C   UNL     1      44.241   3.031   9.301  0.00  0.00    +0.000 C 
BRANCH  10  11
ATOM     11  C   UNL     1      45.437   2.561   8.454  0.00  0.00    +0.000 A 
ATOM     12  C   UNL     1      46.146   3.464   7.656  0.00  0.00    +0.000 A 
ATOM     13  C   UNL     1      47.210   3.006   6.886  0.00  0.00    +0.000 A 
ATOM     14  C   UNL     1      47.557   1.664   6.941  0.00  0.00    +0.000 A 
ATOM     15  C   UNL     1      46.820   0.834   7.769  0.00  0.00    +0.000 A 
ATOM     16  N   UNL     1      45.776   1.247   8.526  0.00  0.00    +0.000 NA
ENDBRANCH  10  11
BRANCH  10  17
ATOM     17  C   UNL     1      44.441   2.474  10.749  0.00  0.00    +0.000 C 
BRANCH  17  18
ATOM     18  N   UNL     1      43.220   2.053  11.460  0.00  0.00    +0.000 NA
ATOM     19  H   UNL     1      42.619   2.864  11.598  0.00  0.00    +0.000 HD
ATOM     20  H   UNL     1      43.470   1.708  12.385  0.00  0.00    +0.000 HD
ENDBRANCH  17  18
ENDBRANCH  10  17
ENDBRANCH   8  10
ENDBRANCH   7   8
ENDBRANCH   1   7
BRANCH   4  21
ATOM     21  C   UNL     1      47.440   8.189  13.306  0.00  0.00    +0.000 C 
BRANCH  21  22
ATOM     22  N   UNL     1      47.765   7.465  14.507  0.00  0.00    +0.000 N 
ATOM     23  C   UNL     1      49.014   6.958  14.742  0.00  0.00    +0.000 C 
ATOM     24  O   UNL     1      49.944   7.116  13.958  0.00  0.00    +0.000 OA
ATOM     25  H   UNL     1      46.981   7.113  15.047  0.00  0.00    +0.000 HD
BRANCH  23  26
ATOM     26  C   UNL     1      49.191   6.276  16.030  0.00  0.00    +0.000 A 
ATOM     27  C   UNL     1      50.142   6.734  16.931  0.00  0.00    +0.000 A 
ATOM     28  S   UNL     1      50.150   5.878  18.407  0.00  0.00    +0.000 S 
ATOM     29  C   UNL     1      48.917   4.834  17.873  0.00  0.00    +0.000 A 
ATOM     30  N   UNL     1      48.446   3.837  18.670  0.00  0.00    +0.000 NA
ATOM     31  C   UNL     1      47.531   3.108  18.128  0.00  0.00    +0.000 A 
ATOM     32  N   UNL     1      47.037   3.282  16.862  0.00  0.00    +0.000 N 
ATOM     33  C   UNL     1      47.468   4.286  16.025  0.00  0.00    +0.000 A 
ATOM     34  O   UNL     1      46.986   4.431  14.909  0.00  0.00    +0.000 OA
ATOM     35  C   UNL     1      48.501   5.138  16.589  0.00  0.00    +0.000 A 
ATOM     36  H   UNL     1      46.317   2.676  16.503  0.00  0.00    +0.000 HD
ENDBRANCH  23  26
ENDBRANCH  21  22
ENDBRANCH   4  21
TORSDOF 9
ENDMDL
MODEL 2
REMARK VINA RESULT:    -7.652      1.398      1.472
REMARK INTER + INTRA:         -12.632
REMARK INTER:                 -11.279
REMARK INTRA:                  -1.353
REMARK UNBOUND:                -1.177
REMARK  Name = 
REMARK  9 active torsions:
REMARK  status: ('A' for Active; 'I' for Inactive)
REMARK    1  A    between atoms: N_1  and  C_2
REMARK    2  A    between atoms: C_2  and  C_3
REMARK    3  A    between atoms: C_3  and  N_4
REMARK    4  A    between atoms: C_3  and  C_26
REMARK    5  A    between atoms: N_4  and  C_5
REMARK    6  A    between atoms: C_5  and  C_6
REMARK    7  A    between atoms: C_9  and  C_10
REMARK    8  A    between atoms: C_10  and  N_11
REMARK    9  A    between atoms: C_12  and  C_14
REMARK                            x       y       z     vdW  Elec       q    Type
REMARK                         _______ _______ _______ _____ _____    ______ ____
ROOT
ATOM      1  C   UNL     1      44.900   6.422  12.012  0.00  0.00    +0.000 A 
ATOM      2  C   UNL     1      45.937   5.649  12.529  0.00  0.00    +0.000 A 
ATOM      3  C   UNL     1      47.085   6.284  12.991  0.00  0.00    +0.000 A 
ATOM      4  C   UNL     1      47.183   7.673  12.908  0.00  0.00    +0.000 A 
ATOM      5  C   UNL     1      46.094   8.365  12.387  0.00  0.00    +0.000 A 
ATOM      6  N   UNL     1      44.960   7.777  11.941  0.00  0.00    +0.000 NA
ENDROOT
BRANCH   1   7
ATOM      7  C   UNL     1      43.643   5.746  11.495  0.00  0.00    +0.000 C 
BRANCH   7   8
ATOM      8  N   UNL     1      43.849   5.231  10.141  0.00  0.00    +0.000 NA
ATOM      9  H   UNL     1      43.102   5.633   9.569  0.00  0.00    +0.000 HD
BRANCH   8  10
ATOM     10  C   UNL     1      43.772   3.757  10.035  0.00  0.00    +0.000 C 
BRANCH  10  11
ATOM     11  C   UNL     1      44.857   3.234   9.077  0.00  0.00    +0.000 A 
ATOM     12  C   UNL     1      45.548   4.110   8.235  0.00  0.00    +0.000 A 
ATOM     13  C   UNL     1      46.510   3.606   7.365  0.00  0.00    +0.000 A 
ATOM     14  C   UNL     1      46.775   2.245   7.365  0.00  0.00    +0.000 A 
ATOM     15  C   UNL     1      46.063   1.442   8.241  0.00  0.00    +0.000 A 
ATOM     16  N   UNL     1      45.118   1.901   9.094  0.00  0.00    +0.000 NA
ENDBRANCH  10  11
BRANCH  10  17
ATOM     17  C   UNL     1      43.921   2.978  11.384  0.00  0.00    +0.000 C 
BRANCH  17  18
ATOM     18  N   UNL     1      42.984   1.861  11.599  0.00  0.00    +0.000 NA
ATOM     19  H   UNL     1      42.824   1.748  12.599  0.00  0.00    +0.000 HD
ATOM     20  H   UNL     1      43.407   0.996  11.268  0.00  0.00    +0.000 HD
ENDBRANCH  17  18
ENDBRANCH  10  17
ENDBRANCH   8  10
ENDBRANCH   7   8
ENDBRANCH   1   7
BRANCH   4  21
ATOM     21  C   UNL     1      48.378   8.404  13.443  0.00  0.00    +0.000 C 
BRANCH  21  22
ATOM     22  N   UNL     1      49.174   7.516  14.249  0.00  0.00    +0.000 N 
ATOM     23  C   UNL     1      49.229   7.614  15.613  0.00  0.00    +0.000 C 
ATOM     24  O   UNL     1      48.576   8.445  16.237  0.00  0.00    +0.000 OA
ATOM     25  H   UNL     1      49.896   6.993  13.764  0.00  0.00    +0.000 HD
BRANCH  23  26
ATOM     26  C   UNL     1      50.060   6.612  16.290  0.00  0.00    +0.000 A 
ATOM     27  C   UNL     1      51.389   6.891  16.573  0.00  0.00    +0.000 A 
ATOM     28  S   UNL     1      52.178   5.651  17.439  0.00  0.00    +0.000 S 
ATOM     29  C   UNL     1      50.783   4.675  17.421  0.00  0.00    +0.000 A 
ATOM     30  N   UNL     1      50.780   3.444  17.999  0.00  0.00    +0.000 NA
ATOM     31  C   UNL     1      49.664   2.806  17.889  0.00  0.00    +0.000 A 
ATOM     32  N   UNL     1      48.547   3.284  17.256  0.00  0.00    +0.000 N 
ATOM     33  C   UNL     1      48.496   4.530  16.672  0.00  0.00    +0.000 A 
ATOM     34  O   UNL     1      47.473   4.938  16.138  0.00  0.00    +0.000 OA
ATOM     35  C   UNL     1      49.729   5.290  16.769  0.00  0.00    +0.000 A 
ATOM     36  H   UNL     1      47.706   2.732  17.210  0.00  0.00    +0.000 HD
ENDBRANCH  23  26
ENDBRANCH  21  22
ENDBRANCH   4  21
TORSDOF 9
ENDMDL
MODEL 3
REMARK VINA RESULT:    -7.286      2.800      7.932
REMARK INTER + INTRA:         -12.084
REMARK INTER:                 -10.609
REMARK INTRA:                  -1.474
REMARK UNBOUND:                -1.177
REMARK  Name = 
REMARK  9 active torsions:
REMARK  status: ('A' for Active; 'I' for Inactive)
REMARK    1  A    between atoms: N_1  and  C_2
REMARK    2  A    between atoms: C_2  and  C_3
REMARK    3  A    between atoms: C_3  and  N_4
REMARK    4  A    between atoms: C_3  and  C_26
REMARK    5  A    between atoms: N_4  and  C_5
REMARK    6  A    between atoms: C_5  and  C_6
REMARK    7  A    between atoms: C_9  and  C_10
REMARK    8  A    between atoms: C_10  and  N_11
REMARK    9  A    between atoms: C_12  and  C_14
REMARK                            x       y       z     vdW  Elec       q    Type
REMARK                         _______ _______ _______ _____ _____    ______ ____
ROOT
ATOM      1  C   UNL     1      49.453   8.146  15.701  0.00  0.00    +0.000 A 
ATOM      2  C   UNL     1      48.452   9.049  15.348  0.00  0.00    +0.000 A 
ATOM      3  C   UNL     1      47.911   8.990  14.068  0.00  0.00    +0.000 A 
ATOM      4  C   UNL     1      48.393   8.046  13.160  0.00  0.00    +0.000 A 
ATOM      5  C   UNL     1      49.387   7.178  13.603  0.00  0.00    +0.000 A 
ATOM      6  N   UNL     1      49.924   7.203  14.844  0.00  0.00    +0.000 NA
ENDROOT
BRANCH   1   7
ATOM      7  C   UNL     1      50.060   8.201  17.090  0.00  0.00    +0.000 C 
BRANCH   7   8
ATOM      8  N   UNL     1      49.924   6.913  17.769  0.00  0.00    +0.000 NA
ATOM      9  H   UNL     1      50.632   6.299  17.356  0.00  0.00    +0.000 HD
BRANCH   8  10
ATOM     10  C   UNL     1      48.599   6.274  17.595  0.00  0.00    +0.000 C 
BRANCH  10  11
ATOM     11  C   UNL     1      48.767   4.781  17.262  0.00  0.00    +0.000 A 
ATOM     12  C   UNL     1      49.873   4.064  17.731  0.00  0.00    +0.000 A 
ATOM     13  C   UNL     1      50.008   2.721  17.396  0.00  0.00    +0.000 A 
ATOM     14  C   UNL     1      49.032   2.116  16.618  0.00  0.00    +0.000 A 
ATOM     15  C   UNL     1      47.957   2.885  16.207  0.00  0.00    +0.000 A 
ATOM     16  N   UNL     1      47.799   4.195  16.510  0.00  0.00    +0.000 NA
ENDBRANCH  10  11
BRANCH  10  17
ATOM     17  C   UNL     1      47.639   6.376  18.827  0.00  0.00    +0.000 C 
BRANCH  17  18
ATOM     18  N   UNL     1      46.483   5.461  18.830  0.00  0.00    +0.000 NA
ATOM     19  H   UNL     1      46.793   4.533  19.115  0.00  0.00    +0.000 HD
ATOM     20  H   UNL     1      46.119   5.373  17.883  0.00  0.00    +0.000 HD
ENDBRANCH  17  18
ENDBRANCH  10  17
ENDBRANCH   8  10
ENDBRANCH   7   8
ENDBRANCH   1   7
BRANCH   4  21
ATOM     21  C   UNL     1      47.804   7.910  11.789  0.00  0.00    +0.000 C 
BRANCH  21  22
ATOM     22  N   UNL     1      47.046   6.689  11.702  0.00  0.00    +0.000 N 
ATOM     23  C   UNL     1      45.678   6.671  11.735  0.00  0.00    +0.000 C 
ATOM     24  O   UNL     1      45.011   7.698  11.811  0.00  0.00    +0.000 OA
ATOM     25  H   UNL     1      47.554   5.829  11.883  0.00  0.00    +0.000 HD
BRANCH  23  26
ATOM     26  C   UNL     1      45.055   5.349  11.600  0.00  0.00    +0.000 A 
ATOM     27  C   UNL     1      44.393   4.781  12.679  0.00  0.00    +0.000 A 
ATOM     28  S   UNL     1      43.656   3.286  12.316  0.00  0.00    +0.000 S 
ATOM     29  C   UNL     1      44.241   3.321  10.718  0.00  0.00    +0.000 A 
ATOM     30  N   UNL     1      43.972   2.309   9.850  0.00  0.00    +0.000 NA
ATOM     31  C   UNL     1      44.499   2.456   8.681  0.00  0.00    +0.000 A 
ATOM     32  N   UNL     1      45.268   3.522   8.296  0.00  0.00    +0.000 N 
ATOM     33  C   UNL     1      45.553   4.577   9.133  0.00  0.00    +0.000 A 
ATOM     34  O   UNL     1      46.221   5.528   8.748  0.00  0.00    +0.000 OA
ATOM     35  C   UNL     1      44.982   4.461  10.463  0.00  0.00    +0.000 A 
ATOM     36  H   UNL     1      45.645   3.573   7.364  0.00  0.00    +0.000 HD
ENDBRANCH  23  26
ENDBRANCH  21  22
ENDBRANCH   4  21
TORSDOF 9
ENDMDL
MODEL 4
REMARK VINA RESULT:    -7.286      1.996      2.561
REMARK INTER + INTRA:         -12.084
REMARK INTER:                 -10.876
REMARK INTRA:                  -1.208
REMARK UNBOUND:                -1.177
REMARK  Name = 
REMARK  9 active torsions:
REMARK  status: ('A' for Active; 'I' for Inactive)
REMARK    1  A    between atoms: N_1  and  C_2
REMARK    2  A    between atoms: C_2  and  C_3
REMARK    3  A    between atoms: C_3  and  N_4
REMARK    4  A    between atoms: C_3  and  C_26
REMARK    5  A    between atoms: N_4  and  C_5
REMARK    6  A    between atoms: C_5  and  C_6
REMARK    7  A    between atoms: C_9  and  C_10
REMARK    8  A    between atoms: C_10  and  N_11
REMARK    9  A    between atoms: C_12  and  C_14
REMARK                            x       y       z     vdW  Elec       q    Type
REMARK                         _______ _______ _______ _____ _____    ______ ____
ROOT
ATOM      1  C   UNL     1      44.835   6.341  12.227  0.00  0.00    +0.000 A 
ATOM      2  C   UNL     1      45.675   5.497  12.951  0.00  0.00    +0.000 A 
ATOM      3  C   UNL     1      46.869   6.004  13.453  0.00  0.00    +0.000 A 
ATOM      4  C   UNL     1      47.211   7.334  13.203  0.00  0.00    +0.000 A 
ATOM      5  C   UNL     1      46.306   8.105  12.479  0.00  0.00    +0.000 A 
ATOM      6  N   UNL     1      45.133   7.645  11.989  0.00  0.00    +0.000 NA
ENDROOT
BRANCH   1   7
ATOM      7  C   UNL     1      43.532   5.803  11.665  0.00  0.00    +0.000 C 
BRANCH   7   8
ATOM      8  N   UNL     1      43.719   5.311  10.300  0.00  0.00    +0.000 NA
ATOM      9  H   UNL     1      42.949   5.703   9.750  0.00  0.00    +0.000 HD
BRANCH   8  10
ATOM     10  C   UNL     1      43.673   3.836  10.175  0.00  0.00    +0.000 C 
BRANCH  10  11
ATOM     11  C   UNL     1      44.758   3.350   9.199  0.00  0.00    +0.000 A 
ATOM     12  C   UNL     1      45.444   4.256   8.384  0.00  0.00    +0.000 A 
ATOM     13  C   UNL     1      46.406   3.785   7.497  0.00  0.00    +0.000 A 
ATOM     14  C   UNL     1      46.677   2.426   7.452  0.00  0.00    +0.000 A 
ATOM     15  C   UNL     1      45.971   1.592   8.303  0.00  0.00    +0.000 A 
ATOM     16  N   UNL     1      45.025   2.018   9.173  0.00  0.00    +0.000 NA
ENDBRANCH  10  11
BRANCH  10  17
ATOM     17  C   UNL     1      43.854   3.044  11.513  0.00  0.00    +0.000 C 
BRANCH  17  18
ATOM     18  N   UNL     1      42.966   1.883  11.708  0.00  0.00    +0.000 NA
ATOM     19  H   UNL     1      42.011   2.152  11.475  0.00  0.00    +0.000 HD
ATOM     20  H   UNL     1      42.967   1.618  12.690  0.00  0.00    +0.000 HD
ENDBRANCH  17  18
ENDBRANCH  10  17
ENDBRANCH   8  10
ENDBRANCH   7   8
ENDBRANCH   1   7
BRANCH   4  21
ATOM     21  C   UNL     1      48.460   7.938  13.769  0.00  0.00    +0.000 C 
BRANCH  21  22
ATOM     22  N   UNL     1      48.916   7.160  14.891  0.00  0.00    +0.000 N 
ATOM     23  C   UNL     1      48.827   7.610  16.180  0.00  0.00    +0.000 C 
ATOM     24  O   UNL     1      48.324   8.693  16.462  0.00  0.00    +0.000 OA
ATOM     25  H   UNL     1      49.543   6.390  14.681  0.00  0.00    +0.000 HD
BRANCH  23  26
ATOM     26  C   UNL     1      49.303   6.682  17.213  0.00  0.00    +0.000 A 
ATOM     27  C   UNL     1      48.438   6.250  18.207  0.00  0.00    +0.000 A 
ATOM     28  S   UNL     1      49.135   5.109  19.268  0.00  0.00    +0.000 S 
ATOM     29  C   UNL     1      50.633   5.193  18.464  0.00  0.00    +0.000 A 
ATOM     30  N   UNL     1      51.695   4.453  18.880  0.00  0.00    +0.000 NA
ATOM     31  C   UNL     1      52.773   4.634  18.195  0.00  0.00    +0.000 A 
ATOM     32  N   UNL     1      52.889   5.486  17.128  0.00  0.00    +0.000 N 
ATOM     33  C   UNL     1      51.839   6.242  16.659  0.00  0.00    +0.000 A 
ATOM     34  O   UNL     1      51.969   6.973  15.686  0.00  0.00    +0.000 OA
ATOM     35  C   UNL     1      50.600   6.074  17.398  0.00  0.00    +0.000 A 
ATOM     36  H   UNL     1      53.762   5.575  16.635  0.00  0.00    +0.000 HD
ENDBRANCH  23  26
ENDBRANCH  21  22
ENDBRANCH   4  21
TORSDOF 9
ENDMDL
MODEL 5
REMARK VINA RESULT:    -7.148      1.700      2.249
REMARK INTER + INTRA:         -11.876
REMARK INTER:                 -10.744
REMARK INTRA:                  -1.133
REMARK UNBOUND:                -1.177
REMARK  Name = 
REMARK  9 active torsions:
REMARK  status: ('A' for Active; 'I' for Inactive)
REMARK    1  A    between atoms: N_1  and  C_2
REMARK    2  A    between atoms: C_2  and  C_3
REMARK    3  A    between atoms: C_3  and  N_4
REMARK    4  A    between atoms: C_3  and  C_26
REMARK    5  A    between atoms: N_4  and  C_5
REMARK    6  A    between atoms: C_5  and  C_6
REMARK    7  A    between atoms: C_9  and  C_10
REMARK    8  A    between atoms: C_10  and  N_11
REMARK    9  A    between atoms: C_12  and  C_14
REMARK                            x       y       z     vdW  Elec       q    Type
REMARK                         _______ _______ _______ _____ _____    ______ ____
ROOT
ATOM      1  C   UNL     1      45.438   4.095  12.697  0.00  0.00    +0.000 A 
ATOM      2  C   UNL     1      46.647   3.715  13.277  0.00  0.00    +0.000 A 
ATOM      3  C   UNL     1      47.527   4.701  13.708  0.00  0.00    +0.000 A 
ATOM      4  C   UNL     1      47.194   6.045  13.532  0.00  0.00    +0.000 A 
ATOM      5  C   UNL     1      45.962   6.331  12.953  0.00  0.00    +0.000 A 
ATOM      6  N   UNL     1      45.079   5.395  12.535  0.00  0.00    +0.000 NA
ENDROOT
BRANCH   1   7
ATOM      7  C   UNL     1      44.469   3.032  12.214  0.00  0.00    +0.000 C 
BRANCH   7   8
ATOM      8  N   UNL     1      44.848   2.549  10.886  0.00  0.00    +0.000 NA
ATOM      9  H   UNL     1      45.738   2.058  11.007  0.00  0.00    +0.000 HD
BRANCH   8  10
ATOM     10  C   UNL     1      45.042   3.620   9.883  0.00  0.00    +0.000 C 
BRANCH  10  11
ATOM     11  C   UNL     1      45.739   3.059   8.632  0.00  0.00    +0.000 A 
ATOM     12  C   UNL     1      46.012   1.692   8.518  0.00  0.00    +0.000 A 
ATOM     13  C   UNL     1      46.661   1.217   7.384  0.00  0.00    +0.000 A 
ATOM     14  C   UNL     1      47.008   2.108   6.379  0.00  0.00    +0.000 A 
ATOM     15  C   UNL     1      46.688   3.444   6.554  0.00  0.00    +0.000 A 
ATOM     16  N   UNL     1      46.062   3.939   7.648  0.00  0.00    +0.000 NA
ENDBRANCH  10  11
BRANCH  10  17
ATOM     17  C   UNL     1      43.736   4.342   9.411  0.00  0.00    +0.000 C 
BRANCH  17  18
ATOM     18  N   UNL     1      43.300   5.496  10.219  0.00  0.00    +0.000 NA
ATOM     19  H   UNL     1      42.295   5.619  10.108  0.00  0.00    +0.000 HD
ATOM     20  H   UNL     1      43.743   6.342   9.865  0.00  0.00    +0.000 HD
ENDBRANCH  17  18
ENDBRANCH  10  17
ENDBRANCH   8  10
ENDBRANCH   7   8
ENDBRANCH   1   7
BRANCH   4  21
ATOM     21  C   UNL     1      48.087   7.142  14.029  0.00  0.00    +0.000 C 
BRANCH  21  22
ATOM     22  N   UNL     1      48.319   6.982  15.441  0.00  0.00    +0.000 N 
ATOM     23  C   UNL     1      49.576   6.976  15.981  0.00  0.00    +0.000 C 
ATOM     24  O   UNL     1      50.583   7.139  15.299  0.00  0.00    +0.000 OA
ATOM     25  H   UNL     1      47.548   6.608  15.985  0.00  0.00    +0.000 HD
BRANCH  23  26
ATOM     26  C   UNL     1      49.641   6.838  17.441  0.00  0.00    +0.000 A 
ATOM     27  C   UNL     1      50.104   7.891  18.216  0.00  0.00    +0.000 A 
ATOM     28  S   UNL     1      50.027   7.588  19.893  0.00  0.00    +0.000 S 
ATOM     29  C   UNL     1      49.421   6.018  19.639  0.00  0.00    +0.000 A 
ATOM     30  N   UNL     1      49.140   5.195  20.685  0.00  0.00    +0.000 NA
ATOM     31  C   UNL     1      48.711   4.027  20.345  0.00  0.00    +0.000 A 
ATOM     32  N   UNL     1      48.534   3.603  19.055  0.00  0.00    +0.000 N 
ATOM     33  C   UNL     1      48.787   4.403  17.964  0.00  0.00    +0.000 A 
ATOM     34  O   UNL     1      48.591   4.002  16.824  0.00  0.00    +0.000 OA
ATOM     35  C   UNL     1      49.273   5.732  18.293  0.00  0.00    +0.000 A 
ATOM     36  H   UNL     1      48.191   2.676  18.861  0.00  0.00    +0.000 HD
ENDBRANCH  23  26
ENDBRANCH  21  22
ENDBRANCH   4  21
TORSDOF 9
ENDMDL
MODEL 6
REMARK VINA RESULT:    -7.125      3.098      7.903
REMARK INTER + INTRA:         -11.842
REMARK INTER:                 -10.439
REMARK INTRA:                  -1.403
REMARK UNBOUND:                -1.177
REMARK  Name = 
REMARK  9 active torsions:
REMARK  status: ('A' for Active; 'I' for Inactive)
REMARK    1  A    between atoms: N_1  and  C_2
REMARK    2  A    between atoms: C_2  and  C_3
REMARK    3  A    between atoms: C_3  and  N_4
REMARK    4  A    between atoms: C_3  and  C_26
REMARK    5  A    between atoms: N_4  and  C_5
REMARK    6  A    between atoms: C_5  and  C_6
REMARK    7  A    between atoms: C_9  and  C_10
REMARK    8  A    between atoms: C_10  and  N_11
REMARK    9  A    between atoms: C_12  and  C_14
REMARK                            x       y       z     vdW  Elec       q    Type
REMARK                         _______ _______ _______ _____ _____    ______ ____
ROOT
ATOM      1  C   UNL     1      48.848   7.355  16.248  0.00  0.00    +0.000 A 
ATOM      2  C   UNL     1      48.298   8.583  15.886  0.00  0.00    +0.000 A 
ATOM      3  C   UNL     1      48.103   8.862  14.538  0.00  0.00    +0.000 A 
ATOM      4  C   UNL     1      48.479   7.922  13.578  0.00  0.00    +0.000 A 
ATOM      5  C   UNL     1      49.010   6.718  14.032  0.00  0.00    +0.000 A 
ATOM      6  N   UNL     1      49.202   6.412  15.336  0.00  0.00    +0.000 NA
ENDROOT
BRANCH   1   7
ATOM      7  C   UNL     1      49.076   7.035  17.714  0.00  0.00    +0.000 C 
BRANCH   7   8
ATOM      8  N   UNL     1      47.803   6.866  18.413  0.00  0.00    +0.000 NA
ATOM      9  H   UNL     1      47.763   7.612  19.113  0.00  0.00    +0.000 HD
BRANCH   8  10
ATOM     10  C   UNL     1      47.662   5.568  19.111  0.00  0.00    +0.000 C 
BRANCH  10  11
ATOM     11  C   UNL     1      48.163   4.423  18.214  0.00  0.00    +0.000 A 
ATOM     12  C   UNL     1      47.344   3.887  17.216  0.00  0.00    +0.000 A 
ATOM     13  C   UNL     1      47.817   2.839  16.433  0.00  0.00    +0.000 A 
ATOM     14  C   UNL     1      49.100   2.359  16.649  0.00  0.00    +0.000 A 
ATOM     15  C   UNL     1      49.860   2.953  17.643  0.00  0.00    +0.000 A 
ATOM     16  N   UNL     1      49.426   3.970  18.425  0.00  0.00    +0.000 NA
ENDBRANCH  10  11
BRANCH  10  17
ATOM     17  C   UNL     1      48.413   5.458  20.480  0.00  0.00    +0.000 C 
BRANCH  17  18
ATOM     18  N   UNL     1      48.376   4.140  21.139  0.00  0.00    +0.000 NA
ATOM     19  H   UNL     1      48.907   3.473  20.580  0.00  0.00    +0.000 HD
ATOM     20  H   UNL     1      47.416   3.803  21.168  0.00  0.00    +0.000 HD
ENDBRANCH  17  18
ENDBRANCH  10  17
ENDBRANCH   8  10
ENDBRANCH   7   8
ENDBRANCH   1   7
BRANCH   4  21
ATOM     21  C   UNL     1      48.237   8.157  12.118  0.00  0.00    +0.000 C 
BRANCH  21  22
ATOM     22  N   UNL     1      47.512   7.048  11.557  0.00  0.00    +0.000 N 
ATOM     23  C   UNL     1      46.148   7.039  11.455  0.00  0.00    +0.000 C 
ATOM     24  O   UNL     1      45.458   7.991  11.808  0.00  0.00    +0.000 OA
ATOM     25  H   UNL     1      48.016   6.170  11.486  0.00  0.00    +0.000 HD
BRANCH  23  26
ATOM     26  C   UNL     1      45.564   5.848  10.827  0.00  0.00    +0.000 A 
ATOM     27  C   UNL     1      45.751   5.617   9.472  0.00  0.00    +0.000 A 
ATOM     28  S   UNL     1      45.079   4.145   8.932  0.00  0.00    +0.000 S 
ATOM     29  C   UNL     1      44.470   3.790  10.482  0.00  0.00    +0.000 A 
ATOM     30  N   UNL     1      43.767   2.649  10.715  0.00  0.00    +0.000 NA
ATOM     31  C   UNL     1      43.346   2.521  11.928  0.00  0.00    +0.000 A 
ATOM     32  N   UNL     1      43.563   3.427  12.933  0.00  0.00    +0.000 N 
ATOM     33  C   UNL     1      44.283   4.586  12.750  0.00  0.00    +0.000 A 
ATOM     34  O   UNL     1      44.482   5.360  13.676  0.00  0.00    +0.000 OA
ATOM     35  C   UNL     1      44.781   4.777  11.399  0.00  0.00    +0.000 A 
ATOM     36  H   UNL     1      43.207   3.261  13.860  0.00  0.00    +0.000 HD
ENDBRANCH  23  26
ENDBRANCH  21  22
ENDBRANCH   4  21
TORSDOF 9
ENDMDL
MODEL 7
REMARK VINA RESULT:    -6.932      5.132      9.837
REMARK INTER + INTRA:         -11.553
REMARK INTER:                 -10.669
REMARK INTRA:                  -0.884
REMARK UNBOUND:                -1.177
REMARK  Name = 
REMARK  9 active torsions:
REMARK  status: ('A' for Active; 'I' for Inactive)
REMARK    1  A    between atoms: N_1  and  C_2
REMARK    2  A    between atoms: C_2  and  C_3
REMARK    3  A    between atoms: C_3  and  N_4
REMARK    4  A    between atoms: C_3  and  C_26
REMARK    5  A    between atoms: N_4  and  C_5
REMARK    6  A    between atoms: C_5  and  C_6
REMARK    7  A    between atoms: C_9  and  C_10
REMARK    8  A    between atoms: C_10  and  N_11
REMARK    9  A    between atoms: C_12  and  C_14
REMARK                            x       y       z     vdW  Elec       q    Type
REMARK                         _______ _______ _______ _____ _____    ______ ____
ROOT
ATOM      1  C   UNL     1      51.346   2.586  17.542  0.00  0.00    +0.000 A 
ATOM      2  C   UNL     1      50.862   3.807  18.007  0.00  0.00    +0.000 A 
ATOM      3  C   UNL     1      49.525   4.126  17.795  0.00  0.00    +0.000 A 
ATOM      4  C   UNL     1      48.705   3.231  17.106  0.00  0.00    +0.000 A 
ATOM      5  C   UNL     1      49.272   2.031  16.688  0.00  0.00    +0.000 A 
ATOM      6  N   UNL     1      50.564   1.687  16.889  0.00  0.00    +0.000 NA
ENDROOT
BRANCH   1   7
ATOM      7  C   UNL     1      52.804   2.224  17.757  0.00  0.00    +0.000 C 
BRANCH   7   8
ATOM      8  N   UNL     1      52.928   0.888  18.338  0.00  0.00    +0.000 NA
ATOM      9  H   UNL     1      52.773   1.000  19.344  0.00  0.00    +0.000 HD
BRANCH   8  10
ATOM     10  C   UNL     1      54.255   0.261  18.141  0.00  0.00    +0.000 C 
BRANCH  10  11
ATOM     11  C   UNL     1      54.287  -1.133  18.791  0.00  0.00    +0.000 A 
ATOM     12  C   UNL     1      55.485  -1.849  18.887  0.00  0.00    +0.000 A 
ATOM     13  C   UNL     1      55.481  -3.115  19.462  0.00  0.00    +0.000 A 
ATOM     14  C   UNL     1      54.289  -3.636  19.944  0.00  0.00    +0.000 A 
ATOM     15  C   UNL     1      53.147  -2.860  19.831  0.00  0.00    +0.000 A 
ATOM     16  N   UNL     1      53.117  -1.628  19.272  0.00  0.00    +0.000 NA
ENDBRANCH  10  11
BRANCH  10  17
ATOM     17  C   UNL     1      54.704   0.097  16.651  0.00  0.00    +0.000 C 
BRANCH  17  18
ATOM     18  N   UNL     1      53.969  -0.903  15.855  0.00  0.00    +0.000 NA
ATOM     19  H   UNL     1      53.666  -1.659  16.467  0.00  0.00    +0.000 HD
ATOM     20  H   UNL     1      54.596  -1.313  15.165  0.00  0.00    +0.000 HD
ENDBRANCH  17  18
ENDBRANCH  10  17
ENDBRANCH   8  10
ENDBRANCH   7   8
ENDBRANCH   1   7
BRANCH   4  21
ATOM     21  C   UNL     1      47.246   3.509  16.902  0.00  0.00    +0.000 C 
BRANCH  21  22
ATOM     22  N   UNL     1      47.077   4.536  15.908  0.00  0.00    +0.000 N 
ATOM     23  C   UNL     1      47.096   4.269  14.566  0.00  0.00    +0.000 C 
ATOM     24  O   UNL     1      47.227   3.130  14.127  0.00  0.00    +0.000 OA
ATOM     25  H   UNL     1      47.211   5.492  16.221  0.00  0.00    +0.000 HD
BRANCH  23  26
ATOM     26  C   UNL     1      46.875   5.421  13.685  0.00  0.00    +0.000 A 
ATOM     27  C   UNL     1      47.913   6.305  13.427  0.00  0.00    +0.000 A 
ATOM     28  S   UNL     1      47.503   7.532  12.314  0.00  0.00    +0.000 S 
ATOM     29  C   UNL     1      45.908   6.953  12.178  0.00  0.00    +0.000 A 
ATOM     30  N   UNL     1      45.004   7.570  11.370  0.00  0.00    +0.000 NA
ATOM     31  C   UNL     1      43.829   7.038  11.382  0.00  0.00    +0.000 A 
ATOM     32  N   UNL     1      43.470   5.944  12.125  0.00  0.00    +0.000 N 
ATOM     33  C   UNL     1      44.354   5.276  12.943  0.00  0.00    +0.000 A 
ATOM     34  O   UNL     1      44.009   4.285  13.573  0.00  0.00    +0.000 OA
ATOM     35  C   UNL     1      45.694   5.835  12.965  0.00  0.00    +0.000 A 
ATOM     36  H   UNL     1      42.533   5.579  12.084  0.00  0.00    +0.000 HD
ENDBRANCH  23  26
ENDBRANCH  21  22
ENDBRANCH   4  21
TORSDOF 9
ENDMDL
MODEL 8
REMARK VINA RESULT:    -6.693      5.096      9.353
REMARK INTER + INTRA:         -11.195
REMARK INTER:                 -10.142
REMARK INTRA:                  -1.053
REMARK UNBOUND:                -1.177
REMARK  Name = 
REMARK  9 active torsions:
REMARK  status: ('A' for Active; 'I' for Inactive)
REMARK    1  A    between atoms: N_1  and  C_2
REMARK    2  A    between atoms: C_2  and  C_3
REMARK    3  A    between atoms: C_3  and  N_4
REMARK    4  A    between atoms: C_3  and  C_26
REMARK    5  A    between atoms: N_4  and  C_5
REMARK    6  A    between atoms: C_5  and  C_6
REMARK    7  A    between atoms: C_9  and  C_10
REMARK    8  A    between atoms: C_10  and  N_11
REMARK    9  A    between atoms: C_12  and  C_14
REMARK                            x       y       z     vdW  Elec       q    Type
REMARK                         _______ _______ _______ _____ _____    ______ ____
ROOT
ATOM      1  C   UNL     1      51.128   2.374  17.378  0.00  0.00    +0.000 A 
ATOM      2  C   UNL     1      51.767   3.590  17.612  0.00  0.00    +0.000 A 
ATOM      3  C   UNL     1      51.018   4.761  17.585  0.00  0.00    +0.000 A 
ATOM      4  C   UNL     1      49.653   4.698  17.303  0.00  0.00    +0.000 A 
ATOM      5  C   UNL     1      49.097   3.439  17.092  0.00  0.00    +0.000 A 
ATOM      6  N   UNL     1      49.797   2.282  17.124  0.00  0.00    +0.000 NA
ENDROOT
BRANCH   1   7
ATOM      7  C   UNL     1      51.932   1.086  17.396  0.00  0.00    +0.000 C 
BRANCH   7   8
ATOM      8  N   UNL     1      52.809   1.038  18.565  0.00  0.00    +0.000 NA
ATOM      9  H   UNL     1      52.831   1.989  18.942  0.00  0.00    +0.000 HD
BRANCH   8  10
ATOM     10  C   UNL     1      54.199   0.627  18.264  0.00  0.00    +0.000 C 
BRANCH  10  11
ATOM     11  C   UNL     1      54.311  -0.908  18.252  0.00  0.00    +0.000 A 
ATOM     12  C   UNL     1      54.940  -1.570  17.194  0.00  0.00    +0.000 A 
ATOM     13  C   UNL     1      55.008  -2.960  17.201  0.00  0.00    +0.000 A 
ATOM     14  C   UNL     1      54.466  -3.658  18.270  0.00  0.00    +0.000 A 
ATOM     15  C   UNL     1      53.876  -2.932  19.291  0.00  0.00    +0.000 A 
ATOM     16  N   UNL     1      53.788  -1.581  19.310  0.00  0.00    +0.000 NA
ENDBRANCH  10  11
BRANCH  10  17
ATOM     17  C   UNL     1      54.774   1.151  16.906  0.00  0.00    +0.000 C 
BRANCH  17  18
ATOM     18  N   UNL     1      55.282   2.534  16.903  0.00  0.00    +0.000 NA
ATOM     19  H   UNL     1      55.751   2.718  17.789  0.00  0.00    +0.000 HD
ATOM     20  H   UNL     1      54.499   3.182  16.843  0.00  0.00    +0.000 HD
ENDBRANCH  17  18
ENDBRANCH  10  17
ENDBRANCH   8  10
ENDBRANCH   7   8
ENDBRANCH   1   7
BRANCH   4  21
ATOM     21  C   UNL     1      48.796   5.927  17.317  0.00  0.00    +0.000 C 
BRANCH  21  22
ATOM     22  N   UNL     1      47.941   5.941  16.158  0.00  0.00    +0.000 N 
ATOM     23  C   UNL     1      48.391   6.315  14.921  0.00  0.00    +0.000 C 
ATOM     24  O   UNL     1      49.558   6.631  14.715  0.00  0.00    +0.000 OA
ATOM     25  H   UNL     1      46.942   5.925  16.335  0.00  0.00    +0.000 HD
BRANCH  23  26
ATOM     26  C   UNL     1      47.404   6.241  13.837  0.00  0.00    +0.000 A 
ATOM     27  C   UNL     1      47.021   7.395  13.169  0.00  0.00    +0.000 A 
ATOM     28  S   UNL     1      45.935   7.111  11.883  0.00  0.00    +0.000 S 
ATOM     29  C   UNL     1      45.900   5.441  12.209  0.00  0.00    +0.000 A 
ATOM     30  N   UNL     1      45.138   4.596  11.462  0.00  0.00    +0.000 NA
ATOM     31  C   UNL     1      45.188   3.363  11.835  0.00  0.00    +0.000 A 
ATOM     32  N   UNL     1      45.931   2.891  12.885  0.00  0.00    +0.000 N 
ATOM     33  C   UNL     1      46.730   3.703  13.658  0.00  0.00    +0.000 A 
ATOM     34  O   UNL     1      47.404   3.244  14.572  0.00  0.00    +0.000 OA
ATOM     35  C   UNL     1      46.710   5.104  13.278  0.00  0.00    +0.000 A 
ATOM     36  H   UNL     1      45.926   1.911  13.119  0.00  0.00    +0.000 HD
ENDBRANCH  23  26
ENDBRANCH  21  22
ENDBRANCH   4  21
TORSDOF 9
ENDMDL
MODEL 9
REMARK VINA RESULT:    -6.621      3.398      7.878
REMARK INTER + INTRA:         -11.087
REMARK INTER:                  -9.195
REMARK INTRA:                  -1.892
REMARK UNBOUND:                -1.177
REMARK  Name = 
REMARK  9 active torsions:
REMARK  status: ('A' for Active; 'I' for Inactive)
REMARK    1  A    between atoms: N_1  and  C_2
REMARK    2  A    between atoms: C_2  and  C_3
REMARK    3  A    between atoms: C_3  and  N_4
REMARK    4  A    between atoms: C_3  and  C_26
REMARK    5  A    between atoms: N_4  and  C_5
REMARK    6  A    between atoms: C_5  and  C_6
REMARK    7  A    between atoms: C_9  and  C_10
REMARK    8  A    between atoms: C_10  and  N_11
REMARK    9  A    between atoms: C_12  and  C_14
REMARK                            x       y       z     vdW  Elec       q    Type
REMARK                         _______ _______ _______ _____ _____    ______ ____
ROOT
ATOM      1  C   UNL     1      50.918   6.911  16.974  0.00  0.00    +0.000 A 
ATOM      2  C   UNL     1      51.238   7.253  15.661  0.00  0.00    +0.000 A 
ATOM      3  C   UNL     1      50.319   7.978  14.911  0.00  0.00    +0.000 A 
ATOM      4  C   UNL     1      49.092   8.328  15.476  0.00  0.00    +0.000 A 
ATOM      5  C   UNL     1      48.862   7.953  16.796  0.00  0.00    +0.000 A 
ATOM      6  N   UNL     1      49.740   7.259  17.556  0.00  0.00    +0.000 NA
ENDROOT
BRANCH   1   7
ATOM      7  C   UNL     1      51.905   6.113  17.806  0.00  0.00    +0.000 C 
BRANCH   7   8
ATOM      8  N   UNL     1      52.148   4.802  17.206  0.00  0.00    +0.000 NA
ATOM      9  H   UNL     1      51.647   4.800  16.314  0.00  0.00    +0.000 HD
BRANCH   8  10
ATOM     10  C   UNL     1      51.655   3.664  18.015  0.00  0.00    +0.000 C 
BRANCH  10  11
ATOM     11  C   UNL     1      50.153   3.445  17.768  0.00  0.00    +0.000 A 
ATOM     12  C   UNL     1      49.201   3.942  18.665  0.00  0.00    +0.000 A 
ATOM     13  C   UNL     1      47.851   3.712  18.425  0.00  0.00    +0.000 A 
ATOM     14  C   UNL     1      47.475   3.009  17.290  0.00  0.00    +0.000 A 
ATOM     15  C   UNL     1      48.472   2.565  16.439  0.00  0.00    +0.000 A 
ATOM     16  N   UNL     1      49.795   2.767  16.647  0.00  0.00    +0.000 NA
ENDBRANCH  10  11
BRANCH  10  17
ATOM     17  C   UNL     1      52.377   2.299  17.763  0.00  0.00    +0.000 C 
BRANCH  17  18
ATOM     18  N   UNL     1      51.632   1.086  18.148  0.00  0.00    +0.000 NA
ATOM     19  H   UNL     1      52.284   0.307  18.229  0.00  0.00    +0.000 HD
ATOM     20  H   UNL     1      50.973   0.846  17.410  0.00  0.00    +0.000 HD
ENDBRANCH  17  18
ENDBRANCH  10  17
ENDBRANCH   8  10
ENDBRANCH   7   8
ENDBRANCH   1   7
BRANCH   4  21
ATOM     21  C   UNL     1      48.094   9.155  14.723  0.00  0.00    +0.000 C 
BRANCH  21  22
ATOM     22  N   UNL     1      47.082   8.304  14.155  0.00  0.00    +0.000 N 
ATOM     23  C   UNL     1      47.017   8.037  12.814  0.00  0.00    +0.000 C 
ATOM     24  O   UNL     1      47.836   8.482  12.017  0.00  0.00    +0.000 OA
ATOM     25  H   UNL     1      46.267   8.125  14.733  0.00  0.00    +0.000 HD
BRANCH  23  26
ATOM     26  C   UNL     1      45.946   7.122  12.399  0.00  0.00    +0.000 A 
ATOM     27  C   UNL     1      44.854   7.608  11.696  0.00  0.00    +0.000 A 
ATOM     28  S   UNL     1      43.754   6.394  11.220  0.00  0.00    +0.000 S 
ATOM     29  C   UNL     1      44.676   5.183  11.981  0.00  0.00    +0.000 A 
ATOM     30  N   UNL     1      44.280   3.881  11.960  0.00  0.00    +0.000 NA
ATOM     31  C   UNL     1      45.060   3.076  12.597  0.00  0.00    +0.000 A 
ATOM     32  N   UNL     1      46.203   3.448  13.254  0.00  0.00    +0.000 N 
ATOM     33  C   UNL     1      46.654   4.748  13.290  0.00  0.00    +0.000 A 
ATOM     34  O   UNL     1      47.695   5.043  13.862  0.00  0.00    +0.000 OA
ATOM     35  C   UNL     1      45.809   5.697  12.585  0.00  0.00    +0.000 A 
ATOM     36  H   UNL     1      46.768   2.764  13.729  0.00  0.00    +0.000 HD
ENDBRANCH  23  26
ENDBRANCH  21  22
ENDBRANCH   4  21
TORSDOF 9
ENDMDL
