MODEL 1
REMARK VINA RESULT:    -8.734      0.000      0.000
REMARK INTER + INTRA:         -12.027
REMARK INTER:                 -11.286
REMARK INTRA:                  -0.741
REMARK UNBOUND:                -0.741
REMARK  Name = 
REMARK  5 active torsions:
REMARK  status: ('A' for Active; 'I' for Inactive)
REMARK    1  A    between atoms: C_2  and  C_4
REMARK    2  A    between atoms: C_7  and  O_8
REMARK    3  A    between atoms: O_8  and  C_9
REMARK    4  A    between atoms: C_9  and  C_10
REMARK    5  A    between atoms: C_14  and  C_15
REMARK                            x       y       z     vdW  Elec       q    Type
REMARK                         _______ _______ _______ _____ _____    ______ ____
ROOT
ATOM      1  C   UNL     1      43.892   4.258  11.562  0.00  0.00    +0.000 C 
ENDROOT
BRANCH   1   2
ATOM      2  C   UNL     1      45.083   4.941  12.184  0.00  0.00    +0.000 A 
ATOM      3  C   UNL     1      45.578   6.160  11.724  0.00  0.00    +0.000 A 
ATOM      4  C   UNL     1      46.642   6.733  12.399  0.00  0.00    +0.000 A 
ATOM      5  N   UNL     1      47.235   6.185  13.485  0.00  0.00    +0.000 NA
ATOM      6  C   UNL     1      46.753   4.999  13.941  0.00  0.00    +0.000 A 
ATOM      7  C   UNL     1      45.676   4.369  13.317  0.00  0.00    +0.000 A 
BRANCH   6   8
ATOM      8  C   UNL     1      47.433   4.405  15.109  0.00  0.00    +0.000 A 
ATOM      9  C   UNL     1      47.895   5.173  16.177  0.00  0.00    +0.000 A 
ATOM     10  N   UNL     1      48.552   4.654  17.249  0.00  0.00    +0.000 NA
ATOM     11  C   UNL     1      48.735   3.318  17.218  0.00  0.00    +0.000 A 
ATOM     12  C   UNL     1      48.278   2.535  16.174  0.00  0.00    +0.000 A 
ATOM     13  N   UNL     1      47.622   3.051  15.109  0.00  0.00    +0.000 NA
ENDBRANCH   6   8
ENDBRANCH   1   2
BRANCH   1  14
ATOM     14  O   UNL     1      43.777   4.549  10.168  0.00  0.00    +0.000 OA
BRANCH  14  18
ATOM     15  C   UNL     1      46.374   2.304   7.790  0.00  0.00    +0.000 A 
ATOM     16  C   UNL     1      46.355   3.693   7.633  0.00  0.00    +0.000 A 
ATOM     17  C   UNL     1      45.497   4.476   8.408  0.00  0.00    +0.000 A 
ATOM     18  C   UNL     1      44.648   3.881   9.346  0.00  0.00    +0.000 A 
ATOM     19  C   UNL     1      44.653   2.491   9.485  0.00  0.00    +0.000 A 
ATOM     20  C   UNL     1      45.505   1.702   8.707  0.00  0.00    +0.000 A 
BRANCH  15  22
ATOM     21  N   UNL     1      48.410   2.046   6.488  0.00  0.00    +0.000 N 
ATOM     22  C   UNL     1      47.284   1.450   6.987  0.00  0.00    +0.000 C 
ATOM     23  O   UNL     1      47.063   0.260   6.808  0.00  0.00    +0.000 OA
ATOM     24  H   UNL     1      49.076   1.436   6.031  0.00  0.00    +0.000 HD
ATOM     25  H   UNL     1      48.748   2.933   6.833  0.00  0.00    +0.000 HD
ENDBRANCH  15  22
ENDBRANCH  14  18
ENDBRANCH   1  14
TORSDOF 5
ENDMDL
MODEL 2
REMARK VINA RESULT:    -8.461      1.789      3.068
REMARK INTER + INTRA:         -11.674
REMARK INTER:                 -10.852
REMARK INTRA:                  -0.822
REMARK UNBOUND:                -0.741
REMARK  Name = 
REMARK  5 active torsions:
REMARK  status: ('A' for Active; 'I' for Inactive)
REMARK    1  A    between atoms: C_2  and  C_4
REMARK    2  A    between atoms: C_7  and  O_8
REMARK    3  A    between atoms: O_8  and  C_9
REMARK    4  A    between atoms: C_9  and  C_10
REMARK    5  A    between atoms: C_14  and  C_15
REMARK                            x       y       z     vdW  Elec       q    Type
REMARK                         _______ _______ _______ _____ _____    ______ ____
ROOT
ATOM      1  C   UNL     1      44.035   5.354  11.106  0.00  0.00    +0.000 C 
ENDROOT
BRANCH   1   2
ATOM      2  C   UNL     1      45.207   5.140  12.030  0.00  0.00    +0.000 A 
ATOM      3  C   UNL     1      45.326   4.019  12.848  0.00  0.00    +0.000 A 
ATOM      4  C   UNL     1      46.469   3.888  13.620  0.00  0.00    +0.000 A 
ATOM      5  N   UNL     1      47.483   4.782  13.629  0.00  0.00    +0.000 NA
ATOM      6  C   UNL     1      47.375   5.876  12.830  0.00  0.00    +0.000 A 
ATOM      7  C   UNL     1      46.257   6.067  12.017  0.00  0.00    +0.000 A 
BRANCH   6   8
ATOM      8  C   UNL     1      48.480   6.853  12.877  0.00  0.00    +0.000 A 
ATOM      9  C   UNL     1      48.767   7.710  11.815  0.00  0.00    +0.000 A 
ATOM     10  N   UNL     1      49.799   8.597  11.822  0.00  0.00    +0.000 NA
ATOM     11  C   UNL     1      50.548   8.597  12.943  0.00  0.00    +0.000 A 
ATOM     12  C   UNL     1      50.278   7.763  14.012  0.00  0.00    +0.000 A 
ATOM     13  N   UNL     1      49.249   6.883  14.007  0.00  0.00    +0.000 NA
ENDBRANCH   6   8
ENDBRANCH   1   2
BRANCH   1  14
ATOM     14  O   UNL     1      43.661   4.152  10.431  0.00  0.00    +0.000 OA
BRANCH  14  18
ATOM     15  C   UNL     1      46.394   2.477   7.755  0.00  0.00    +0.000 A 
ATOM     16  C   UNL     1      46.182   3.858   7.717  0.00  0.00    +0.000 A 
ATOM     17  C   UNL     1      45.273   4.453   8.594  0.00  0.00    +0.000 A 
ATOM     18  C   UNL     1      44.565   3.676   9.516  0.00  0.00    +0.000 A 
ATOM     19  C   UNL     1      44.762   2.293   9.535  0.00  0.00    +0.000 A 
ATOM     20  C   UNL     1      45.666   1.692   8.655  0.00  0.00    +0.000 A 
BRANCH  15  22
ATOM     21  N   UNL     1      48.457   2.553   6.473  0.00  0.00    +0.000 N 
ATOM     22  C   UNL     1      47.362   1.821   6.841  0.00  0.00    +0.000 C 
ATOM     23  O   UNL     1      47.213   0.667   6.461  0.00  0.00    +0.000 OA
ATOM     24  H   UNL     1      49.164   2.066   5.936  0.00  0.00    +0.000 HD
ATOM     25  H   UNL     1      48.740   3.387   6.968  0.00  0.00    +0.000 HD
ENDBRANCH  15  22
ENDBRANCH  14  18
ENDBRANCH   1  14
TORSDOF 5
ENDMDL
MODEL 3
REMARK VINA RESULT:    -8.204      2.278      4.565
REMARK INTER + INTRA:         -11.343
REMARK INTER:                 -10.492
REMARK INTRA:                  -0.852
REMARK UNBOUND:                -0.741
REMARK  Name = 
REMARK  5 active torsions:
REMARK  status: ('A' for Active; 'I' for Inactive)
REMARK    1  A    between atoms: C_2  and  C_4
REMARK    2  A    between atoms: C_7  and  O_8
REMARK    3  A    between atoms: O_8  and  C_9
REMARK    4  A    between atoms: C_9  and  C_10
REMARK    5  A    between atoms: C_14  and  C_15
REMARK                            x       y       z     vdW  Elec       q    Type
REMARK                         _______ _______ _______ _____ _____    ______ ____
ROOT
ATOM      1  C   UNL     1      43.751   3.698  11.679  0.00  0.00    +0.000 C 
ENDROOT
BRANCH   1   2
ATOM      2  C   UNL     1      44.677   4.764  12.206  0.00  0.00    +0.000 A 
ATOM      3  C   UNL     1      45.765   4.478  13.027  0.00  0.00    +0.000 A 
ATOM      4  C   UNL     1      46.590   5.522  13.413  0.00  0.00    +0.000 A 
ATOM      5  N   UNL     1      46.407   6.809  13.040  0.00  0.00    +0.000 NA
ATOM      6  C   UNL     1      45.350   7.094  12.235  0.00  0.00    +0.000 A 
ATOM      7  C   UNL     1      44.484   6.090  11.798  0.00  0.00    +0.000 A 
BRANCH   6   8
ATOM      8  C   UNL     1      45.153   8.509  11.863  0.00  0.00    +0.000 A 
ATOM      9  C   UNL     1      46.026   9.518  12.268  0.00  0.00    +0.000 A 
ATOM     10  N   UNL     1      45.849  10.832  11.965  0.00  0.00    +0.000 NA
ATOM     11  C   UNL     1      44.751  11.110  11.233  0.00  0.00    +0.000 A 
ATOM     12  C   UNL     1      43.876  10.126  10.813  0.00  0.00    +0.000 A 
ATOM     13  N   UNL     1      44.053   8.818  11.112  0.00  0.00    +0.000 NA
ENDBRANCH   6   8
ENDBRANCH   1   2
BRANCH   1  14
ATOM     14  O   UNL     1      43.485   3.864  10.285  0.00  0.00    +0.000 OA
BRANCH  14  18
ATOM     15  C   UNL     1      46.412   2.622   7.580  0.00  0.00    +0.000 A 
ATOM     16  C   UNL     1      45.849   1.673   8.437  0.00  0.00    +0.000 A 
ATOM     17  C   UNL     1      44.869   2.052   9.358  0.00  0.00    +0.000 A 
ATOM     18  C   UNL     1      44.444   3.382   9.433  0.00  0.00    +0.000 A 
ATOM     19  C   UNL     1      45.027   4.332   8.590  0.00  0.00    +0.000 A 
ATOM     20  C   UNL     1      46.012   3.959   7.671  0.00  0.00    +0.000 A 
BRANCH  15  22
ATOM     21  N   UNL     1      47.410   2.889   5.379  0.00  0.00    +0.000 N 
ATOM     22  C   UNL     1      47.447   2.243   6.585  0.00  0.00    +0.000 C 
ATOM     23  O   UNL     1      48.317   1.421   6.838  0.00  0.00    +0.000 OA
ATOM     24  H   UNL     1      48.177   2.703   4.746  0.00  0.00    +0.000 HD
ATOM     25  H   UNL     1      46.885   3.741   5.240  0.00  0.00    +0.000 HD
ENDBRANCH  15  22
ENDBRANCH  14  18
ENDBRANCH   1  14
TORSDOF 5
ENDMDL
MODEL 4
REMARK VINA RESULT:    -7.736      1.743      2.593
REMARK INTER + INTRA:         -10.738
REMARK INTER:                 -10.014
REMARK INTRA:                  -0.724
REMARK UNBOUND:                -0.741
REMARK  Name = 
REMARK  5 active torsions:
REMARK  status: ('A' for Active; 'I' for Inactive)
REMARK    1  A    between atoms: C_2  and  C_4
REMARK    2  A    between atoms: C_7  and  O_8
REMARK    3  A    between atoms: O_8  and  C_9
REMARK    4  A    between atoms: C_9  and  C_10
REMARK    5  A    between atoms: C_14  and  C_15
REMARK                            x       y       z     vdW  Elec       q    Type
REMARK                         _______ _______ _______ _____ _____    ______ ____
ROOT
ATOM      1  C   UNL     1      44.355   4.760  11.602  0.00  0.00    +0.000 C 
ENDROOT
BRANCH   1   2
ATOM      2  C   UNL     1      45.058   6.053  11.927  0.00  0.00    +0.000 A 
ATOM      3  C   UNL     1      44.611   7.290  11.470  0.00  0.00    +0.000 A 
ATOM      4  C   UNL     1      45.295   8.426  11.871  0.00  0.00    +0.000 A 
ATOM      5  N   UNL     1      46.375   8.411  12.685  0.00  0.00    +0.000 NA
ATOM      6  C   UNL     1      46.814   7.207  13.138  0.00  0.00    +0.000 A 
ATOM      7  C   UNL     1      46.166   6.023  12.784  0.00  0.00    +0.000 A 
BRANCH   6   8
ATOM      8  C   UNL     1      48.011   7.212  14.002  0.00  0.00    +0.000 A 
ATOM      9  C   UNL     1      48.318   6.159  14.862  0.00  0.00    +0.000 A 
ATOM     10  N   UNL     1      49.396   6.154  15.691  0.00  0.00    +0.000 NA
ATOM     11  C   UNL     1      50.172   7.256  15.631  0.00  0.00    +0.000 A 
ATOM     12  C   UNL     1      49.893   8.308  14.780  0.00  0.00    +0.000 A 
ATOM     13  N   UNL     1      48.821   8.313  13.953  0.00  0.00    +0.000 NA
ENDBRANCH   6   8
ENDBRANCH   1   2
BRANCH   1  14
ATOM     14  O   UNL     1      43.993   4.682  10.222  0.00  0.00    +0.000 OA
BRANCH  14  18
ATOM     15  C   UNL     1      46.517   2.507   7.706  0.00  0.00    +0.000 A 
ATOM     16  C   UNL     1      45.712   1.809   8.611  0.00  0.00    +0.000 A 
ATOM     17  C   UNL     1      44.857   2.503   9.471  0.00  0.00    +0.000 A 
ATOM     18  C   UNL     1      44.800   3.899   9.438  0.00  0.00    +0.000 A 
ATOM     19  C   UNL     1      45.623   4.594   8.548  0.00  0.00    +0.000 A 
ATOM     20  C   UNL     1      46.485   3.905   7.690  0.00  0.00    +0.000 A 
BRANCH  15  22
ATOM     21  N   UNL     1      48.475   2.508   6.267  0.00  0.00    +0.000 N 
ATOM     22  C   UNL     1      47.425   1.793   6.774  0.00  0.00    +0.000 C 
ATOM     23  O   UNL     1      47.269   0.611   6.497  0.00  0.00    +0.000 OA
ATOM     24  H   UNL     1      49.149   1.990   5.716  0.00  0.00    +0.000 HD
ATOM     25  H   UNL     1      48.779   3.383   6.673  0.00  0.00    +0.000 HD
ENDBRANCH  15  22
ENDBRANCH  14  18
ENDBRANCH   1  14
TORSDOF 5
ENDMDL
MODEL 5
REMARK VINA RESULT:    -7.201      3.540      7.109
REMARK INTER + INTRA:         -10.047
REMARK INTER:                  -9.175
REMARK INTRA:                  -0.871
REMARK UNBOUND:                -0.741
REMARK  Name = 
REMARK  5 active torsions:
REMARK  status: ('A' for Active; 'I' for Inactive)
REMARK    1  A    between atoms: C_2  and  C_4
REMARK    2  A    between atoms: C_7  and  O_8
REMARK    3  A    between atoms: O_8  and  C_9
REMARK    4  A    between atoms: C_9  and  C_10
REMARK    5  A    between atoms: C_14  and  C_15
REMARK                            x       y       z     vdW  Elec       q    Type
REMARK                         _______ _______ _______ _____ _____    ______ ____
ROOT
ATOM      1  C   UNL     1      44.266   6.808  11.474  0.00  0.00    +0.000 C 
ENDROOT
BRANCH   1   2
ATOM      2  C   UNL     1      44.170   5.345  11.123  0.00  0.00    +0.000 A 
ATOM      3  C   UNL     1      43.332   4.461  11.798  0.00  0.00    +0.000 A 
ATOM      4  C   UNL     1      43.274   3.148  11.363  0.00  0.00    +0.000 A 
ATOM      5  N   UNL     1      43.981   2.665  10.315  0.00  0.00    +0.000 NA
ATOM      6  C   UNL     1      44.798   3.524   9.649  0.00  0.00    +0.000 A 
ATOM      7  C   UNL     1      44.897   4.864  10.026  0.00  0.00    +0.000 A 
BRANCH   6   8
ATOM      8  C   UNL     1      45.582   2.970   8.528  0.00  0.00    +0.000 A 
ATOM      9  C   UNL     1      45.983   1.636   8.483  0.00  0.00    +0.000 A 
ATOM     10  N   UNL     1      46.732   1.109   7.477  0.00  0.00    +0.000 NA
ATOM     11  C   UNL     1      47.074   1.975   6.502  0.00  0.00    +0.000 A 
ATOM     12  C   UNL     1      46.680   3.300   6.520  0.00  0.00    +0.000 A 
ATOM     13  N   UNL     1      45.932   3.824   7.519  0.00  0.00    +0.000 NA
ENDBRANCH   6   8
ENDBRANCH   1   2
BRANCH   1  14
ATOM     14  O   UNL     1      44.955   7.017  12.708  0.00  0.00    +0.000 OA
BRANCH  14  18
ATOM     15  C   UNL     1      49.056   7.693  12.309  0.00  0.00    +0.000 A 
ATOM     16  C   UNL     1      48.626   6.452  12.787  0.00  0.00    +0.000 A 
ATOM     17  C   UNL     1      47.263   6.191  12.937  0.00  0.00    +0.000 A 
ATOM     18  C   UNL     1      46.314   7.166  12.614  0.00  0.00    +0.000 A 
ATOM     19  C   UNL     1      46.748   8.414  12.158  0.00  0.00    +0.000 A 
ATOM     20  C   UNL     1      48.112   8.683  12.012  0.00  0.00    +0.000 A 
BRANCH  15  22
ATOM     21  N   UNL     1      51.276   7.981  13.255  0.00  0.00    +0.000 N 
ATOM     22  C   UNL     1      50.499   7.993  12.129  0.00  0.00    +0.000 C 
ATOM     23  O   UNL     1      50.983   8.204  11.025  0.00  0.00    +0.000 OA
ATOM     24  H   UNL     1      52.273   8.083  13.114  0.00  0.00    +0.000 HD
ATOM     25  H   UNL     1      50.967   7.559  14.119  0.00  0.00    +0.000 HD
ENDBRANCH  15  22
ENDBRANCH  14  18
ENDBRANCH   1  14
TORSDOF 5
ENDMDL
MODEL 6
REMARK VINA RESULT:    -6.499      2.847      4.034
REMARK INTER + INTRA:          -9.139
REMARK INTER:                  -8.542
REMARK INTRA:                  -0.597
REMARK UNBOUND:                -0.741
REMARK  Name = 
REMARK  5 active torsions:
REMARK  status: ('A' for Active; 'I' for Inactive)
REMARK    1  A    between atoms: C_2  and  C_4
REMARK    2  A    between atoms: C_7  and  O_8
REMARK    3  A    between atoms: O_8  and  C_9
REMARK    4  A    between atoms: C_9  and  C_10
REMARK    5  A    between atoms: C_14  and  C_15
REMARK                            x       y       z     vdW  Elec       q    Type
REMARK                         _______ _______ _______ _____ _____    ______ ____
ROOT
ATOM      1  C   UNL     1      47.285   8.166  12.517  0.00  0.00    +0.000 C 
ENDROOT
BRANCH   1   2
ATOM      2  C   UNL     1      48.269   7.634  13.528  0.00  0.00    +0.000 A 
ATOM      3  C   UNL     1      49.525   8.201  13.727  0.00  0.00    +0.000 A 
ATOM      4  C   UNL     1      50.335   7.673  14.719  0.00  0.00    +0.000 A 
ATOM      5  N   UNL     1      49.981   6.638  15.514  0.00  0.00    +0.000 NA
ATOM      6  C   UNL     1      48.754   6.083  15.328  0.00  0.00    +0.000 A 
ATOM      7  C   UNL     1      47.882   6.572  14.354  0.00  0.00    +0.000 A 
BRANCH   6   8
ATOM      8  C   UNL     1      48.400   4.936  16.187  0.00  0.00    +0.000 A 
ATOM      9  C   UNL     1      47.119   4.387  16.211  0.00  0.00    +0.000 A 
ATOM     10  N   UNL     1      46.759   3.351  17.017  0.00  0.00    +0.000 NA
ATOM     11  C   UNL     1      47.739   2.876  17.812  0.00  0.00    +0.000 A 
ATOM     12  C   UNL     1      49.019   3.398  17.799  0.00  0.00    +0.000 A 
ATOM     13  N   UNL     1      49.378   4.427  16.996  0.00  0.00    +0.000 NA
ENDBRANCH   6   8
ENDBRANCH   1   2
BRANCH   1  14
ATOM     14  O   UNL     1      45.940   7.811  12.844  0.00  0.00    +0.000 OA
BRANCH  14  18
ATOM     15  C   UNL     1      44.436   4.201  11.382  0.00  0.00    +0.000 A 
ATOM     16  C   UNL     1      45.287   4.951  10.565  0.00  0.00    +0.000 A 
ATOM     17  C   UNL     1      45.806   6.165  11.019  0.00  0.00    +0.000 A 
ATOM     18  C   UNL     1      45.481   6.644  12.291  0.00  0.00    +0.000 A 
ATOM     19  C   UNL     1      44.611   5.903  13.096  0.00  0.00    +0.000 A 
ATOM     20  C   UNL     1      44.084   4.690  12.644  0.00  0.00    +0.000 A 
BRANCH  15  22
ATOM     21  N   UNL     1      44.465   2.328   9.834  0.00  0.00    +0.000 N 
ATOM     22  C   UNL     1      43.879   2.902  10.928  0.00  0.00    +0.000 C 
ATOM     23  O   UNL     1      42.965   2.348  11.523  0.00  0.00    +0.000 OA
ATOM     24  H   UNL     1      44.151   1.396   9.592  0.00  0.00    +0.000 HD
ATOM     25  H   UNL     1      45.370   2.619   9.491  0.00  0.00    +0.000 HD
ENDBRANCH  15  22
ENDBRANCH  14  18
ENDBRANCH   1  14
TORSDOF 5
ENDMDL
MODEL 7
REMARK VINA RESULT:    -6.375      4.081      7.805
REMARK INTER + INTRA:          -8.979
REMARK INTER:                  -8.228
REMARK INTRA:                  -0.751
REMARK UNBOUND:                -0.741
REMARK  Name = 
REMARK  5 active torsions:
REMARK  status: ('A' for Active; 'I' for Inactive)
REMARK    1  A    between atoms: C_2  and  C_4
REMARK    2  A    between atoms: C_7  and  O_8
REMARK    3  A    between atoms: O_8  and  C_9
REMARK    4  A    between atoms: C_9  and  C_10
REMARK    5  A    between atoms: C_14  and  C_15
REMARK                            x       y       z     vdW  Elec       q    Type
REMARK                         _______ _______ _______ _____ _____    ______ ____
ROOT
ATOM      1  C   UNL     1      48.676   6.501  15.828  0.00  0.00    +0.000 C 
ENDROOT
BRANCH   1   2
ATOM      2  C   UNL     1      48.192   6.583  14.402  0.00  0.00    +0.000 A 
ATOM      3  C   UNL     1      48.806   7.385  13.443  0.00  0.00    +0.000 A 
ATOM      4  C   UNL     1      48.320   7.348  12.147  0.00  0.00    +0.000 A 
ATOM      5  N   UNL     1      47.283   6.576  11.748  0.00  0.00    +0.000 NA
ATOM      6  C   UNL     1      46.683   5.788  12.679  0.00  0.00    +0.000 A 
ATOM      7  C   UNL     1      47.127   5.766  14.001  0.00  0.00    +0.000 A 
BRANCH   6   8
ATOM      8  C   UNL     1      45.535   4.976  12.229  0.00  0.00    +0.000 A 
ATOM      9  C   UNL     1      45.001   3.943  12.999  0.00  0.00    +0.000 A 
ATOM     10  N   UNL     1      43.966   3.160  12.593  0.00  0.00    +0.000 NA
ATOM     11  C   UNL     1      43.472   3.448  11.372  0.00  0.00    +0.000 A 
ATOM     12  C   UNL     1      43.979   4.473  10.594  0.00  0.00    +0.000 A 
ATOM     13  N   UNL     1      45.007   5.254  10.999  0.00  0.00    +0.000 NA
ENDBRANCH   6   8
ENDBRANCH   1   2
BRANCH   1  14
ATOM     14  O   UNL     1      48.122   5.378  16.516  0.00  0.00    +0.000 OA
BRANCH  14  18
ATOM     15  C   UNL     1      50.974   2.465  17.416  0.00  0.00    +0.000 A 
ATOM     16  C   UNL     1      49.691   2.053  17.048  0.00  0.00    +0.000 A 
ATOM     17  C   UNL     1      48.709   2.998  16.743  0.00  0.00    +0.000 A 
ATOM     18  C   UNL     1      48.998   4.365  16.805  0.00  0.00    +0.000 A 
ATOM     19  C   UNL     1      50.276   4.774  17.195  0.00  0.00    +0.000 A 
ATOM     20  C   UNL     1      51.260   3.831  17.508  0.00  0.00    +0.000 A 
BRANCH  15  22
ATOM     21  N   UNL     1      51.631   0.223  18.088  0.00  0.00    +0.000 N 
ATOM     22  C   UNL     1      52.039   1.480  17.735  0.00  0.00    +0.000 C 
ATOM     23  O   UNL     1      53.226   1.762  17.650  0.00  0.00    +0.000 OA
ATOM     24  H   UNL     1      52.359  -0.471  18.202  0.00  0.00    +0.000 HD
ATOM     25  H   UNL     1      50.693  -0.109  17.912  0.00  0.00    +0.000 HD
ENDBRANCH  15  22
ENDBRANCH  14  18
ENDBRANCH   1  14
TORSDOF 5
ENDMDL
MODEL 8
REMARK VINA RESULT:    -6.018      3.756      8.599
REMARK INTER + INTRA:          -8.518
REMARK INTER:                  -7.890
REMARK INTRA:                  -0.628
REMARK UNBOUND:                -0.741
REMARK  Name = 
REMARK  5 active torsions:
REMARK  status: ('A' for Active; 'I' for Inactive)
REMARK    1  A    between atoms: C_2  and  C_4
REMARK    2  A    between atoms: C_7  and  O_8
REMARK    3  A    between atoms: O_8  and  C_9
REMARK    4  A    between atoms: C_9  and  C_10
REMARK    5  A    between atoms: C_14  and  C_15
REMARK                            x       y       z     vdW  Elec       q    Type
REMARK                         _______ _______ _______ _____ _____    ______ ____
ROOT
ATOM      1  C   UNL     1      48.239   7.089  14.030  0.00  0.00    +0.000 C 
ENDROOT
BRANCH   1   2
ATOM      2  C   UNL     1      47.050   7.224  13.112  0.00  0.00    +0.000 A 
ATOM      3  C   UNL     1      46.299   8.393  13.020  0.00  0.00    +0.000 A 
ATOM      4  C   UNL     1      45.259   8.436  12.106  0.00  0.00    +0.000 A 
ATOM      5  N   UNL     1      44.926   7.411  11.289  0.00  0.00    +0.000 NA
ATOM      6  C   UNL     1      45.659   6.269  11.371  0.00  0.00    +0.000 A 
ATOM      7  C   UNL     1      46.728   6.159  12.262  0.00  0.00    +0.000 A 
BRANCH   6   8
ATOM      8  C   UNL     1      45.260   5.152  10.491  0.00  0.00    +0.000 A 
ATOM      9  C   UNL     1      44.509   4.071  10.948  0.00  0.00    +0.000 A 
ATOM     10  N   UNL     1      44.156   3.015  10.166  0.00  0.00    +0.000 NA
ATOM     11  C   UNL     1      44.587   3.077   8.889  0.00  0.00    +0.000 A 
ATOM     12  C   UNL     1      45.326   4.144   8.411  0.00  0.00    +0.000 A 
ATOM     13  N   UNL     1      45.675   5.195   9.189  0.00  0.00    +0.000 NA
ENDBRANCH   6   8
ENDBRANCH   1   2
BRANCH   1  14
ATOM     14  O   UNL     1      48.346   5.772  14.573  0.00  0.00    +0.000 OA
BRANCH  14  18
ATOM     15  C   UNL     1      48.208   5.693  18.745  0.00  0.00    +0.000 A 
ATOM     16  C   UNL     1      47.594   4.657  18.036  0.00  0.00    +0.000 A 
ATOM     17  C   UNL     1      47.617   4.651  16.640  0.00  0.00    +0.000 A 
ATOM     18  C   UNL     1      48.250   5.680  15.937  0.00  0.00    +0.000 A 
ATOM     19  C   UNL     1      48.843   6.727  16.649  0.00  0.00    +0.000 A 
ATOM     20  C   UNL     1      48.818   6.740  18.047  0.00  0.00    +0.000 A 
BRANCH  15  22
ATOM     21  N   UNL     1      47.013   5.474  20.851  0.00  0.00    +0.000 N 
ATOM     22  C   UNL     1      48.208   5.717  20.230  0.00  0.00    +0.000 C 
ATOM     23  O   UNL     1      49.231   5.907  20.873  0.00  0.00    +0.000 OA
ATOM     24  H   UNL     1      47.040   5.389  21.859  0.00  0.00    +0.000 HD
ATOM     25  H   UNL     1      46.228   5.060  20.367  0.00  0.00    +0.000 HD
ENDBRANCH  15  22
ENDBRANCH  14  18
ENDBRANCH   1  14
TORSDOF 5
ENDMDL
MODEL 9
REMARK VINA RESULT:    -5.979      4.370      8.613
REMARK INTER + INTRA:          -8.468
REMARK INTER:                  -7.830
REMARK INTRA:                  -0.638
REMARK UNBOUND:                -0.741
REMARK  Name = 
REMARK  5 active torsions:
REMARK  status: ('A' for Active; 'I' for Inactive)
REMARK    1  A    between atoms: C_2  and  C_4
REMARK    2  A    between atoms: C_7  and  O_8
REMARK    3  A    between atoms: O_8  and  C_9
REMARK    4  A    between atoms: C_9  and  C_10
REMARK    5  A    between atoms: C_14  and  C_15
REMARK                            x       y       z     vdW  Elec       q    Type
REMARK                         _______ _______ _______ _____ _____    ______ ____
ROOT
ATOM      1  C   UNL     1      48.181   4.042  17.026  0.00  0.00    +0.000 C 
ENDROOT
BRANCH   1   2
ATOM      2  C   UNL     1      47.883   4.878  15.807  0.00  0.00    +0.000 A 
ATOM      3  C   UNL     1      48.560   6.060  15.520  0.00  0.00    +0.000 A 
ATOM      4  C   UNL     1      48.251   6.726  14.345  0.00  0.00    +0.000 A 
ATOM      5  N   UNL     1      47.331   6.298  13.452  0.00  0.00    +0.000 NA
ATOM      6  C   UNL     1      46.669   5.142  13.724  0.00  0.00    +0.000 A 
ATOM      7  C   UNL     1      46.938   4.413  14.883  0.00  0.00    +0.000 A 
BRANCH   6   8
ATOM      8  C   UNL     1      45.649   4.709  12.749  0.00  0.00    +0.000 A 
ATOM      9  C   UNL     1      45.401   5.403  11.566  0.00  0.00    +0.000 A 
ATOM     10  N   UNL     1      44.445   5.042  10.668  0.00  0.00    +0.000 NA
ATOM     11  C   UNL     1      43.732   3.946  10.998  0.00  0.00    +0.000 A 
ATOM     12  C   UNL     1      43.965   3.237  12.161  0.00  0.00    +0.000 A 
ATOM     13  N   UNL     1      44.918   3.594  13.053  0.00  0.00    +0.000 NA
ENDBRANCH   6   8
ENDBRANCH   1   2
BRANCH   1  14
ATOM     14  O   UNL     1      48.797   2.799  16.683  0.00  0.00    +0.000 OA
BRANCH  14  18
ATOM     15  C   UNL     1      52.699   2.504  18.138  0.00  0.00    +0.000 A 
ATOM     16  C   UNL     1      52.119   1.378  17.548  0.00  0.00    +0.000 A 
ATOM     17  C   UNL     1      50.815   1.438  17.053  0.00  0.00    +0.000 A 
ATOM     18  C   UNL     1      50.075   2.621  17.144  0.00  0.00    +0.000 A 
ATOM     19  C   UNL     1      50.651   3.738  17.756  0.00  0.00    +0.000 A 
ATOM     20  C   UNL     1      51.954   3.681  18.259  0.00  0.00    +0.000 A 
BRANCH  15  22
ATOM     21  N   UNL     1      54.270   1.900  19.893  0.00  0.00    +0.000 N 
ATOM     22  C   UNL     1      54.088   2.470  18.662  0.00  0.00    +0.000 C 
ATOM     23  O   UNL     1      55.034   2.894  18.013  0.00  0.00    +0.000 OA
ATOM     24  H   UNL     1      55.228   1.786  20.199  0.00  0.00    +0.000 HD
ATOM     25  H   UNL     1      53.569   1.315  20.325  0.00  0.00    +0.000 HD
ENDBRANCH  15  22
ENDBRANCH  14  18
ENDBRANCH   1  14
TORSDOF 5
ENDMDL
