MODEL 1
REMARK VINA RESULT:    -8.635      0.000      0.000
REMARK INTER + INTRA:         -12.965
REMARK INTER:                 -11.916
REMARK INTRA:                  -1.049
REMARK UNBOUND:                -1.049
REMARK  Name = 
REMARK  7 active torsions:
REMARK  status: ('A' for Active; 'I' for Inactive)
REMARK    1  A    between atoms: C_2  and  C_20
REMARK    2  A    between atoms: N_3  and  C_4
REMARK    3  A    between atoms: C_4  and  C_5
REMARK    4  A    between atoms: N_8  and  C_9
REMARK    5  A    between atoms: C_9  and  C_10
REMARK    6  A    between atoms: C_10  and  O_11
REMARK    7  A    between atoms: C_10  and  C_12
REMARK                            x       y       z     vdW  Elec       q    Type
REMARK                         _______ _______ _______ _____ _____    ______ ____
ROOT
ATOM      1  C   UNL     1      45.668   5.330  13.277  0.00  0.00    +0.000 C 
ENDROOT
BRANCH   1   2
ATOM      2  C   UNL     1      44.295   4.644  13.356  0.00  0.00    +0.000 C 
ATOM      3  C   UNL     1      44.297   3.218  12.785  0.00  0.00    +0.000 C 
ATOM      4  C   UNL     1      44.484   3.191  11.267  0.00  0.00    +0.000 C 
ATOM      5  N   UNL     1      43.541   4.055  10.542  0.00  0.00    +0.000 NA
ATOM      6  C   UNL     1      43.457   5.419  11.085  0.00  0.00    +0.000 C 
ATOM      7  C   UNL     1      43.238   5.453  12.599  0.00  0.00    +0.000 C 
BRANCH   5   8
ATOM      8  C   UNL     1      43.888   4.108   9.105  0.00  0.00    +0.000 C 
BRANCH   8   9
ATOM      9  C   UNL     1      45.406   4.099   8.795  0.00  0.00    +0.000 C 
BRANCH   9  10
ATOM     10  C   UNL     1      45.801   3.129   7.656  0.00  0.00    +0.000 C 
ATOM     11  C   UNL     1      46.402   1.829   8.224  0.00  0.00    +0.000 C 
ATOM     12  C   UNL     1      46.817   0.862   7.117  0.00  0.00    +0.000 C 
ATOM     13  C   UNL     1      47.775   1.520   6.130  0.00  0.00    +0.000 C 
ATOM     14  C   UNL     1      47.172   2.787   5.540  0.00  0.00    +0.000 C 
ATOM     15  C   UNL     1      46.763   3.766   6.635  0.00  0.00    +0.000 C 
ENDBRANCH   9  10
BRANCH   9  16
ATOM     16  O   UNL     1      45.834   5.436   8.500  0.00  0.00    +0.000 OA
ATOM     17  H   UNL     1      45.331   5.753   7.732  0.00  0.00    +0.000 HD
ENDBRANCH   9  16
ENDBRANCH   8   9
ENDBRANCH   5   8
ENDBRANCH   1   2
BRANCH   1  20
ATOM     18  O   UNL     1      47.409   3.224  14.108  0.00  0.00    +0.000 OA
ATOM     19  C   UNL     1      47.166   4.152  14.872  0.00  0.00    +0.000 C 
ATOM     20  N   UNL     1      46.401   5.235  14.516  0.00  0.00    +0.000 N 
ATOM     21  H   UNL     1      46.170   5.922  15.221  0.00  0.00    +0.000 HD
BRANCH  19  22
ATOM     22  C   UNL     1      47.727   4.215  16.225  0.00  0.00    +0.000 A 
ATOM     23  C   UNL     1      47.318   3.322  17.205  0.00  0.00    +0.000 A 
ATOM     24  S   UNL     1      48.154   3.510  18.682  0.00  0.00    +0.000 S 
ATOM     25  C   UNL     1      49.052   4.822  18.074  0.00  0.00    +0.000 A 
ATOM     26  N   UNL     1      49.984   5.452  18.837  0.00  0.00    +0.000 NA
ATOM     27  C   UNL     1      50.563   6.451  18.256  0.00  0.00    +0.000 A 
ATOM     28  N   UNL     1      50.287   6.885  16.987  0.00  0.00    +0.000 N 
ATOM     29  C   UNL     1      49.375   6.265  16.170  0.00  0.00    +0.000 A 
ATOM     30  O   UNL     1      49.197   6.646  15.017  0.00  0.00    +0.000 OA
ATOM     31  C   UNL     1      48.709   5.123  16.769  0.00  0.00    +0.000 A 
ATOM     32  H   UNL     1      50.777   7.672  16.588  0.00  0.00    +0.000 HD
ENDBRANCH  19  22
ENDBRANCH   1  20
TORSDOF 7
ENDMDL
MODEL 2
REMARK VINA RESULT:    -8.191      1.746      2.802
REMARK INTER + INTRA:         -12.352
REMARK INTER:                 -11.419
REMARK INTRA:                  -0.932
REMARK UNBOUND:                -1.049
REMARK  Name = 
REMARK  7 active torsions:
REMARK  status: ('A' for Active; 'I' for Inactive)
REMARK    1  A    between atoms: C_2  and  C_20
REMARK    2  A    between atoms: N_3  and  C_4
REMARK    3  A    between atoms: C_4  and  C_5
REMARK    4  A    between atoms: N_8  and  C_9
REMARK    5  A    between atoms: C_9  and  C_10
REMARK    6  A    between atoms: C_10  and  O_11
REMARK    7  A    between atoms: C_10  and  C_12
REMARK                            x       y       z     vdW  Elec       q    Type
REMARK                         _______ _______ _______ _____ _____    ______ ____
ROOT
ATOM      1  C   UNL     1      46.774   6.997  12.622  0.00  0.00    +0.000 C 
ENDROOT
BRANCH   1   2
ATOM      2  C   UNL     1      45.249   6.989  12.432  0.00  0.00    +0.000 C 
ATOM      3  C   UNL     1      44.542   5.905  13.259  0.00  0.00    +0.000 C 
ATOM      4  C   UNL     1      44.846   4.491  12.760  0.00  0.00    +0.000 C 
ATOM      5  N   UNL     1      44.603   4.309  11.321  0.00  0.00    +0.000 NA
ATOM      6  C   UNL     1      45.212   5.355  10.486  0.00  0.00    +0.000 C 
ATOM      7  C   UNL     1      44.885   6.772  10.961  0.00  0.00    +0.000 C 
BRANCH   5   8
ATOM      8  C   UNL     1      45.076   2.978  10.881  0.00  0.00    +0.000 C 
BRANCH   8   9
ATOM      9  C   UNL     1      44.729   2.609   9.416  0.00  0.00    +0.000 C 
BRANCH   9  10
ATOM     10  C   UNL     1      45.948   2.646   8.463  0.00  0.00    +0.000 C 
ATOM     11  C   UNL     1      45.663   3.538   7.239  0.00  0.00    +0.000 C 
ATOM     12  C   UNL     1      46.845   3.575   6.273  0.00  0.00    +0.000 C 
ATOM     13  C   UNL     1      47.258   2.172   5.841  0.00  0.00    +0.000 C 
ATOM     14  C   UNL     1      47.574   1.296   7.045  0.00  0.00    +0.000 C 
ATOM     15  C   UNL     1      46.396   1.243   8.013  0.00  0.00    +0.000 C 
ENDBRANCH   9  10
BRANCH   9  16
ATOM     16  O   UNL     1      44.099   1.322   9.392  0.00  0.00    +0.000 OA
ATOM     17  H   UNL     1      43.274   1.379   9.902  0.00  0.00    +0.000 HD
ENDBRANCH   9  16
ENDBRANCH   8   9
ENDBRANCH   5   8
ENDBRANCH   1   2
BRANCH   1  20
ATOM     18  O   UNL     1      49.417   6.960  13.705  0.00  0.00    +0.000 OA
ATOM     19  C   UNL     1      48.461   6.675  14.419  0.00  0.00    +0.000 C 
ATOM     20  N   UNL     1      47.159   6.744  13.989  0.00  0.00    +0.000 N 
ATOM     21  H   UNL     1      46.425   6.413  14.601  0.00  0.00    +0.000 HD
BRANCH  19  22
ATOM     22  C   UNL     1      48.624   6.290  15.824  0.00  0.00    +0.000 A 
ATOM     23  C   UNL     1      49.233   7.149  16.728  0.00  0.00    +0.000 A 
ATOM     24  S   UNL     1      49.247   6.548  18.326  0.00  0.00    +0.000 S 
ATOM     25  C   UNL     1      48.485   5.102  17.852  0.00  0.00    +0.000 A 
ATOM     26  N   UNL     1      48.182   4.134  18.757  0.00  0.00    +0.000 NA
ATOM     27  C   UNL     1      47.636   3.078  18.248  0.00  0.00    +0.000 A 
ATOM     28  N   UNL     1      47.378   2.896  16.916  0.00  0.00    +0.000 N 
ATOM     29  C   UNL     1      47.641   3.855  15.968  0.00  0.00    +0.000 A 
ATOM     30  O   UNL     1      47.342   3.680  14.792  0.00  0.00    +0.000 OA
ATOM     31  C   UNL     1      48.238   5.070  16.491  0.00  0.00    +0.000 A 
ATOM     32  H   UNL     1      46.947   2.048  16.580  0.00  0.00    +0.000 HD
ENDBRANCH  19  22
ENDBRANCH   1  20
TORSDOF 7
ENDMDL
MODEL 3
REMARK VINA RESULT:    -7.912      1.826      2.362
REMARK INTER + INTRA:         -11.967
REMARK INTER:                 -11.463
REMARK INTRA:                  -0.504
REMARK UNBOUND:                -1.049
REMARK  Name = 
REMARK  7 active torsions:
REMARK  status: ('A' for Active; 'I' for Inactive)
REMARK    1  A    between atoms: C_2  and  C_20
REMARK    2  A    between atoms: N_3  and  C_4
REMARK    3  A    between atoms: C_4  and  C_5
REMARK    4  A    between atoms: N_8  and  C_9
REMARK    5  A    between atoms: C_9  and  C_10
REMARK    6  A    between atoms: C_10  and  O_11
REMARK    7  A    between atoms: C_10  and  C_12
REMARK                            x       y       z     vdW  Elec       q    Type
REMARK                         _______ _______ _______ _____ _____    ______ ____
ROOT
ATOM      1  C   UNL     1      47.012   4.961  13.829  0.00  0.00    +0.000 C 
ENDROOT
BRANCH   1   2
ATOM      2  C   UNL     1      45.502   5.188  13.649  0.00  0.00    +0.000 C 
ATOM      3  C   UNL     1      44.786   4.001  12.987  0.00  0.00    +0.000 C 
ATOM      4  C   UNL     1      45.172   3.826  11.517  0.00  0.00    +0.000 C 
ATOM      5  N   UNL     1      45.024   5.052  10.718  0.00  0.00    +0.000 NA
ATOM      6  C   UNL     1      45.644   6.233  11.336  0.00  0.00    +0.000 C 
ATOM      7  C   UNL     1      45.236   6.432  12.798  0.00  0.00    +0.000 C 
BRANCH   5   8
ATOM      8  C   UNL     1      45.571   4.852   9.358  0.00  0.00    +0.000 C 
BRANCH   8   9
ATOM      9  C   UNL     1      44.661   4.050   8.395  0.00  0.00    +0.000 C 
BRANCH   9  10
ATOM     10  C   UNL     1      45.424   3.002   7.549  0.00  0.00    +0.000 C 
ATOM     11  C   UNL     1      45.975   1.872   8.440  0.00  0.00    +0.000 C 
ATOM     12  C   UNL     1      46.750   0.834   7.630  0.00  0.00    +0.000 C 
ATOM     13  C   UNL     1      47.866   1.481   6.816  0.00  0.00    +0.000 C 
ATOM     14  C   UNL     1      47.322   2.576   5.909  0.00  0.00    +0.000 C 
ATOM     15  C   UNL     1      46.555   3.625   6.708  0.00  0.00    +0.000 C 
ENDBRANCH   9  10
BRANCH   9  16
ATOM     16  O   UNL     1      43.607   3.433   9.147  0.00  0.00    +0.000 OA
ATOM     17  H   UNL     1      42.938   4.109   9.342  0.00  0.00    +0.000 HD
ENDBRANCH   9  16
ENDBRANCH   8   9
ENDBRANCH   5   8
ENDBRANCH   1   2
BRANCH   1  20
ATOM     18  O   UNL     1      49.212   6.763  14.092  0.00  0.00    +0.000 OA
ATOM     19  C   UNL     1      48.626   6.366  15.093  0.00  0.00    +0.000 C 
ATOM     20  N   UNL     1      47.515   5.560  15.041  0.00  0.00    +0.000 N 
ATOM     21  H   UNL     1      47.133   5.199  15.905  0.00  0.00    +0.000 HD
BRANCH  19  22
ATOM     22  C   UNL     1      49.028   6.769  16.444  0.00  0.00    +0.000 A 
ATOM     23  C   UNL     1      49.106   8.111  16.790  0.00  0.00    +0.000 A 
ATOM     24  S   UNL     1      49.509   8.364  18.430  0.00  0.00    +0.000 S 
ATOM     25  C   UNL     1      49.638   6.691  18.717  0.00  0.00    +0.000 A 
ATOM     26  N   UNL     1      49.947   6.209  19.950  0.00  0.00    +0.000 NA
ATOM     27  C   UNL     1      50.045   4.921  20.011  0.00  0.00    +0.000 A 
ATOM     28  N   UNL     1      49.875   4.073  18.950  0.00  0.00    +0.000 N 
ATOM     29  C   UNL     1      49.536   4.511  17.693  0.00  0.00    +0.000 A 
ATOM     30  O   UNL     1      49.333   3.717  16.780  0.00  0.00    +0.000 OA
ATOM     31  C   UNL     1      49.395   5.950  17.575  0.00  0.00    +0.000 A 
ATOM     32  H   UNL     1      49.962   3.074  19.062  0.00  0.00    +0.000 HD
ENDBRANCH  19  22
ENDBRANCH   1  20
TORSDOF 7
ENDMDL
MODEL 4
REMARK VINA RESULT:    -7.443      3.839      4.686
REMARK INTER + INTRA:         -11.321
REMARK INTER:                 -10.376
REMARK INTRA:                  -0.945
REMARK UNBOUND:                -1.049
REMARK  Name = 
REMARK  7 active torsions:
REMARK  status: ('A' for Active; 'I' for Inactive)
REMARK    1  A    between atoms: C_2  and  C_20
REMARK    2  A    between atoms: N_3  and  C_4
REMARK    3  A    between atoms: C_4  and  C_5
REMARK    4  A    between atoms: N_8  and  C_9
REMARK    5  A    between atoms: C_9  and  C_10
REMARK    6  A    between atoms: C_10  and  O_11
REMARK    7  A    between atoms: C_10  and  C_12
REMARK                            x       y       z     vdW  Elec       q    Type
REMARK                         _______ _______ _______ _____ _____    ______ ____
ROOT
ATOM      1  C   UNL     1      47.710   5.826  13.012  0.00  0.00    +0.000 C 
ENDROOT
BRANCH   1   2
ATOM      2  C   UNL     1      46.219   6.077  13.283  0.00  0.00    +0.000 C 
ATOM      3  C   UNL     1      45.458   4.811  13.703  0.00  0.00    +0.000 C 
ATOM      4  C   UNL     1      45.320   3.801  12.562  0.00  0.00    +0.000 C 
ATOM      5  N   UNL     1      44.761   4.376  11.330  0.00  0.00    +0.000 NA
ATOM      6  C   UNL     1      45.417   5.625  10.914  0.00  0.00    +0.000 C 
ATOM      7  C   UNL     1      45.529   6.652  12.043  0.00  0.00    +0.000 C 
BRANCH   5   8
ATOM      8  C   UNL     1      44.815   3.391  10.228  0.00  0.00    +0.000 C 
BRANCH   8   9
ATOM      9  C   UNL     1      44.909   4.000   8.806  0.00  0.00    +0.000 C 
BRANCH   9  10
ATOM     10  C   UNL     1      45.524   3.039   7.760  0.00  0.00    +0.000 C 
ATOM     11  C   UNL     1      46.128   1.796   8.441  0.00  0.00    +0.000 C 
ATOM     12  C   UNL     1      46.758   0.841   7.430  0.00  0.00    +0.000 C 
ATOM     13  C   UNL     1      47.798   1.548   6.567  0.00  0.00    +0.000 C 
ATOM     14  C   UNL     1      47.198   2.758   5.864  0.00  0.00    +0.000 C 
ATOM     15  C   UNL     1      46.574   3.725   6.865  0.00  0.00    +0.000 C 
ENDBRANCH   9  10
BRANCH   9  16
ATOM     16  O   UNL     1      43.607   4.440   8.395  0.00  0.00    +0.000 OA
ATOM     17  H   UNL     1      43.685   4.827   7.507  0.00  0.00    +0.000 HD
ENDBRANCH   9  16
ENDBRANCH   8   9
ENDBRANCH   5   8
ENDBRANCH   1   2
BRANCH   1  20
ATOM     18  O   UNL     1      49.741   6.770  14.785  0.00  0.00    +0.000 OA
ATOM     19  C   UNL     1      49.378   7.469  13.846  0.00  0.00    +0.000 C 
ATOM     20  N   UNL     1      48.463   7.053  12.911  0.00  0.00    +0.000 N 
ATOM     21  H   UNL     1      48.145   7.711  12.212  0.00  0.00    +0.000 HD
BRANCH  19  22
ATOM     22  C   UNL     1      49.940   8.802  13.603  0.00  0.00    +0.000 A 
ATOM     23  C   UNL     1      49.743   9.831  14.514  0.00  0.00    +0.000 A 
ATOM     24  S   UNL     1      50.550  11.274  14.086  0.00  0.00    +0.000 S 
ATOM     25  C   UNL     1      51.146  10.585  12.649  0.00  0.00    +0.000 A 
ATOM     26  N   UNL     1      51.942  11.293  11.804  0.00  0.00    +0.000 NA
ATOM     27  C   UNL     1      52.291  10.653  10.736  0.00  0.00    +0.000 A 
ATOM     28  N   UNL     1      51.907   9.375  10.430  0.00  0.00    +0.000 N 
ATOM     29  C   UNL     1      51.127   8.611  11.264  0.00  0.00    +0.000 A 
ATOM     30  O   UNL     1      50.852   7.449  10.983  0.00  0.00    +0.000 OA
ATOM     31  C   UNL     1      50.723   9.278  12.488  0.00  0.00    +0.000 A 
ATOM     32  H   UNL     1      52.215   8.928   9.580  0.00  0.00    +0.000 HD
ENDBRANCH  19  22
ENDBRANCH   1  20
TORSDOF 7
ENDMDL
MODEL 5
REMARK VINA RESULT:    -7.351      3.871      4.606
REMARK INTER + INTRA:         -11.194
REMARK INTER:                 -10.630
REMARK INTRA:                  -0.563
REMARK UNBOUND:                -1.049
REMARK  Name = 
REMARK  7 active torsions:
REMARK  status: ('A' for Active; 'I' for Inactive)
REMARK    1  A    between atoms: C_2  and  C_20
REMARK    2  A    between atoms: N_3  and  C_4
REMARK    3  A    between atoms: C_4  and  C_5
REMARK    4  A    between atoms: N_8  and  C_9
REMARK    5  A    between atoms: C_9  and  C_10
REMARK    6  A    between atoms: C_10  and  O_11
REMARK    7  A    between atoms: C_10  and  C_12
REMARK                            x       y       z     vdW  Elec       q    Type
REMARK                         _______ _______ _______ _____ _____    ______ ____
ROOT
ATOM      1  C   UNL     1      45.110   6.840  12.260  0.00  0.00    +0.000 C 
ENDROOT
BRANCH   1   2
ATOM      2  C   UNL     1      44.669   5.717  13.213  0.00  0.00    +0.000 C 
ATOM      3  C   UNL     1      45.594   4.492  13.174  0.00  0.00    +0.000 C 
ATOM      4  C   UNL     1      45.502   3.726  11.854  0.00  0.00    +0.000 C 
ATOM      5  N   UNL     1      44.127   3.369  11.474  0.00  0.00    +0.000 NA
ATOM      6  C   UNL     1      43.186   4.496  11.549  0.00  0.00    +0.000 C 
ATOM      7  C   UNL     1      43.250   5.248  12.880  0.00  0.00    +0.000 C 
BRANCH   5   8
ATOM      8  C   UNL     1      44.101   2.784  10.115  0.00  0.00    +0.000 C 
BRANCH   8   9
ATOM      9  C   UNL     1      44.746   3.658   9.011  0.00  0.00    +0.000 C 
BRANCH   9  10
ATOM     10  C   UNL     1      45.401   2.837   7.874  0.00  0.00    +0.000 C 
ATOM     11  C   UNL     1      46.185   1.639   8.442  0.00  0.00    +0.000 C 
ATOM     12  C   UNL     1      46.858   0.823   7.340  0.00  0.00    +0.000 C 
ATOM     13  C   UNL     1      47.753   1.696   6.466  0.00  0.00    +0.000 C 
ATOM     14  C   UNL     1      46.975   2.863   5.875  0.00  0.00    +0.000 C 
ATOM     15  C   UNL     1      46.307   3.692   6.967  0.00  0.00    +0.000 C 
ENDBRANCH   9  10
BRANCH   9  16
ATOM     16  O   UNL     1      43.761   4.560   8.489  0.00  0.00    +0.000 OA
ATOM     17  H   UNL     1      44.179   5.098   7.797  0.00  0.00    +0.000 HD
ENDBRANCH   9  16
ENDBRANCH   8   9
ENDBRANCH   5   8
ENDBRANCH   1   2
BRANCH   1  20
ATOM     18  O   UNL     1      46.048   9.446  12.959  0.00  0.00    +0.000 OA
ATOM     19  C   UNL     1      46.852   8.542  12.755  0.00  0.00    +0.000 C 
ATOM     20  N   UNL     1      46.475   7.249  12.489  0.00  0.00    +0.000 N 
ATOM     21  H   UNL     1      47.186   6.574  12.246  0.00  0.00    +0.000 HD
BRANCH  19  22
ATOM     22  C   UNL     1      48.300   8.754  12.837  0.00  0.00    +0.000 A 
ATOM     23  C   UNL     1      49.079   8.000  13.704  0.00  0.00    +0.000 A 
ATOM     24  S   UNL     1      50.747   8.344  13.584  0.00  0.00    +0.000 S 
ATOM     25  C   UNL     1      50.476   9.543  12.408  0.00  0.00    +0.000 A 
ATOM     26  N   UNL     1      51.508  10.235  11.854  0.00  0.00    +0.000 NA
ATOM     27  C   UNL     1      51.150  11.138  11.001  0.00  0.00    +0.000 A 
ATOM     28  N   UNL     1      49.854  11.421  10.660  0.00  0.00    +0.000 N 
ATOM     29  C   UNL     1      48.782  10.732  11.171  0.00  0.00    +0.000 A 
ATOM     30  O   UNL     1      47.639  10.974  10.797  0.00  0.00    +0.000 OA
ATOM     31  C   UNL     1      49.131   9.693  12.121  0.00  0.00    +0.000 A 
ATOM     32  H   UNL     1      49.639  12.138   9.984  0.00  0.00    +0.000 HD
ENDBRANCH  19  22
ENDBRANCH   1  20
TORSDOF 7
ENDMDL
MODEL 6
REMARK VINA RESULT:    -7.327      1.861      2.293
REMARK INTER + INTRA:         -11.160
REMARK INTER:                 -10.744
REMARK INTRA:                  -0.417
REMARK UNBOUND:                -1.049
REMARK  Name = 
REMARK  7 active torsions:
REMARK  status: ('A' for Active; 'I' for Inactive)
REMARK    1  A    between atoms: C_2  and  C_20
REMARK    2  A    between atoms: N_3  and  C_4
REMARK    3  A    between atoms: C_4  and  C_5
REMARK    4  A    between atoms: N_8  and  C_9
REMARK    5  A    between atoms: C_9  and  C_10
REMARK    6  A    between atoms: C_10  and  O_11
REMARK    7  A    between atoms: C_10  and  C_12
REMARK                            x       y       z     vdW  Elec       q    Type
REMARK                         _______ _______ _______ _____ _____    ______ ____
ROOT
ATOM      1  C   UNL     1      47.134   5.724  13.661  0.00  0.00    +0.000 C 
ENDROOT
BRANCH   1   2
ATOM      2  C   UNL     1      45.602   5.740  13.540  0.00  0.00    +0.000 C 
ATOM      3  C   UNL     1      45.019   4.404  13.057  0.00  0.00    +0.000 C 
ATOM      4  C   UNL     1      45.365   4.103  11.598  0.00  0.00    +0.000 C 
ATOM      5  N   UNL     1      45.028   5.197  10.675  0.00  0.00    +0.000 NA
ATOM      6  C   UNL     1      45.514   6.511  11.120  0.00  0.00    +0.000 C 
ATOM      7  C   UNL     1      45.144   6.832  12.570  0.00  0.00    +0.000 C 
BRANCH   5   8
ATOM      8  C   UNL     1      45.541   4.906   9.318  0.00  0.00    +0.000 C 
BRANCH   8   9
ATOM      9  C   UNL     1      44.623   4.013   8.446  0.00  0.00    +0.000 C 
BRANCH   9  10
ATOM     10  C   UNL     1      45.393   2.969   7.603  0.00  0.00    +0.000 C 
ATOM     11  C   UNL     1      45.931   1.832   8.492  0.00  0.00    +0.000 C 
ATOM     12  C   UNL     1      46.712   0.797   7.685  0.00  0.00    +0.000 C 
ATOM     13  C   UNL     1      47.839   1.446   6.888  0.00  0.00    +0.000 C 
ATOM     14  C   UNL     1      47.309   2.548   5.982  0.00  0.00    +0.000 C 
ATOM     15  C   UNL     1      46.535   3.593   6.778  0.00  0.00    +0.000 C 
ENDBRANCH   9  10
BRANCH   9  16
ATOM     16  O   UNL     1      43.649   3.378   9.285  0.00  0.00    +0.000 OA
ATOM     17  H   UNL     1      43.681   3.799  10.159  0.00  0.00    +0.000 HD
ENDBRANCH   9  16
ENDBRANCH   8   9
ENDBRANCH   5   8
ENDBRANCH   1   2
BRANCH   1  20
ATOM     18  O   UNL     1      49.611   6.812  14.578  0.00  0.00    +0.000 OA
ATOM     19  C   UNL     1      48.817   6.338  15.384  0.00  0.00    +0.000 C 
ATOM     20  N   UNL     1      47.578   5.867  15.027  0.00  0.00    +0.000 N 
ATOM     21  H   UNL     1      47.009   5.412  15.727  0.00  0.00    +0.000 HD
BRANCH  19  22
ATOM     22  C   UNL     1      49.101   6.289  16.822  0.00  0.00    +0.000 A 
ATOM     23  C   UNL     1      49.616   5.139  17.403  0.00  0.00    +0.000 A 
ATOM     24  S   UNL     1      49.955   5.318  19.068  0.00  0.00    +0.000 S 
ATOM     25  C   UNL     1      49.378   6.919  19.073  0.00  0.00    +0.000 A 
ATOM     26  N   UNL     1      49.399   7.673  20.205  0.00  0.00    +0.000 NA
ATOM     27  C   UNL     1      48.899   8.857  20.068  0.00  0.00    +0.000 A 
ATOM     28  N   UNL     1      48.369   9.352  18.906  0.00  0.00    +0.000 N 
ATOM     29  C   UNL     1      48.351   8.639  17.732  0.00  0.00    +0.000 A 
ATOM     30  O   UNL     1      47.921   9.138  16.697  0.00  0.00    +0.000 OA
ATOM     31  C   UNL     1      48.919   7.308  17.828  0.00  0.00    +0.000 A 
ATOM     32  H   UNL     1      47.995  10.288  18.862  0.00  0.00    +0.000 HD
ENDBRANCH  19  22
ENDBRANCH   1  20
TORSDOF 7
ENDMDL
MODEL 7
REMARK VINA RESULT:    -7.303      2.649      3.777
REMARK INTER + INTRA:         -11.127
REMARK INTER:                 -10.564
REMARK INTRA:                  -0.563
REMARK UNBOUND:                -1.049
REMARK  Name = 
REMARK  7 active torsions:
REMARK  status: ('A' for Active; 'I' for Inactive)
REMARK    1  A    between atoms: C_2  and  C_20
REMARK    2  A    between atoms: N_3  and  C_4
REMARK    3  A    between atoms: C_4  and  C_5
REMARK    4  A    between atoms: N_8  and  C_9
REMARK    5  A    between atoms: C_9  and  C_10
REMARK    6  A    between atoms: C_10  and  O_11
REMARK    7  A    between atoms: C_10  and  C_12
REMARK                            x       y       z     vdW  Elec       q    Type
REMARK                         _______ _______ _______ _____ _____    ______ ____
ROOT
ATOM      1  C   UNL     1      47.119   5.322  15.352  0.00  0.00    +0.000 C 
ENDROOT
BRANCH   1   2
ATOM      2  C   UNL     1      47.386   5.718  13.891  0.00  0.00    +0.000 C 
ATOM      3  C   UNL     1      46.305   6.637  13.304  0.00  0.00    +0.000 C 
ATOM      4  C   UNL     1      44.966   5.923  13.110  0.00  0.00    +0.000 C 
ATOM      5  N   UNL     1      45.073   4.669  12.349  0.00  0.00    +0.000 NA
ATOM      6  C   UNL     1      46.135   3.775  12.834  0.00  0.00    +0.000 C 
ATOM      7  C   UNL     1      47.484   4.477  13.000  0.00  0.00    +0.000 C 
BRANCH   5   8
ATOM      8  C   UNL     1      43.778   3.953  12.346  0.00  0.00    +0.000 C 
BRANCH   8   9
ATOM      9  C   UNL     1      43.500   3.101  11.083  0.00  0.00    +0.000 C 
BRANCH   9  10
ATOM     10  C   UNL     1      44.679   3.076  10.080  0.00  0.00    +0.000 C 
ATOM     11  C   UNL     1      44.641   4.307   9.155  0.00  0.00    +0.000 C 
ATOM     12  C   UNL     1      45.785   4.295   8.143  0.00  0.00    +0.000 C 
ATOM     13  C   UNL     1      45.800   3.003   7.332  0.00  0.00    +0.000 C 
ATOM     14  C   UNL     1      45.872   1.784   8.241  0.00  0.00    +0.000 C 
ATOM     15  C   UNL     1      44.728   1.779   9.250  0.00  0.00    +0.000 C 
ENDBRANCH   9  10
BRANCH   9  16
ATOM     16  O   UNL     1      43.138   1.772  11.482  0.00  0.00    +0.000 OA
ATOM     17  H   UNL     1      42.868   1.281  10.689  0.00  0.00    +0.000 HD
ENDBRANCH   9  16
ENDBRANCH   8   9
ENDBRANCH   5   8
ENDBRANCH   1   2
BRANCH   1  20
ATOM     18  O   UNL     1      47.376   4.523  18.082  0.00  0.00    +0.000 OA
ATOM     19  C   UNL     1      48.371   4.588  17.369  0.00  0.00    +0.000 C 
ATOM     20  N   UNL     1      48.317   4.891  16.031  0.00  0.00    +0.000 N 
ATOM     21  H   UNL     1      49.182   5.011  15.522  0.00  0.00    +0.000 HD
BRANCH  19  22
ATOM     22  C   UNL     1      49.713   4.285  17.875  0.00  0.00    +0.000 A 
ATOM     23  C   UNL     1      50.384   5.187  18.690  0.00  0.00    +0.000 A 
ATOM     24  S   UNL     1      51.894   4.607  19.238  0.00  0.00    +0.000 S 
ATOM     25  C   UNL     1      51.720   3.156  18.366  0.00  0.00    +0.000 A 
ATOM     26  N   UNL     1      52.673   2.188  18.412  0.00  0.00    +0.000 NA
ATOM     27  C   UNL     1      52.423   1.156  17.674  0.00  0.00    +0.000 A 
ATOM     28  N   UNL     1      51.314   1.011  16.884  0.00  0.00    +0.000 N 
ATOM     29  C   UNL     1      50.312   1.949  16.826  0.00  0.00    +0.000 A 
ATOM     30  O   UNL     1      49.305   1.757  16.153  0.00  0.00    +0.000 OA
ATOM     31  C   UNL     1      50.536   3.120  17.653  0.00  0.00    +0.000 A 
ATOM     32  H   UNL     1      51.174   0.179  16.331  0.00  0.00    +0.000 HD
ENDBRANCH  19  22
ENDBRANCH   1  20
TORSDOF 7
ENDMDL
MODEL 8
REMARK VINA RESULT:    -6.904      2.746      3.913
REMARK INTER + INTRA:         -10.577
REMARK INTER:                  -9.676
REMARK INTRA:                  -0.901
REMARK UNBOUND:                -1.049
REMARK  Name = 
REMARK  7 active torsions:
REMARK  status: ('A' for Active; 'I' for Inactive)
REMARK    1  A    between atoms: C_2  and  C_20
REMARK    2  A    between atoms: N_3  and  C_4
REMARK    3  A    between atoms: C_4  and  C_5
REMARK    4  A    between atoms: N_8  and  C_9
REMARK    5  A    between atoms: C_9  and  C_10
REMARK    6  A    between atoms: C_10  and  O_11
REMARK    7  A    between atoms: C_10  and  C_12
REMARK                            x       y       z     vdW  Elec       q    Type
REMARK                         _______ _______ _______ _____ _____    ______ ____
ROOT
ATOM      1  C   UNL     1      46.849   8.296  13.472  0.00  0.00    +0.000 C 
ENDROOT
BRANCH   1   2
ATOM      2  C   UNL     1      47.567   7.043  12.946  0.00  0.00    +0.000 C 
ATOM      3  C   UNL     1      47.439   6.865  11.426  0.00  0.00    +0.000 C 
ATOM      4  C   UNL     1      46.015   6.517  10.991  0.00  0.00    +0.000 C 
ATOM      5  N   UNL     1      45.442   5.371  11.713  0.00  0.00    +0.000 NA
ATOM      6  C   UNL     1      45.589   5.463  13.173  0.00  0.00    +0.000 C 
ATOM      7  C   UNL     1      47.019   5.780  13.616  0.00  0.00    +0.000 C 
BRANCH   5   8
ATOM      8  C   UNL     1      44.014   5.200  11.363  0.00  0.00    +0.000 C 
BRANCH   8   9
ATOM      9  C   UNL     1      43.704   3.994  10.440  0.00  0.00    +0.000 C 
BRANCH   9  10
ATOM     10  C   UNL     1      44.933   3.487   9.648  0.00  0.00    +0.000 C 
ATOM     11  C   UNL     1      45.206   4.381   8.424  0.00  0.00    +0.000 C 
ATOM     12  C   UNL     1      46.404   3.890   7.614  0.00  0.00    +0.000 C 
ATOM     13  C   UNL     1      46.236   2.432   7.198  0.00  0.00    +0.000 C 
ATOM     14  C   UNL     1      45.999   1.538   8.408  0.00  0.00    +0.000 C 
ATOM     15  C   UNL     1      44.798   2.013   9.219  0.00  0.00    +0.000 C 
ENDBRANCH   9  10
BRANCH   9  16
ATOM     16  O   UNL     1      43.127   2.939  11.222  0.00  0.00    +0.000 OA
ATOM     17  H   UNL     1      43.790   2.644  11.867  0.00  0.00    +0.000 HD
ENDBRANCH   9  16
ENDBRANCH   8   9
ENDBRANCH   5   8
ENDBRANCH   1   2
BRANCH   1  20
ATOM     18  O   UNL     1      49.072   9.794  14.457  0.00  0.00    +0.000 OA
ATOM     19  C   UNL     1      48.306   9.250  15.245  0.00  0.00    +0.000 C 
ATOM     20  N   UNL     1      47.176   8.578  14.849  0.00  0.00    +0.000 N 
ATOM     21  H   UNL     1      46.635   8.081  15.544  0.00  0.00    +0.000 HD
BRANCH  19  22
ATOM     22  C   UNL     1      48.499   9.323  16.696  0.00  0.00    +0.000 A 
ATOM     23  C   UNL     1      48.494  10.547  17.352  0.00  0.00    +0.000 A 
ATOM     24  S   UNL     1      48.650  10.404  19.047  0.00  0.00    +0.000 S 
ATOM     25  C   UNL     1      48.779   8.710  18.953  0.00  0.00    +0.000 A 
ATOM     26  N   UNL     1      48.919   7.950  20.071  0.00  0.00    +0.000 NA
ATOM     27  C   UNL     1      49.038   6.683  19.845  0.00  0.00    +0.000 A 
ATOM     28  N   UNL     1      49.044   6.108  18.602  0.00  0.00    +0.000 N 
ATOM     29  C   UNL     1      48.878   6.831  17.446  0.00  0.00    +0.000 A 
ATOM     30  O   UNL     1      48.829   6.274  16.354  0.00  0.00    +0.000 OA
ATOM     31  C   UNL     1      48.720   8.259  17.646  0.00  0.00    +0.000 A 
ATOM     32  H   UNL     1      49.139   5.110  18.491  0.00  0.00    +0.000 HD
ENDBRANCH  19  22
ENDBRANCH   1  20
TORSDOF 7
ENDMDL
MODEL 9
REMARK VINA RESULT:    -6.898      2.839      8.466
REMARK INTER + INTRA:         -10.568
REMARK INTER:                  -9.469
REMARK INTRA:                  -1.099
REMARK UNBOUND:                -1.049
REMARK  Name = 
REMARK  7 active torsions:
REMARK  status: ('A' for Active; 'I' for Inactive)
REMARK    1  A    between atoms: C_2  and  C_20
REMARK    2  A    between atoms: N_3  and  C_4
REMARK    3  A    between atoms: C_4  and  C_5
REMARK    4  A    between atoms: N_8  and  C_9
REMARK    5  A    between atoms: C_9  and  C_10
REMARK    6  A    between atoms: C_10  and  O_11
REMARK    7  A    between atoms: C_10  and  C_12
REMARK                            x       y       z     vdW  Elec       q    Type
REMARK                         _______ _______ _______ _____ _____    ______ ____
ROOT
ATOM      1  C   UNL     1      46.247   8.236  12.613  0.00  0.00    +0.000 C 
ENDROOT
BRANCH   1   2
ATOM      2  C   UNL     1      47.618   8.643  12.051  0.00  0.00    +0.000 C 
ATOM      3  C   UNL     1      48.599   7.466  11.936  0.00  0.00    +0.000 C 
ATOM      4  C   UNL     1      49.052   6.941  13.300  0.00  0.00    +0.000 C 
ATOM      5  N   UNL     1      49.576   7.988  14.190  0.00  0.00    +0.000 NA
ATOM      6  C   UNL     1      48.701   9.165  14.291  0.00  0.00    +0.000 C 
ATOM      7  C   UNL     1      48.270   9.714  12.930  0.00  0.00    +0.000 C 
BRANCH   5   8
ATOM      8  C   UNL     1      49.834   7.438  15.539  0.00  0.00    +0.000 C 
BRANCH   8   9
ATOM      9  C   UNL     1      48.582   6.912  16.285  0.00  0.00    +0.000 C 
BRANCH   9  10
ATOM     10  C   UNL     1      48.677   5.419  16.680  0.00  0.00    +0.000 C 
ATOM     11  C   UNL     1      47.683   4.570  15.866  0.00  0.00    +0.000 C 
ATOM     12  C   UNL     1      47.744   3.094  16.251  0.00  0.00    +0.000 C 
ATOM     13  C   UNL     1      47.530   2.898  17.748  0.00  0.00    +0.000 C 
ATOM     14  C   UNL     1      48.532   3.709  18.558  0.00  0.00    +0.000 C 
ATOM     15  C   UNL     1      48.473   5.187  18.189  0.00  0.00    +0.000 C 
ENDBRANCH   9  10
BRANCH   9  16
ATOM     16  O   UNL     1      48.342   7.733  17.437  0.00  0.00    +0.000 OA
ATOM     17  H   UNL     1      47.457   8.125  17.350  0.00  0.00    +0.000 HD
ENDBRANCH   9  16
ENDBRANCH   8   9
ENDBRANCH   5   8
ENDBRANCH   1   2
BRANCH   1  20
ATOM     18  O   UNL     1      43.809   7.501  11.319  0.00  0.00    +0.000 OA
ATOM     19  C   UNL     1      44.622   6.636  11.625  0.00  0.00    +0.000 C 
ATOM     20  N   UNL     1      45.845   6.919  12.180  0.00  0.00    +0.000 N 
ATOM     21  H   UNL     1      46.431   6.155  12.487  0.00  0.00    +0.000 HD
BRANCH  19  22
ATOM     22  C   UNL     1      44.380   5.213  11.368  0.00  0.00    +0.000 A 
ATOM     23  C   UNL     1      43.639   4.447  12.257  0.00  0.00    +0.000 A 
ATOM     24  S   UNL     1      43.403   2.840  11.729  0.00  0.00    +0.000 S 
ATOM     25  C   UNL     1      44.325   3.103  10.324  0.00  0.00    +0.000 A 
ATOM     26  N   UNL     1      44.511   2.116   9.407  0.00  0.00    +0.000 NA
ATOM     27  C   UNL     1      45.261   2.450   8.408  0.00  0.00    +0.000 A 
ATOM     28  N   UNL     1      45.851   3.675   8.248  0.00  0.00    +0.000 N 
ATOM     29  C   UNL     1      45.670   4.710   9.131  0.00  0.00    +0.000 A 
ATOM     30  O   UNL     1      46.167   5.812   8.924  0.00  0.00    +0.000 OA
ATOM     31  C   UNL     1      44.820   4.393  10.264  0.00  0.00    +0.000 A 
ATOM     32  H   UNL     1      46.425   3.875   7.442  0.00  0.00    +0.000 HD
ENDBRANCH  19  22
ENDBRANCH   1  20
TORSDOF 7
ENDMDL
