MODEL 1
REMARK VINA RESULT:    -8.464      0.000      0.000
REMARK INTER + INTRA:         -10.734
REMARK INTER:                 -10.443
REMARK INTRA:                  -0.291
REMARK UNBOUND:                -0.291
REMARK  Name = 
REMARK  6 active torsions:
REMARK  status: ('A' for Active; 'I' for Inactive)
REMARK    1  A    between atoms: C_1  and  C_2
REMARK    2  A    between atoms: C_2  and  C_3
REMARK    3  A    between atoms: C_2  and  O_4
REMARK    4  A    between atoms: C_2  and  C_14
REMARK    5  A    between atoms: O_4  and  C_5
REMARK    6  A    between atoms: C_8  and  C_9
REMARK                            x       y       z     vdW  Elec       q    Type
REMARK                         _______ _______ _______ _____ _____    ______ ____
ROOT
ATOM      1  C   UNL     1      44.510   3.801   9.211  0.00  0.00    +0.000 A 
ATOM      2  C   UNL     1      45.399   4.517   8.406  0.00  0.00    +0.000 A 
ATOM      3  C   UNL     1      46.373   3.850   7.652  0.00  0.00    +0.000 A 
ATOM      4  C   UNL     1      46.477   2.455   7.712  0.00  0.00    +0.000 A 
ATOM      5  C   UNL     1      45.629   1.747   8.565  0.00  0.00    +0.000 A 
ATOM      6  C   UNL     1      44.675   2.422   9.330  0.00  0.00    +0.000 A 
ENDROOT
BRANCH   4   7
ATOM      7  C   UNL     1      47.455   1.762   6.835  0.00  0.00    +0.000 C 
ATOM      8  N   UNL     1      48.543   2.478   6.413  0.00  0.00    +0.000 N 
ATOM      9  O   UNL     1      47.299   0.599   6.491  0.00  0.00    +0.000 OA
ATOM     10  H   UNL     1      48.604   3.484   6.481  0.00  0.00    +0.000 HD
ATOM     11  H   UNL     1      49.166   2.013   5.766  0.00  0.00    +0.000 HD
ENDBRANCH   4   7
BRANCH   1  12
ATOM     12  O   UNL     1      43.537   4.540   9.825  0.00  0.00    +0.000 OA
BRANCH  12  14
ATOM     13  C   UNL     1      42.384   5.617  11.786  0.00  0.00    +0.000 C 
ATOM     14  C   UNL     1      43.458   4.631  11.273  0.00  0.00    +0.000 C 
ATOM     15  C   UNL     1      43.268   3.205  11.824  0.00  0.00    +0.000 C 
BRANCH  14  16
ATOM     16  C   UNL     1      44.784   5.235  11.777  0.00  0.00    +0.000 A 
ATOM     17  C   UNL     1      45.143   6.562  11.508  0.00  0.00    +0.000 A 
ATOM     18  C   UNL     1      46.256   7.128  12.129  0.00  0.00    +0.000 A 
ATOM     19  C   UNL     1      46.992   6.349  13.003  0.00  0.00    +0.000 A 
ATOM     20  N   UNL     1      46.703   5.062  13.278  0.00  0.00    +0.000 NA
ATOM     21  C   UNL     1      45.614   4.542  12.665  0.00  0.00    +0.000 A 
ENDBRANCH  14  16
ENDBRANCH  12  14
ENDBRANCH   1  12
TORSDOF 4
ENDMDL
MODEL 2
REMARK VINA RESULT:    -6.530      1.184      2.048
REMARK INTER + INTRA:          -8.348
REMARK INTER:                  -8.822
REMARK INTRA:                   0.474
REMARK UNBOUND:                -0.291
REMARK  Name = 
REMARK  6 active torsions:
REMARK  status: ('A' for Active; 'I' for Inactive)
REMARK    1  A    between atoms: C_1  and  C_2
REMARK    2  A    between atoms: C_2  and  C_3
REMARK    3  A    between atoms: C_2  and  O_4
REMARK    4  A    between atoms: C_2  and  C_14
REMARK    5  A    between atoms: O_4  and  C_5
REMARK    6  A    between atoms: C_8  and  C_9
REMARK                            x       y       z     vdW  Elec       q    Type
REMARK                         _______ _______ _______ _____ _____    ______ ____
ROOT
ATOM      1  C   UNL     1      44.845   3.431   9.568  0.00  0.00    +0.000 A 
ATOM      2  C   UNL     1      45.160   2.116   9.217  0.00  0.00    +0.000 A 
ATOM      3  C   UNL     1      45.982   1.850   8.115  0.00  0.00    +0.000 A 
ATOM      4  C   UNL     1      46.482   2.902   7.339  0.00  0.00    +0.000 A 
ATOM      5  C   UNL     1      46.114   4.211   7.653  0.00  0.00    +0.000 A 
ATOM      6  C   UNL     1      45.278   4.467   8.742  0.00  0.00    +0.000 A 
ENDROOT
BRANCH   4   7
ATOM      7  C   UNL     1      47.425   2.603   6.231  0.00  0.00    +0.000 C 
ATOM      8  N   UNL     1      48.630   2.043   6.562  0.00  0.00    +0.000 N 
ATOM      9  O   UNL     1      47.148   2.850   5.066  0.00  0.00    +0.000 OA
ATOM     10  H   UNL     1      48.992   2.025   7.505  0.00  0.00    +0.000 HD
ATOM     11  H   UNL     1      49.285   1.902   5.805  0.00  0.00    +0.000 HD
ENDBRANCH   4   7
BRANCH   1  12
ATOM     12  O   UNL     1      44.121   3.583  10.718  0.00  0.00    +0.000 OA
BRANCH  12  14
ATOM     13  C   UNL     1      44.498   6.068  10.578  0.00  0.00    +0.000 C 
ATOM     14  C   UNL     1      44.105   4.845  11.438  0.00  0.00    +0.000 C 
ATOM     15  C   UNL     1      42.715   4.997  12.087  0.00  0.00    +0.000 C 
BRANCH  14  16
ATOM     16  C   UNL     1      45.203   4.783  12.517  0.00  0.00    +0.000 A 
ATOM     17  C   UNL     1      45.771   3.570  12.928  0.00  0.00    +0.000 A 
ATOM     18  C   UNL     1      46.884   3.564  13.768  0.00  0.00    +0.000 A 
ATOM     19  C   UNL     1      47.402   4.777  14.186  0.00  0.00    +0.000 A 
ATOM     20  N   UNL     1      46.880   5.969  13.839  0.00  0.00    +0.000 NA
ATOM     21  C   UNL     1      45.804   5.943  13.019  0.00  0.00    +0.000 A 
ENDBRANCH  14  16
ENDBRANCH  12  14
ENDBRANCH   1  12
TORSDOF 4
ENDMDL
MODEL 3
REMARK VINA RESULT:    -6.400      2.756      6.413
REMARK INTER + INTRA:          -8.187
REMARK INTER:                  -7.721
REMARK INTRA:                  -0.465
REMARK UNBOUND:                -0.291
REMARK  Name = 
REMARK  6 active torsions:
REMARK  status: ('A' for Active; 'I' for Inactive)
REMARK    1  A    between atoms: C_1  and  C_2
REMARK    2  A    between atoms: C_2  and  C_3
REMARK    3  A    between atoms: C_2  and  O_4
REMARK    4  A    between atoms: C_2  and  C_14
REMARK    5  A    between atoms: O_4  and  C_5
REMARK    6  A    between atoms: C_8  and  C_9
REMARK                            x       y       z     vdW  Elec       q    Type
REMARK                         _______ _______ _______ _____ _____    ______ ____
ROOT
ATOM      1  C   UNL     1      45.752   6.932  11.501  0.00  0.00    +0.000 A 
ATOM      2  C   UNL     1      47.120   6.655  11.553  0.00  0.00    +0.000 A 
ATOM      3  C   UNL     1      47.934   7.260  12.519  0.00  0.00    +0.000 A 
ATOM      4  C   UNL     1      47.385   8.167  13.434  0.00  0.00    +0.000 A 
ATOM      5  C   UNL     1      46.030   8.489  13.341  0.00  0.00    +0.000 A 
ATOM      6  C   UNL     1      45.230   7.897  12.361  0.00  0.00    +0.000 A 
ENDROOT
BRANCH   4   7
ATOM      7  C   UNL     1      48.247   8.726  14.507  0.00  0.00    +0.000 C 
ATOM      8  N   UNL     1      47.626   9.186  15.638  0.00  0.00    +0.000 N 
ATOM      9  O   UNL     1      49.463   8.785  14.391  0.00  0.00    +0.000 OA
ATOM     10  H   UNL     1      46.634   9.364  15.692  0.00  0.00    +0.000 HD
ATOM     11  H   UNL     1      48.220   9.621  16.332  0.00  0.00    +0.000 HD
ENDBRANCH   4   7
BRANCH   1  12
ATOM     12  O   UNL     1      45.033   6.212  10.588  0.00  0.00    +0.000 OA
BRANCH  12  14
ATOM     13  C   UNL     1      45.261   4.218  12.109  0.00  0.00    +0.000 C 
ATOM     14  C   UNL     1      44.581   4.861  10.878  0.00  0.00    +0.000 C 
ATOM     15  C   UNL     1      43.045   4.896  10.998  0.00  0.00    +0.000 C 
BRANCH  14  16
ATOM     16  C   UNL     1      45.013   3.961   9.705  0.00  0.00    +0.000 A 
ATOM     17  C   UNL     1      45.661   4.476   8.574  0.00  0.00    +0.000 A 
ATOM     18  C   UNL     1      46.198   3.613   7.619  0.00  0.00    +0.000 A 
ATOM     19  C   UNL     1      46.070   2.250   7.813  0.00  0.00    +0.000 A 
ATOM     20  N   UNL     1      45.436   1.705   8.870  0.00  0.00    +0.000 NA
ATOM     21  C   UNL     1      44.930   2.566   9.782  0.00  0.00    +0.000 A 
ENDBRANCH  14  16
ENDBRANCH  12  14
ENDBRANCH   1  12
TORSDOF 4
ENDMDL
MODEL 4
REMARK VINA RESULT:    -6.017      2.842      6.307
REMARK INTER + INTRA:          -7.715
REMARK INTER:                  -7.290
REMARK INTRA:                  -0.425
REMARK UNBOUND:                -0.291
REMARK  Name = 
REMARK  6 active torsions:
REMARK  status: ('A' for Active; 'I' for Inactive)
REMARK    1  A    between atoms: C_1  and  C_2
REMARK    2  A    between atoms: C_2  and  C_3
REMARK    3  A    between atoms: C_2  and  O_4
REMARK    4  A    between atoms: C_2  and  C_14
REMARK    5  A    between atoms: O_4  and  C_5
REMARK    6  A    between atoms: C_8  and  C_9
REMARK                            x       y       z     vdW  Elec       q    Type
REMARK                         _______ _______ _______ _____ _____    ______ ____
ROOT
ATOM      1  C   UNL     1      45.878   7.119  11.862  0.00  0.00    +0.000 A 
ATOM      2  C   UNL     1      47.165   6.670  11.558  0.00  0.00    +0.000 A 
ATOM      3  C   UNL     1      48.262   7.076  12.328  0.00  0.00    +0.000 A 
ATOM      4  C   UNL     1      48.081   7.953  13.403  0.00  0.00    +0.000 A 
ATOM      5  C   UNL     1      46.804   8.450  13.667  0.00  0.00    +0.000 A 
ATOM      6  C   UNL     1      45.718   8.056  12.882  0.00  0.00    +0.000 A 
ENDROOT
BRANCH   4   7
ATOM      7  C   UNL     1      49.243   8.298  14.263  0.00  0.00    +0.000 C 
ATOM      8  N   UNL     1      50.420   7.638  14.027  0.00  0.00    +0.000 N 
ATOM      9  O   UNL     1      49.160   9.131  15.154  0.00  0.00    +0.000 OA
ATOM     10  H   UNL     1      50.482   6.800  13.467  0.00  0.00    +0.000 HD
ATOM     11  H   UNL     1      51.183   7.838  14.660  0.00  0.00    +0.000 HD
ENDBRANCH   4   7
BRANCH   1  12
ATOM     12  O   UNL     1      44.868   6.582  11.112  0.00  0.00    +0.000 OA
BRANCH  12  14
ATOM     13  C   UNL     1      44.930   4.597  12.659  0.00  0.00    +0.000 C 
ATOM     14  C   UNL     1      44.352   5.251  11.383  0.00  0.00    +0.000 C 
ATOM     15  C   UNL     1      42.813   5.340  11.406  0.00  0.00    +0.000 C 
BRANCH  14  16
ATOM     16  C   UNL     1      44.824   4.325  10.246  0.00  0.00    +0.000 A 
ATOM     17  C   UNL     1      44.547   2.951  10.245  0.00  0.00    +0.000 A 
ATOM     18  C   UNL     1      44.829   2.179   9.119  0.00  0.00    +0.000 A 
ATOM     19  C   UNL     1      45.390   2.798   8.017  0.00  0.00    +0.000 A 
ATOM     20  N   UNL     1      45.698   4.109   7.975  0.00  0.00    +0.000 NA
ATOM     21  C   UNL     1      45.408   4.833   9.080  0.00  0.00    +0.000 A 
ENDBRANCH  14  16
ENDBRANCH  12  14
ENDBRANCH   1  12
TORSDOF 4
ENDMDL
MODEL 5
REMARK VINA RESULT:    -5.877      3.568      6.730
REMARK INTER + INTRA:          -7.542
REMARK INTER:                  -7.198
REMARK INTRA:                  -0.345
REMARK UNBOUND:                -0.291
REMARK  Name = 
REMARK  6 active torsions:
REMARK  status: ('A' for Active; 'I' for Inactive)
REMARK    1  A    between atoms: C_1  and  C_2
REMARK    2  A    between atoms: C_2  and  C_3
REMARK    3  A    between atoms: C_2  and  O_4
REMARK    4  A    between atoms: C_2  and  C_14
REMARK    5  A    between atoms: O_4  and  C_5
REMARK    6  A    between atoms: C_8  and  C_9
REMARK                            x       y       z     vdW  Elec       q    Type
REMARK                         _______ _______ _______ _____ _____    ______ ____
ROOT
ATOM      1  C   UNL     1      47.060   5.327  13.536  0.00  0.00    +0.000 A 
ATOM      2  C   UNL     1      47.748   6.289  14.280  0.00  0.00    +0.000 A 
ATOM      3  C   UNL     1      48.219   5.992  15.565  0.00  0.00    +0.000 A 
ATOM      4  C   UNL     1      47.987   4.731  16.126  0.00  0.00    +0.000 A 
ATOM      5  C   UNL     1      47.246   3.793  15.406  0.00  0.00    +0.000 A 
ATOM      6  C   UNL     1      46.761   4.103  14.134  0.00  0.00    +0.000 A 
ENDROOT
BRANCH   4   7
ATOM      7  C   UNL     1      48.575   4.407  17.452  0.00  0.00    +0.000 C 
ATOM      8  N   UNL     1      47.730   4.394  18.530  0.00  0.00    +0.000 N 
ATOM      9  O   UNL     1      49.766   4.168  17.587  0.00  0.00    +0.000 OA
ATOM     10  H   UNL     1      46.803   4.795  18.512  0.00  0.00    +0.000 HD
ATOM     11  H   UNL     1      48.155   4.234  19.434  0.00  0.00    +0.000 HD
ENDBRANCH   4   7
BRANCH   1  12
ATOM     12  O   UNL     1      46.734   5.686  12.257  0.00  0.00    +0.000 OA
BRANCH  12  14
ATOM     13  C   UNL     1      44.319   5.567  12.961  0.00  0.00    +0.000 C 
ATOM     14  C   UNL     1      45.353   5.919  11.867  0.00  0.00    +0.000 C 
ATOM     15  C   UNL     1      45.240   7.381  11.392  0.00  0.00    +0.000 C 
BRANCH  14  16
ATOM     16  C   UNL     1      45.021   4.948  10.718  0.00  0.00    +0.000 A 
ATOM     17  C   UNL     1      45.580   5.091   9.441  0.00  0.00    +0.000 A 
ATOM     18  C   UNL     1      45.402   4.095   8.481  0.00  0.00    +0.000 A 
ATOM     19  C   UNL     1      44.661   2.978   8.818  0.00  0.00    +0.000 A 
ATOM     20  N   UNL     1      44.083   2.803  10.023  0.00  0.00    +0.000 NA
ATOM     21  C   UNL     1      44.277   3.782  10.935  0.00  0.00    +0.000 A 
ENDBRANCH  14  16
ENDBRANCH  12  14
ENDBRANCH   1  12
TORSDOF 4
ENDMDL
MODEL 6
REMARK VINA RESULT:    -5.838      3.254      5.188
REMARK INTER + INTRA:          -7.494
REMARK INTER:                  -6.940
REMARK INTRA:                  -0.553
REMARK UNBOUND:                -0.291
REMARK  Name = 
REMARK  6 active torsions:
REMARK  status: ('A' for Active; 'I' for Inactive)
REMARK    1  A    between atoms: C_1  and  C_2
REMARK    2  A    between atoms: C_2  and  C_3
REMARK    3  A    between atoms: C_2  and  O_4
REMARK    4  A    between atoms: C_2  and  C_14
REMARK    5  A    between atoms: O_4  and  C_5
REMARK    6  A    between atoms: C_8  and  C_9
REMARK                            x       y       z     vdW  Elec       q    Type
REMARK                         _______ _______ _______ _____ _____    ______ ____
ROOT
ATOM      1  C   UNL     1      45.710   6.520  12.528  0.00  0.00    +0.000 A 
ATOM      2  C   UNL     1      45.155   6.456  11.248  0.00  0.00    +0.000 A 
ATOM      3  C   UNL     1      44.622   5.256  10.761  0.00  0.00    +0.000 A 
ATOM      4  C   UNL     1      44.659   4.099  11.548  0.00  0.00    +0.000 A 
ATOM      5  C   UNL     1      45.270   4.149  12.801  0.00  0.00    +0.000 A 
ATOM      6  C   UNL     1      45.817   5.345  13.272  0.00  0.00    +0.000 A 
ENDROOT
BRANCH   4   7
ATOM      7  C   UNL     1      44.007   2.861  11.049  0.00  0.00    +0.000 C 
ATOM      8  N   UNL     1      44.573   2.243   9.965  0.00  0.00    +0.000 N 
ATOM      9  O   UNL     1      43.000   2.408  11.573  0.00  0.00    +0.000 OA
ATOM     10  H   UNL     1      45.256   2.686   9.369  0.00  0.00    +0.000 HD
ATOM     11  H   UNL     1      44.082   1.437   9.599  0.00  0.00    +0.000 HD
ENDBRANCH   4   7
BRANCH   1  12
ATOM     12  O   UNL     1      46.107   7.760  12.944  0.00  0.00    +0.000 OA
BRANCH  12  14
ATOM     13  C   UNL     1      48.241   7.414  11.651  0.00  0.00    +0.000 C 
ATOM     14  C   UNL     1      47.454   8.246  12.691  0.00  0.00    +0.000 C 
ATOM     15  C   UNL     1      47.352   9.735  12.306  0.00  0.00    +0.000 C 
BRANCH  14  16
ATOM     16  C   UNL     1      48.265   8.076  13.990  0.00  0.00    +0.000 A 
ATOM     17  C   UNL     1      48.072   8.911  15.099  0.00  0.00    +0.000 A 
ATOM     18  C   UNL     1      48.688   8.617  16.314  0.00  0.00    +0.000 A 
ATOM     19  C   UNL     1      49.492   7.494  16.393  0.00  0.00    +0.000 A 
ATOM     20  N   UNL     1      49.728   6.673  15.352  0.00  0.00    +0.000 NA
ATOM     21  C   UNL     1      49.113   6.980  14.187  0.00  0.00    +0.000 A 
ENDBRANCH  14  16
ENDBRANCH  12  14
ENDBRANCH   1  12
TORSDOF 4
ENDMDL
MODEL 7
REMARK VINA RESULT:    -5.722      4.088      6.307
REMARK INTER + INTRA:          -7.350
REMARK INTER:                  -6.798
REMARK INTRA:                  -0.552
REMARK UNBOUND:                -0.291
REMARK  Name = 
REMARK  6 active torsions:
REMARK  status: ('A' for Active; 'I' for Inactive)
REMARK    1  A    between atoms: C_1  and  C_2
REMARK    2  A    between atoms: C_2  and  C_3
REMARK    3  A    between atoms: C_2  and  O_4
REMARK    4  A    between atoms: C_2  and  C_14
REMARK    5  A    between atoms: O_4  and  C_5
REMARK    6  A    between atoms: C_8  and  C_9
REMARK                            x       y       z     vdW  Elec       q    Type
REMARK                         _______ _______ _______ _____ _____    ______ ____
ROOT
ATOM      1  C   UNL     1      47.099   5.872  12.846  0.00  0.00    +0.000 A 
ATOM      2  C   UNL     1      46.225   5.192  13.697  0.00  0.00    +0.000 A 
ATOM      3  C   UNL     1      44.908   4.925  13.301  0.00  0.00    +0.000 A 
ATOM      4  C   UNL     1      44.447   5.356  12.051  0.00  0.00    +0.000 A 
ATOM      5  C   UNL     1      45.303   6.090  11.228  0.00  0.00    +0.000 A 
ATOM      6  C   UNL     1      46.608   6.370  11.639  0.00  0.00    +0.000 A 
ENDROOT
BRANCH   4   7
ATOM      7  C   UNL     1      43.078   4.983  11.615  0.00  0.00    +0.000 C 
ATOM      8  N   UNL     1      42.100   5.935  11.723  0.00  0.00    +0.000 N 
ATOM      9  O   UNL     1      42.822   3.868  11.181  0.00  0.00    +0.000 OA
ATOM     10  H   UNL     1      42.205   6.777  12.271  0.00  0.00    +0.000 HD
ATOM     11  H   UNL     1      41.161   5.647  11.481  0.00  0.00    +0.000 HD
ENDBRANCH   4   7
BRANCH   1  12
ATOM     12  O   UNL     1      48.388   5.990  13.287  0.00  0.00    +0.000 OA
BRANCH  12  14
ATOM     13  C   UNL     1      47.823   8.345  13.976  0.00  0.00    +0.000 C 
ATOM     14  C   UNL     1      48.839   7.180  13.989  0.00  0.00    +0.000 C 
ATOM     15  C   UNL     1      49.243   6.759  15.415  0.00  0.00    +0.000 C 
BRANCH  14  16
ATOM     16  C   UNL     1      50.054   7.742  13.224  0.00  0.00    +0.000 A 
ATOM     17  C   UNL     1      50.098   7.773  11.824  0.00  0.00    +0.000 A 
ATOM     18  C   UNL     1      51.126   8.451  11.169  0.00  0.00    +0.000 A 
ATOM     19  C   UNL     1      52.094   9.079  11.932  0.00  0.00    +0.000 A 
ATOM     20  N   UNL     1      52.110   9.059  13.279  0.00  0.00    +0.000 NA
ATOM     21  C   UNL     1      51.097   8.399  13.886  0.00  0.00    +0.000 A 
ENDBRANCH  14  16
ENDBRANCH  12  14
ENDBRANCH   1  12
TORSDOF 4
ENDMDL
