MODEL 1
REMARK VINA RESULT:    -8.252      0.000      0.000
REMARK INTER + INTRA:         -11.324
REMARK INTER:                 -10.663
REMARK INTRA:                  -0.661
REMARK UNBOUND:                -0.661
REMARK  Name = 
REMARK  5 active torsions:
REMARK  status: ('A' for Active; 'I' for Inactive)
REMARK    1  A    between atoms: C_2  and  C_4
REMARK    2  A    between atoms: C_7  and  N_8
REMARK    3  A    between atoms: N_8  and  C_9
REMARK    4  A    between atoms: C_9  and  C_10
REMARK    5  A    between atoms: C_14  and  N_15
REMARK                            x       y       z     vdW  Elec       q    Type
REMARK                         _______ _______ _______ _____ _____    ______ ____
ROOT
ATOM      1  N   UNL     1      43.743   4.855   9.615  0.00  0.00    +0.000 N 
ATOM      2  H   UNL     1      42.843   4.732   9.159  0.00  0.00    +0.000 HD
ENDROOT
BRANCH   1   6
ATOM      3  C   UNL     1      46.425   2.338   7.798  0.00  0.00    +0.000 A 
ATOM      4  C   UNL     1      46.445   3.696   7.533  0.00  0.00    +0.000 A 
ATOM      5  N   UNL     1      45.592   4.569   8.139  0.00  0.00    +0.000 NA
ATOM      6  C   UNL     1      44.725   4.054   9.028  0.00  0.00    +0.000 A 
ATOM      7  C   UNL     1      44.729   2.672   9.288  0.00  0.00    +0.000 A 
ATOM      8  N   UNL     1      45.566   1.781   8.695  0.00  0.00    +0.000 NA
BRANCH   3  10
ATOM      9  N   UNL     1      48.373   2.027   6.394  0.00  0.00    +0.000 N 
ATOM     10  C   UNL     1      47.341   1.424   7.062  0.00  0.00    +0.000 C 
ATOM     11  O   UNL     1      47.191   0.208   7.065  0.00  0.00    +0.000 OA
ATOM     12  H   UNL     1      49.050   1.456   5.906  0.00  0.00    +0.000 HD
ATOM     13  H   UNL     1      48.488   3.033   6.439  0.00  0.00    +0.000 HD
ENDBRANCH   3  10
ENDBRANCH   1   6
BRANCH   1  14
ATOM     14  C   UNL     1      43.621   4.778  11.071  0.00  0.00    +0.000 C 
BRANCH  14  15
ATOM     15  C   UNL     1      44.615   5.726  11.703  0.00  0.00    +0.000 A 
ATOM     16  C   UNL     1      44.655   7.055  11.306  0.00  0.00    +0.000 A 
ATOM     17  N   UNL     1      45.501   7.950  11.855  0.00  0.00    +0.000 NA
ATOM     18  C   UNL     1      46.299   7.451  12.837  0.00  0.00    +0.000 A 
ATOM     19  C   UNL     1      46.300   6.118  13.267  0.00  0.00    +0.000 A 
ATOM     20  N   UNL     1      45.434   5.254  12.680  0.00  0.00    +0.000 NA
BRANCH  19  21
ATOM     21  N   UNL     1      47.061   5.662  14.331  0.00  0.00    +0.000 N 
ATOM     22  C   UNL     1      47.079   4.204  14.553  0.00  0.00    +0.000 C 
ATOM     23  C   UNL     1      47.429   3.934  16.024  0.00  0.00    +0.000 C 
ATOM     24  O   UNL     1      48.685   4.532  16.387  0.00  0.00    +0.000 OA
ATOM     25  C   UNL     1      48.641   5.953  16.178  0.00  0.00    +0.000 C 
ATOM     26  C   UNL     1      48.329   6.304  14.710  0.00  0.00    +0.000 C 
ENDBRANCH  19  21
ENDBRANCH  14  15
ENDBRANCH   1  14
TORSDOF 5
ENDMDL
MODEL 2
REMARK VINA RESULT:    -8.196      1.948      2.903
REMARK INTER + INTRA:         -11.252
REMARK INTER:                 -10.636
REMARK INTRA:                  -0.616
REMARK UNBOUND:                -0.661
REMARK  Name = 
REMARK  5 active torsions:
REMARK  status: ('A' for Active; 'I' for Inactive)
REMARK    1  A    between atoms: C_2  and  C_4
REMARK    2  A    between atoms: C_7  and  N_8
REMARK    3  A    between atoms: N_8  and  C_9
REMARK    4  A    between atoms: C_9  and  C_10
REMARK    5  A    between atoms: C_14  and  N_15
REMARK                            x       y       z     vdW  Elec       q    Type
REMARK                         _______ _______ _______ _____ _____    ______ ____
ROOT
ATOM      1  N   UNL     1      43.777   4.777   9.764  0.00  0.00    +0.000 N 
ATOM      2  H   UNL     1      42.938   4.865   9.197  0.00  0.00    +0.000 HD
ENDROOT
BRANCH   1   6
ATOM      3  C   UNL     1      46.515   2.554   7.667  0.00  0.00    +0.000 A 
ATOM      4  C   UNL     1      46.510   3.934   7.573  0.00  0.00    +0.000 A 
ATOM      5  N   UNL     1      45.638   4.710   8.276  0.00  0.00    +0.000 NA
ATOM      6  C   UNL     1      44.777   4.073   9.089  0.00  0.00    +0.000 A 
ATOM      7  C   UNL     1      44.805   2.670   9.176  0.00  0.00    +0.000 A 
ATOM      8  N   UNL     1      45.662   1.875   8.483  0.00  0.00    +0.000 NA
BRANCH   3  10
ATOM      9  N   UNL     1      48.560   2.419   6.380  0.00  0.00    +0.000 N 
ATOM     10  C   UNL     1      47.451   1.755   6.831  0.00  0.00    +0.000 C 
ATOM     11  O   UNL     1      47.251   0.574   6.572  0.00  0.00    +0.000 OA
ATOM     12  H   UNL     1      49.252   1.920   5.838  0.00  0.00    +0.000 HD
ATOM     13  H   UNL     1      48.713   3.387   6.639  0.00  0.00    +0.000 HD
ENDBRANCH   3  10
ENDBRANCH   1   6
BRANCH   1  14
ATOM     14  C   UNL     1      43.462   4.327  11.120  0.00  0.00    +0.000 C 
BRANCH  14  15
ATOM     15  C   UNL     1      44.627   4.643  12.031  0.00  0.00    +0.000 A 
ATOM     16  C   UNL     1      45.211   3.635  12.784  0.00  0.00    +0.000 A 
ATOM     17  N   UNL     1      46.269   3.854  13.590  0.00  0.00    +0.000 NA
ATOM     18  C   UNL     1      46.726   5.135  13.594  0.00  0.00    +0.000 A 
ATOM     19  C   UNL     1      46.166   6.186  12.858  0.00  0.00    +0.000 A 
ATOM     20  N   UNL     1      45.099   5.918  12.065  0.00  0.00    +0.000 NA
BRANCH  19  21
ATOM     21  N   UNL     1      46.711   7.460  12.815  0.00  0.00    +0.000 N 
ATOM     22  C   UNL     1      45.757   8.586  12.798  0.00  0.00    +0.000 C 
ATOM     23  C   UNL     1      46.446   9.805  12.166  0.00  0.00    +0.000 C 
ATOM     24  O   UNL     1      47.651  10.153  12.868  0.00  0.00    +0.000 OA
ATOM     25  C   UNL     1      48.572   9.049  12.860  0.00  0.00    +0.000 C 
ATOM     26  C   UNL     1      47.962   7.793  13.513  0.00  0.00    +0.000 C 
ENDBRANCH  19  21
ENDBRANCH  14  15
ENDBRANCH   1  14
TORSDOF 5
ENDMDL
MODEL 3
REMARK VINA RESULT:    -7.776      1.939      2.844
REMARK INTER + INTRA:         -10.710
REMARK INTER:                 -10.076
REMARK INTRA:                  -0.633
REMARK UNBOUND:                -0.661
REMARK  Name = 
REMARK  5 active torsions:
REMARK  status: ('A' for Active; 'I' for Inactive)
REMARK    1  A    between atoms: C_2  and  C_4
REMARK    2  A    between atoms: C_7  and  N_8
REMARK    3  A    between atoms: N_8  and  C_9
REMARK    4  A    between atoms: C_9  and  C_10
REMARK    5  A    between atoms: C_14  and  N_15
REMARK                            x       y       z     vdW  Elec       q    Type
REMARK                         _______ _______ _______ _____ _____    ______ ____
ROOT
ATOM      1  N   UNL     1      43.702   3.904  10.335  0.00  0.00    +0.000 N 
ATOM      2  H   UNL     1      43.537   3.202  11.052  0.00  0.00    +0.000 HD
ENDROOT
BRANCH   1   6
ATOM      3  C   UNL     1      46.437   2.709   7.519  0.00  0.00    +0.000 A 
ATOM      4  C   UNL     1      45.908   1.798   8.417  0.00  0.00    +0.000 A 
ATOM      5  N   UNL     1      44.975   2.148   9.346  0.00  0.00    +0.000 NA
ATOM      6  C   UNL     1      44.571   3.430   9.350  0.00  0.00    +0.000 A 
ATOM      7  C   UNL     1      45.116   4.337   8.423  0.00  0.00    +0.000 A 
ATOM      8  N   UNL     1      46.049   4.013   7.489  0.00  0.00    +0.000 NA
BRANCH   3  10
ATOM      9  N   UNL     1      47.533   2.960   5.376  0.00  0.00    +0.000 N 
ATOM     10  C   UNL     1      47.496   2.282   6.564  0.00  0.00    +0.000 C 
ATOM     11  O   UNL     1      48.293   1.390   6.829  0.00  0.00    +0.000 OA
ATOM     12  H   UNL     1      48.253   2.742   4.701  0.00  0.00    +0.000 HD
ATOM     13  H   UNL     1      46.881   3.716   5.202  0.00  0.00    +0.000 HD
ENDBRANCH   3  10
ENDBRANCH   1   6
BRANCH   1  14
ATOM     14  C   UNL     1      44.024   5.204  10.922  0.00  0.00    +0.000 C 
BRANCH  14  15
ATOM     15  C   UNL     1      45.106   5.024  11.964  0.00  0.00    +0.000 A 
ATOM     16  C   UNL     1      45.085   3.917  12.801  0.00  0.00    +0.000 A 
ATOM     17  N   UNL     1      46.038   3.692  13.727  0.00  0.00    +0.000 NA
ATOM     18  C   UNL     1      47.026   4.625  13.766  0.00  0.00    +0.000 A 
ATOM     19  C   UNL     1      47.087   5.761  12.949  0.00  0.00    +0.000 A 
ATOM     20  N   UNL     1      46.101   5.947  12.035  0.00  0.00    +0.000 NA
BRANCH  19  21
ATOM     21  N   UNL     1      48.154   6.644  12.951  0.00  0.00    +0.000 N 
ATOM     22  C   UNL     1      48.320   7.482  11.748  0.00  0.00    +0.000 C 
ATOM     23  C   UNL     1      49.789   7.921  11.653  0.00  0.00    +0.000 C 
ATOM     24  O   UNL     1      50.210   8.619  12.837  0.00  0.00    +0.000 OA
ATOM     25  C   UNL     1      50.054   7.781  13.994  0.00  0.00    +0.000 C 
ATOM     26  C   UNL     1      48.592   7.328  14.178  0.00  0.00    +0.000 C 
ENDBRANCH  19  21
ENDBRANCH  14  15
ENDBRANCH   1  14
TORSDOF 5
ENDMDL
MODEL 4
REMARK VINA RESULT:    -7.612      1.396      2.106
REMARK INTER + INTRA:         -10.498
REMARK INTER:                 -10.059
REMARK INTRA:                  -0.440
REMARK UNBOUND:                -0.661
REMARK  Name = 
REMARK  5 active torsions:
REMARK  status: ('A' for Active; 'I' for Inactive)
REMARK    1  A    between atoms: C_2  and  C_4
REMARK    2  A    between atoms: C_7  and  N_8
REMARK    3  A    between atoms: N_8  and  C_9
REMARK    4  A    between atoms: C_9  and  C_10
REMARK    5  A    between atoms: C_14  and  N_15
REMARK                            x       y       z     vdW  Elec       q    Type
REMARK                         _______ _______ _______ _____ _____    ______ ____
ROOT
ATOM      1  N   UNL     1      44.222   3.836  10.802  0.00  0.00    +0.000 N 
ATOM      2  H   UNL     1      43.217   3.707  10.714  0.00  0.00    +0.000 HD
ENDROOT
BRANCH   1   6
ATOM      3  C   UNL     1      46.401   2.743   7.502  0.00  0.00    +0.000 A 
ATOM      4  C   UNL     1      45.952   1.788   8.397  0.00  0.00    +0.000 A 
ATOM      5  N   UNL     1      45.199   2.106   9.487  0.00  0.00    +0.000 NA
ATOM      6  C   UNL     1      44.894   3.404   9.657  0.00  0.00    +0.000 A 
ATOM      7  C   UNL     1      45.354   4.357   8.731  0.00  0.00    +0.000 A 
ATOM      8  N   UNL     1      46.107   4.065   7.639  0.00  0.00    +0.000 NA
BRANCH   3  10
ATOM      9  N   UNL     1      47.249   3.180   5.278  0.00  0.00    +0.000 N 
ATOM     10  C   UNL     1      47.268   2.344   6.361  0.00  0.00    +0.000 C 
ATOM     11  O   UNL     1      47.966   1.337   6.392  0.00  0.00    +0.000 OA
ATOM     12  H   UNL     1      47.845   2.982   4.486  0.00  0.00    +0.000 HD
ATOM     13  H   UNL     1      46.686   4.023   5.297  0.00  0.00    +0.000 HD
ENDBRANCH   3  10
ENDBRANCH   1   6
BRANCH   1  14
ATOM     14  C   UNL     1      44.716   3.330  12.082  0.00  0.00    +0.000 C 
BRANCH  14  15
ATOM     15  C   UNL     1      45.643   4.355  12.697  0.00  0.00    +0.000 A 
ATOM     16  C   UNL     1      45.768   5.611  12.121  0.00  0.00    +0.000 A 
ATOM     17  N   UNL     1      46.556   6.571  12.643  0.00  0.00    +0.000 NA
ATOM     18  C   UNL     1      47.206   6.217  13.783  0.00  0.00    +0.000 A 
ATOM     19  C   UNL     1      47.118   4.962  14.397  0.00  0.00    +0.000 A 
ATOM     20  N   UNL     1      46.315   4.026  13.832  0.00  0.00    +0.000 NA
BRANCH  19  21
ATOM     21  N   UNL     1      47.722   4.663  15.608  0.00  0.00    +0.000 N 
ATOM     22  C   UNL     1      48.457   5.758  16.269  0.00  0.00    +0.000 C 
ATOM     23  C   UNL     1      49.508   5.148  17.208  0.00  0.00    +0.000 C 
ATOM     24  O   UNL     1      48.908   4.267  18.172  0.00  0.00    +0.000 OA
ATOM     25  C   UNL     1      48.211   3.200  17.508  0.00  0.00    +0.000 C 
ATOM     26  C   UNL     1      47.111   3.734  16.571  0.00  0.00    +0.000 C 
ENDBRANCH  19  21
ENDBRANCH  14  15
ENDBRANCH   1  14
TORSDOF 5
ENDMDL
MODEL 5
REMARK VINA RESULT:    -6.874      1.838      7.607
REMARK INTER + INTRA:          -9.544
REMARK INTER:                  -9.041
REMARK INTRA:                  -0.503
REMARK UNBOUND:                -0.661
REMARK  Name = 
REMARK  5 active torsions:
REMARK  status: ('A' for Active; 'I' for Inactive)
REMARK    1  A    between atoms: C_2  and  C_4
REMARK    2  A    between atoms: C_7  and  N_8
REMARK    3  A    between atoms: N_8  and  C_9
REMARK    4  A    between atoms: C_9  and  C_10
REMARK    5  A    between atoms: C_14  and  N_15
REMARK                            x       y       z     vdW  Elec       q    Type
REMARK                         _______ _______ _______ _____ _____    ______ ____
ROOT
ATOM      1  N   UNL     1      46.282   5.825  12.869  0.00  0.00    +0.000 N 
ATOM      2  H   UNL     1      46.710   5.453  12.025  0.00  0.00    +0.000 HD
ENDROOT
BRANCH   1   6
ATOM      3  C   UNL     1      48.257   4.862  16.333  0.00  0.00    +0.000 A 
ATOM      4  C   UNL     1      47.201   4.087  15.887  0.00  0.00    +0.000 A 
ATOM      5  N   UNL     1      46.539   4.355  14.726  0.00  0.00    +0.000 NA
ATOM      6  C   UNL     1      46.967   5.411  14.012  0.00  0.00    +0.000 A 
ATOM      7  C   UNL     1      48.048   6.179  14.480  0.00  0.00    +0.000 A 
ATOM      8  N   UNL     1      48.721   5.935  15.635  0.00  0.00    +0.000 NA
BRANCH   3  10
ATOM      9  N   UNL     1      50.216   4.170  17.576  0.00  0.00    +0.000 N 
ATOM     10  C   UNL     1      48.904   4.556  17.638  0.00  0.00    +0.000 C 
ATOM     11  O   UNL     1      48.307   4.657  18.703  0.00  0.00    +0.000 OA
ATOM     12  H   UNL     1      50.721   3.984  18.431  0.00  0.00    +0.000 HD
ATOM     13  H   UNL     1      50.691   4.129  16.681  0.00  0.00    +0.000 HD
ENDBRANCH   3  10
ENDBRANCH   1   6
BRANCH   1  14
ATOM     14  C   UNL     1      44.833   5.628  12.867  0.00  0.00    +0.000 C 
BRANCH  14  15
ATOM     15  C   UNL     1      44.499   4.408  12.037  0.00  0.00    +0.000 A 
ATOM     16  C   UNL     1      43.442   3.588  12.405  0.00  0.00    +0.000 A 
ATOM     17  N   UNL     1      43.082   2.505  11.688  0.00  0.00    +0.000 NA
ATOM     18  C   UNL     1      43.826   2.290  10.570  0.00  0.00    +0.000 A 
ATOM     19  C   UNL     1      44.905   3.084  10.162  0.00  0.00    +0.000 A 
ATOM     20  N   UNL     1      45.232   4.161  10.920  0.00  0.00    +0.000 NA
BRANCH  19  21
ATOM     21  N   UNL     1      45.585   2.891   8.970  0.00  0.00    +0.000 N 
ATOM     22  C   UNL     1      45.677   1.503   8.480  0.00  0.00    +0.000 C 
ATOM     23  C   UNL     1      46.898   1.388   7.555  0.00  0.00    +0.000 C 
ATOM     24  O   UNL     1      46.825   2.322   6.465  0.00  0.00    +0.000 OA
ATOM     25  C   UNL     1      46.751   3.668   6.964  0.00  0.00    +0.000 C 
ATOM     26  C   UNL     1      45.526   3.871   7.876  0.00  0.00    +0.000 C 
ENDBRANCH  19  21
ENDBRANCH  14  15
ENDBRANCH   1  14
TORSDOF 5
ENDMDL
MODEL 6
REMARK VINA RESULT:    -6.771      1.694      7.038
REMARK INTER + INTRA:          -9.411
REMARK INTER:                  -9.041
REMARK INTRA:                  -0.370
REMARK UNBOUND:                -0.661
REMARK  Name = 
REMARK  5 active torsions:
REMARK  status: ('A' for Active; 'I' for Inactive)
REMARK    1  A    between atoms: C_2  and  C_4
REMARK    2  A    between atoms: C_7  and  N_8
REMARK    3  A    between atoms: N_8  and  C_9
REMARK    4  A    between atoms: C_9  and  C_10
REMARK    5  A    between atoms: C_14  and  N_15
REMARK                            x       y       z     vdW  Elec       q    Type
REMARK                         _______ _______ _______ _____ _____    ______ ____
ROOT
ATOM      1  N   UNL     1      47.231   6.359  12.839  0.00  0.00    +0.000 N 
ATOM      2  H   UNL     1      47.571   5.915  11.989  0.00  0.00    +0.000 HD
ENDROOT
BRANCH   1   6
ATOM      3  C   UNL     1      47.868   3.750  15.940  0.00  0.00    +0.000 A 
ATOM      4  C   UNL     1      48.146   5.097  16.086  0.00  0.00    +0.000 A 
ATOM      5  N   UNL     1      47.920   6.001  15.092  0.00  0.00    +0.000 NA
ATOM      6  C   UNL     1      47.395   5.527  13.948  0.00  0.00    +0.000 A 
ATOM      7  C   UNL     1      47.111   4.156  13.824  0.00  0.00    +0.000 A 
ATOM      8  N   UNL     1      47.331   3.235  14.800  0.00  0.00    +0.000 NA
BRANCH   3  10
ATOM      9  N   UNL     1      47.282   2.744  18.063  0.00  0.00    +0.000 N 
ATOM     10  C   UNL     1      48.190   2.800  17.040  0.00  0.00    +0.000 C 
ATOM     11  O   UNL     1      49.197   2.102  17.026  0.00  0.00    +0.000 OA
ATOM     12  H   UNL     1      47.426   2.091  18.821  0.00  0.00    +0.000 HD
ATOM     13  H   UNL     1      46.442   3.310  18.027  0.00  0.00    +0.000 HD
ENDBRANCH   3  10
ENDBRANCH   1   6
BRANCH   1  14
ATOM     14  C   UNL     1      45.902   6.938  12.645  0.00  0.00    +0.000 C 
BRANCH  14  15
ATOM     15  C   UNL     1      45.042   5.961  11.875  0.00  0.00    +0.000 A 
ATOM     16  C   UNL     1      43.678   5.895  12.120  0.00  0.00    +0.000 A 
ATOM     17  N   UNL     1      42.861   5.064  11.443  0.00  0.00    +0.000 NA
ATOM     18  C   UNL     1      43.475   4.309  10.494  0.00  0.00    +0.000 A 
ATOM     19  C   UNL     1      44.847   4.335  10.215  0.00  0.00    +0.000 A 
ATOM     20  N   UNL     1      45.630   5.184  10.926  0.00  0.00    +0.000 NA
BRANCH  19  21
ATOM     21  N   UNL     1      45.428   3.619   9.181  0.00  0.00    +0.000 N 
ATOM     22  C   UNL     1      44.965   2.230   8.996  0.00  0.00    +0.000 C 
ATOM     23  C   UNL     1      46.064   1.438   8.272  0.00  0.00    +0.000 C 
ATOM     24  O   UNL     1      46.410   2.043   7.015  0.00  0.00    +0.000 OA
ATOM     25  C   UNL     1      46.871   3.389   7.218  0.00  0.00    +0.000 C 
ATOM     26  C   UNL     1      45.805   4.259   7.911  0.00  0.00    +0.000 C 
ENDBRANCH  19  21
ENDBRANCH  14  15
ENDBRANCH   1  14
TORSDOF 5
ENDMDL
MODEL 7
REMARK VINA RESULT:    -6.603      4.146      8.234
REMARK INTER + INTRA:          -9.194
REMARK INTER:                  -8.695
REMARK INTRA:                  -0.499
REMARK UNBOUND:                -0.661
REMARK  Name = 
REMARK  5 active torsions:
REMARK  status: ('A' for Active; 'I' for Inactive)
REMARK    1  A    between atoms: C_2  and  C_4
REMARK    2  A    between atoms: C_7  and  N_8
REMARK    3  A    between atoms: N_8  and  C_9
REMARK    4  A    between atoms: C_9  and  C_10
REMARK    5  A    between atoms: C_14  and  N_15
REMARK                            x       y       z     vdW  Elec       q    Type
REMARK                         _______ _______ _______ _____ _____    ______ ____
ROOT
ATOM      1  N   UNL     1      48.808   4.409  17.362  0.00  0.00    +0.000 N 
ATOM      2  H   UNL     1      49.086   5.294  16.947  0.00  0.00    +0.000 HD
ENDROOT
BRANCH   1   6
ATOM      3  C   UNL     1      52.016   1.864  17.622  0.00  0.00    +0.000 A 
ATOM      4  C   UNL     1      52.117   3.170  18.066  0.00  0.00    +0.000 A 
ATOM      5  N   UNL     1      51.067   4.038  18.026  0.00  0.00    +0.000 NA
ATOM      6  C   UNL     1      49.905   3.564  17.542  0.00  0.00    +0.000 A 
ATOM      7  C   UNL     1      49.823   2.231  17.104  0.00  0.00    +0.000 A 
ATOM      8  N   UNL     1      50.856   1.348  17.131  0.00  0.00    +0.000 NA
BRANCH   3  10
ATOM      9  N   UNL     1      53.037  -0.249  18.214  0.00  0.00    +0.000 N 
ATOM     10  C   UNL     1      53.213   0.980  17.636  0.00  0.00    +0.000 C 
ATOM     11  O   UNL     1      54.284   1.322  17.149  0.00  0.00    +0.000 OA
ATOM     12  H   UNL     1      53.803  -0.909  18.221  0.00  0.00    +0.000 HD
ATOM     13  H   UNL     1      52.129  -0.514  18.577  0.00  0.00    +0.000 HD
ENDBRANCH   3  10
ENDBRANCH   1   6
BRANCH   1  14
ATOM     14  C   UNL     1      47.648   3.838  16.679  0.00  0.00    +0.000 C 
BRANCH  14  15
ATOM     15  C   UNL     1      47.330   4.672  15.458  0.00  0.00    +0.000 A 
ATOM     16  C   UNL     1      48.128   5.760  15.135  0.00  0.00    +0.000 A 
ATOM     17  N   UNL     1      47.908   6.520  14.044  0.00  0.00    +0.000 NA
ATOM     18  C   UNL     1      46.853   6.128  13.280  0.00  0.00    +0.000 A 
ATOM     19  C   UNL     1      46.015   5.045  13.569  0.00  0.00    +0.000 A 
ATOM     20  N   UNL     1      46.274   4.312  14.681  0.00  0.00    +0.000 NA
BRANCH  19  21
ATOM     21  N   UNL     1      45.005   4.617  12.723  0.00  0.00    +0.000 N 
ATOM     22  C   UNL     1      45.143   3.260  12.162  0.00  0.00    +0.000 C 
ATOM     23  C   UNL     1      44.332   3.181  10.860  0.00  0.00    +0.000 C 
ATOM     24  O   UNL     1      42.951   3.517  11.076  0.00  0.00    +0.000 OA
ATOM     25  C   UNL     1      42.838   4.848  11.608  0.00  0.00    +0.000 C 
ATOM     26  C   UNL     1      43.600   4.996  12.940  0.00  0.00    +0.000 C 
ENDBRANCH  19  21
ENDBRANCH  14  15
ENDBRANCH   1  14
TORSDOF 5
ENDMDL
MODEL 8
REMARK VINA RESULT:    -6.554      1.704      7.154
REMARK INTER + INTRA:          -9.130
REMARK INTER:                  -8.487
REMARK INTRA:                  -0.643
REMARK UNBOUND:                -0.661
REMARK  Name = 
REMARK  5 active torsions:
REMARK  status: ('A' for Active; 'I' for Inactive)
REMARK    1  A    between atoms: C_2  and  C_4
REMARK    2  A    between atoms: C_7  and  N_8
REMARK    3  A    between atoms: N_8  and  C_9
REMARK    4  A    between atoms: C_9  and  C_10
REMARK    5  A    between atoms: C_14  and  N_15
REMARK                            x       y       z     vdW  Elec       q    Type
REMARK                         _______ _______ _______ _____ _____    ______ ____
ROOT
ATOM      1  N   UNL     1      44.109   6.380  12.576  0.00  0.00    +0.000 N 
ATOM      2  H   UNL     1      43.544   7.106  13.010  0.00  0.00    +0.000 HD
ENDROOT
BRANCH   1   6
ATOM      3  C   UNL     1      48.010   7.030  13.665  0.00  0.00    +0.000 A 
ATOM      4  C   UNL     1      47.440   5.778  13.808  0.00  0.00    +0.000 A 
ATOM      5  N   UNL     1      46.157   5.513  13.430  0.00  0.00    +0.000 NA
ATOM      6  C   UNL     1      45.460   6.528  12.891  0.00  0.00    +0.000 A 
ATOM      7  C   UNL     1      46.063   7.791  12.747  0.00  0.00    +0.000 A 
ATOM      8  N   UNL     1      47.338   8.080  13.120  0.00  0.00    +0.000 NA
BRANCH   3  10
ATOM      9  N   UNL     1      50.345   7.443  13.178  0.00  0.00    +0.000 N 
ATOM     10  C   UNL     1      49.396   7.275  14.150  0.00  0.00    +0.000 C 
ATOM     11  O   UNL     1      49.669   7.336  15.343  0.00  0.00    +0.000 OA
ATOM     12  H   UNL     1      51.298   7.650  13.444  0.00  0.00    +0.000 HD
ATOM     13  H   UNL     1      50.080   7.420  12.200  0.00  0.00    +0.000 HD
ENDBRANCH   3  10
ENDBRANCH   1   6
BRANCH   1  14
ATOM     14  C   UNL     1      43.780   6.221  11.159  0.00  0.00    +0.000 C 
BRANCH  14  15
ATOM     15  C   UNL     1      43.942   4.768  10.773  0.00  0.00    +0.000 A 
ATOM     16  C   UNL     1      43.213   3.789  11.433  0.00  0.00    +0.000 A 
ATOM     17  N   UNL     1      43.295   2.484  11.111  0.00  0.00    +0.000 NA
ATOM     18  C   UNL     1      44.137   2.204  10.080  0.00  0.00    +0.000 A 
ATOM     19  C   UNL     1      44.898   3.154   9.389  0.00  0.00    +0.000 A 
ATOM     20  N   UNL     1      44.785   4.456   9.753  0.00  0.00    +0.000 NA
BRANCH  19  21
ATOM     21  N   UNL     1      45.677   2.848   8.284  0.00  0.00    +0.000 N 
ATOM     22  C   UNL     1      46.374   3.975   7.635  0.00  0.00    +0.000 C 
ATOM     23  C   UNL     1      46.665   3.597   6.174  0.00  0.00    +0.000 C 
ATOM     24  O   UNL     1      47.436   2.387   6.085  0.00  0.00    +0.000 OA
ATOM     25  C   UNL     1      46.734   1.300   6.710  0.00  0.00    +0.000 C 
ATOM     26  C   UNL     1      46.435   1.591   8.194  0.00  0.00    +0.000 C 
ENDBRANCH  19  21
ENDBRANCH  14  15
ENDBRANCH   1  14
TORSDOF 5
ENDMDL
MODEL 9
REMARK VINA RESULT:    -6.435      2.583      6.945
REMARK INTER + INTRA:          -8.977
REMARK INTER:                  -8.360
REMARK INTRA:                  -0.617
REMARK UNBOUND:                -0.661
REMARK  Name = 
REMARK  5 active torsions:
REMARK  status: ('A' for Active; 'I' for Inactive)
REMARK    1  A    between atoms: C_2  and  C_4
REMARK    2  A    between atoms: C_7  and  N_8
REMARK    3  A    between atoms: N_8  and  C_9
REMARK    4  A    between atoms: C_9  and  C_10
REMARK    5  A    between atoms: C_14  and  N_15
REMARK                            x       y       z     vdW  Elec       q    Type
REMARK                         _______ _______ _______ _____ _____    ______ ____
ROOT
ATOM      1  N   UNL     1      45.417   6.221  12.708  0.00  0.00    +0.000 N 
ATOM      2  H   UNL     1      44.973   6.245  11.794  0.00  0.00    +0.000 HD
ENDROOT
BRANCH   1   6
ATOM      3  C   UNL     1      49.213   7.765  12.509  0.00  0.00    +0.000 A 
ATOM      4  C   UNL     1      48.144   8.455  11.966  0.00  0.00    +0.000 A 
ATOM      5  N   UNL     1      46.864   7.992  12.038  0.00  0.00    +0.000 NA
ATOM      6  C   UNL     1      46.675   6.825  12.679  0.00  0.00    +0.000 A 
ATOM      7  C   UNL     1      47.775   6.145  13.231  0.00  0.00    +0.000 A 
ATOM      8  N   UNL     1      49.060   6.584  13.169  0.00  0.00    +0.000 NA
BRANCH   3  10
ATOM      9  N   UNL     1      51.486   7.930  13.324  0.00  0.00    +0.000 N 
ATOM     10  C   UNL     1      50.596   8.290  12.348  0.00  0.00    +0.000 C 
ATOM     11  O   UNL     1      50.922   8.990  11.397  0.00  0.00    +0.000 OA
ATOM     12  H   UNL     1      52.450   8.226  13.251  0.00  0.00    +0.000 HD
ATOM     13  H   UNL     1      51.193   7.322  14.080  0.00  0.00    +0.000 HD
ENDBRANCH   3  10
ENDBRANCH   1   6
BRANCH   1  14
ATOM     14  C   UNL     1      45.345   4.887  13.303  0.00  0.00    +0.000 C 
BRANCH  14  15
ATOM     15  C   UNL     1      44.790   3.917  12.284  0.00  0.00    +0.000 A 
ATOM     16  C   UNL     1      43.577   3.285  12.516  0.00  0.00    +0.000 A 
ATOM     17  N   UNL     1      43.022   2.435  11.630  0.00  0.00    +0.000 NA
ATOM     18  C   UNL     1      43.737   2.258  10.487  0.00  0.00    +0.000 A 
ATOM     19  C   UNL     1      44.967   2.866  10.210  0.00  0.00    +0.000 A 
ATOM     20  N   UNL     1      45.488   3.711  11.135  0.00  0.00    +0.000 NA
BRANCH  19  21
ATOM     21  N   UNL     1      45.626   2.736   8.998  0.00  0.00    +0.000 N 
ATOM     22  C   UNL     1      45.715   1.374   8.438  0.00  0.00    +0.000 C 
ATOM     23  C   UNL     1      46.920   1.311   7.487  0.00  0.00    +0.000 C 
ATOM     24  O   UNL     1      46.822   2.298   6.445  0.00  0.00    +0.000 OA
ATOM     25  C   UNL     1      46.751   3.617   7.011  0.00  0.00    +0.000 C 
ATOM     26  C   UNL     1      45.542   3.769   7.954  0.00  0.00    +0.000 C 
ENDBRANCH  19  21
ENDBRANCH  14  15
ENDBRANCH   1  14
TORSDOF 5
ENDMDL
