MODEL 1
REMARK VINA RESULT:    -8.657      0.000      0.000
REMARK INTER + INTRA:         -12.013
REMARK INTER:                 -11.440
REMARK INTRA:                  -0.573
REMARK UNBOUND:                -0.573
REMARK  Name = 
REMARK  10 active torsions:
REMARK  status: ('A' for Active; 'I' for Inactive)
REMARK    1  A    between atoms: C_1  and  C_2
REMARK    2  A    between atoms: C_2  and  N_3
REMARK    3  A    between atoms: C_2  and  C_4
REMARK    4  A    between atoms: C_7  and  C_8
REMARK    5  A    between atoms: C_8  and  N_9
REMARK    6  A    between atoms: C_11  and  C_12
REMARK    7  A    between atoms: C_12  and  C_13
REMARK    8  A    between atoms: C_12  and  C_14
REMARK    9  A    between atoms: C_12  and  C_15
REMARK   10  A    between atoms: C_18  and  C_19
REMARK                            x       y       z     vdW  Elec       q    Type
REMARK                         _______ _______ _______ _____ _____    ______ ____
ROOT
ATOM      1  N   UNL     1      45.301   5.764  11.317  0.00  0.00    +0.000 N 
ATOM      2  C   UNL     1      45.685   7.078  11.208  0.00  0.00    +0.000 A 
ATOM      3  C   UNL     1      46.520   7.406  12.263  0.00  0.00    +0.000 A 
ATOM      4  C   UNL     1      46.622   6.208  13.061  0.00  0.00    +0.000 A 
ATOM      5  C   UNL     1      47.281   5.887  14.259  0.00  0.00    +0.000 A 
ATOM      6  C   UNL     1      47.121   4.599  14.750  0.00  0.00    +0.000 A 
ATOM      7  N   UNL     1      46.389   3.625  14.147  0.00  0.00    +0.000 NA
ATOM      8  C   UNL     1      45.762   3.923  12.985  0.00  0.00    +0.000 A 
ATOM      9  C   UNL     1      45.863   5.206  12.446  0.00  0.00    +0.000 A 
ENDROOT
BRANCH   6  10
ATOM     10  C   UNL     1      47.777   4.243  16.051  0.00  0.00    +0.000 C 
ATOM     11  N   UNL     1      47.117   3.337  16.830  0.00  0.00    +0.000 N 
ATOM     12  O   UNL     1      48.841   4.737  16.412  0.00  0.00    +0.000 OA
ATOM     13  H   UNL     1      46.232   2.952  16.523  0.00  0.00    +0.000 HD
ATOM     14  H   UNL     1      47.510   3.080  17.725  0.00  0.00    +0.000 HD
ENDBRANCH   6  10
BRANCH   3  15
ATOM     15  C   UNL     1      47.177   8.764  12.530  0.00  0.00    +0.000 C 
ATOM     16  C   UNL     1      47.421   8.996  14.041  0.00  0.00    +0.000 C 
ATOM     17  C   UNL     1      48.546   8.857  11.822  0.00  0.00    +0.000 C 
ATOM     18  C   UNL     1      46.276   9.913  12.036  0.00  0.00    +0.000 C 
ENDBRANCH   3  15
BRANCH   1  19
ATOM     19  C   UNL     1      44.335   5.124  10.428  0.00  0.00    +0.000 C 
BRANCH  19  23
ATOM     20  C   UNL     1      46.210   2.263   7.759  0.00  0.00    +0.000 A 
ATOM     21  C   UNL     1      45.398   1.829   8.816  0.00  0.00    +0.000 A 
ATOM     22  C   UNL     1      44.789   2.747   9.676  0.00  0.00    +0.000 A 
ATOM     23  C   UNL     1      44.980   4.124   9.502  0.00  0.00    +0.000 A 
ATOM     24  C   UNL     1      45.787   4.561   8.443  0.00  0.00    +0.000 A 
ATOM     25  C   UNL     1      46.393   3.643   7.583  0.00  0.00    +0.000 A 
BRANCH  20  27
ATOM     26  C   UNL     1      46.872  -0.151   7.464  0.00  0.00    +0.000 C 
ATOM     27  C   UNL     1      46.876   1.249   6.848  0.00  0.00    +0.000 C 
BRANCH  27  28
ATOM     28  N   UNL     1      48.242   1.654   6.512  0.00  0.00    +0.000 NA
ATOM     29  H   UNL     1      48.238   2.605   6.152  0.00  0.00    +0.000 HD
ATOM     30  H   UNL     1      48.574   1.067   5.747  0.00  0.00    +0.000 HD
ENDBRANCH  27  28
ENDBRANCH  20  27
ENDBRANCH  19  23
ENDBRANCH   1  19
TORSDOF 6
ENDMDL
MODEL 2
REMARK VINA RESULT:    -6.462      3.119      7.055
REMARK INTER + INTRA:          -9.112
REMARK INTER:                  -8.490
REMARK INTRA:                  -0.622
REMARK UNBOUND:                -0.573
REMARK  Name = 
REMARK  10 active torsions:
REMARK  status: ('A' for Active; 'I' for Inactive)
REMARK    1  A    between atoms: C_1  and  C_2
REMARK    2  A    between atoms: C_2  and  N_3
REMARK    3  A    between atoms: C_2  and  C_4
REMARK    4  A    between atoms: C_7  and  C_8
REMARK    5  A    between atoms: C_8  and  N_9
REMARK    6  A    between atoms: C_11  and  C_12
REMARK    7  A    between atoms: C_12  and  C_13
REMARK    8  A    between atoms: C_12  and  C_14
REMARK    9  A    between atoms: C_12  and  C_15
REMARK   10  A    between atoms: C_18  and  C_19
REMARK                            x       y       z     vdW  Elec       q    Type
REMARK                         _______ _______ _______ _____ _____    ______ ____
ROOT
ATOM      1  N   UNL     1      47.318   5.233  15.094  0.00  0.00    +0.000 N 
ATOM      2  C   UNL     1      48.272   6.214  14.971  0.00  0.00    +0.000 A 
ATOM      3  C   UNL     1      48.225   6.748  13.693  0.00  0.00    +0.000 A 
ATOM      4  C   UNL     1      47.184   6.019  13.009  0.00  0.00    +0.000 A 
ATOM      5  C   UNL     1      46.666   6.053  11.704  0.00  0.00    +0.000 A 
ATOM      6  C   UNL     1      45.654   5.156  11.395  0.00  0.00    +0.000 A 
ATOM      7  N   UNL     1      45.118   4.263  12.269  0.00  0.00    +0.000 NA
ATOM      8  C   UNL     1      45.602   4.234  13.532  0.00  0.00    +0.000 A 
ATOM      9  C   UNL     1      46.636   5.094  13.903  0.00  0.00    +0.000 A 
ENDROOT
BRANCH   6  10
ATOM     10  C   UNL     1      45.114   5.141   9.996  0.00  0.00    +0.000 C 
ATOM     11  N   UNL     1      43.775   4.903   9.870  0.00  0.00    +0.000 N 
ATOM     12  O   UNL     1      45.823   5.320   9.011  0.00  0.00    +0.000 OA
ATOM     13  H   UNL     1      43.208   4.741  10.694  0.00  0.00    +0.000 HD
ATOM     14  H   UNL     1      43.367   4.864   8.947  0.00  0.00    +0.000 HD
ENDBRANCH   6  10
BRANCH   3  15
ATOM     15  C   UNL     1      49.110   7.864  13.129  0.00  0.00    +0.000 C 
ATOM     16  C   UNL     1      48.283   9.117  12.753  0.00  0.00    +0.000 C 
ATOM     17  C   UNL     1      50.165   8.301  14.167  0.00  0.00    +0.000 C 
ATOM     18  C   UNL     1      49.828   7.395  11.847  0.00  0.00    +0.000 C 
ENDBRANCH   3  15
BRANCH   1  19
ATOM     19  C   UNL     1      47.167   4.391  16.279  0.00  0.00    +0.000 C 
BRANCH  19  23
ATOM     20  C   UNL     1      50.878   2.454  17.423  0.00  0.00    +0.000 A 
ATOM     21  C   UNL     1      49.927   1.777  16.647  0.00  0.00    +0.000 A 
ATOM     22  C   UNL     1      48.732   2.398  16.273  0.00  0.00    +0.000 A 
ATOM     23  C   UNL     1      48.456   3.713  16.670  0.00  0.00    +0.000 A 
ATOM     24  C   UNL     1      49.407   4.395  17.441  0.00  0.00    +0.000 A 
ATOM     25  C   UNL     1      50.602   3.775  17.811  0.00  0.00    +0.000 A 
BRANCH  20  27
ATOM     26  C   UNL     1      53.362   2.699  17.764  0.00  0.00    +0.000 C 
ATOM     27  C   UNL     1      52.161   1.756  17.832  0.00  0.00    +0.000 C 
BRANCH  27  28
ATOM     28  N   UNL     1      52.400   0.565  17.014  0.00  0.00    +0.000 NA
ATOM     29  H   UNL     1      51.649  -0.105  17.156  0.00  0.00    +0.000 HD
ATOM     30  H   UNL     1      53.249   0.109  17.348  0.00  0.00    +0.000 HD
ENDBRANCH  27  28
ENDBRANCH  20  27
ENDBRANCH  19  23
ENDBRANCH   1  19
TORSDOF 6
ENDMDL
MODEL 3
REMARK VINA RESULT:    -6.282      2.880      6.029
REMARK INTER + INTRA:          -8.875
REMARK INTER:                  -8.258
REMARK INTRA:                  -0.617
REMARK UNBOUND:                -0.573
REMARK  Name = 
REMARK  10 active torsions:
REMARK  status: ('A' for Active; 'I' for Inactive)
REMARK    1  A    between atoms: C_1  and  C_2
REMARK    2  A    between atoms: C_2  and  N_3
REMARK    3  A    between atoms: C_2  and  C_4
REMARK    4  A    between atoms: C_7  and  C_8
REMARK    5  A    between atoms: C_8  and  N_9
REMARK    6  A    between atoms: C_11  and  C_12
REMARK    7  A    between atoms: C_12  and  C_13
REMARK    8  A    between atoms: C_12  and  C_14
REMARK    9  A    between atoms: C_12  and  C_15
REMARK   10  A    between atoms: C_18  and  C_19
REMARK                            x       y       z     vdW  Elec       q    Type
REMARK                         _______ _______ _______ _____ _____    ______ ____
ROOT
ATOM      1  N   UNL     1      46.639   7.365  12.687  0.00  0.00    +0.000 N 
ATOM      2  C   UNL     1      45.654   6.810  11.908  0.00  0.00    +0.000 A 
ATOM      3  C   UNL     1      45.373   5.530  12.359  0.00  0.00    +0.000 A 
ATOM      4  C   UNL     1      46.268   5.307  13.469  0.00  0.00    +0.000 A 
ATOM      5  C   UNL     1      46.505   4.221  14.327  0.00  0.00    +0.000 A 
ATOM      6  C   UNL     1      47.493   4.373  15.290  0.00  0.00    +0.000 A 
ATOM      7  N   UNL     1      48.231   5.500  15.472  0.00  0.00    +0.000 NA
ATOM      8  C   UNL     1      47.998   6.556  14.657  0.00  0.00    +0.000 A 
ATOM      9  C   UNL     1      47.034   6.463  13.653  0.00  0.00    +0.000 A 
ENDROOT
BRANCH   6  10
ATOM     10  C   UNL     1      47.798   3.213  16.190  0.00  0.00    +0.000 C 
ATOM     11  N   UNL     1      47.044   3.116  17.324  0.00  0.00    +0.000 N 
ATOM     12  O   UNL     1      48.678   2.394  15.940  0.00  0.00    +0.000 OA
ATOM     13  H   UNL     1      46.333   3.810  17.522  0.00  0.00    +0.000 HD
ATOM     14  H   UNL     1      47.226   2.363  17.972  0.00  0.00    +0.000 HD
ENDBRANCH   6  10
BRANCH   3  15
ATOM     15  C   UNL     1      44.341   4.556  11.781  0.00  0.00    +0.000 C 
ATOM     16  C   UNL     1      45.015   3.305  11.167  0.00  0.00    +0.000 C 
ATOM     17  C   UNL     1      43.376   4.067  12.881  0.00  0.00    +0.000 C 
ATOM     18  C   UNL     1      43.526   5.227  10.657  0.00  0.00    +0.000 C 
ENDBRANCH   3  15
BRANCH   1  19
ATOM     19  C   UNL     1      47.249   8.665  12.420  0.00  0.00    +0.000 C 
BRANCH  19  23
ATOM     20  C   UNL     1      51.549   8.397  11.903  0.00  0.00    +0.000 A 
ATOM     21  C   UNL     1      50.997   9.235  12.881  0.00  0.00    +0.000 A 
ATOM     22  C   UNL     1      49.613   9.323  13.053  0.00  0.00    +0.000 A 
ATOM     23  C   UNL     1      48.744   8.574  12.248  0.00  0.00    +0.000 A 
ATOM     24  C   UNL     1      49.293   7.730  11.273  0.00  0.00    +0.000 A 
ATOM     25  C   UNL     1      50.676   7.642  11.104  0.00  0.00    +0.000 A 
BRANCH  20  27
ATOM     26  C   UNL     1      53.434   7.586  10.441  0.00  0.00    +0.000 C 
ATOM     27  C   UNL     1      53.053   8.330  11.721  0.00  0.00    +0.000 C 
BRANCH  27  28
ATOM     28  N   UNL     1      53.701   7.714  12.880  0.00  0.00    +0.000 NA
ATOM     29  H   UNL     1      53.094   7.790  13.692  0.00  0.00    +0.000 HD
ATOM     30  H   UNL     1      54.539   8.250  13.105  0.00  0.00    +0.000 HD
ENDBRANCH  27  28
ENDBRANCH  20  27
ENDBRANCH  19  23
ENDBRANCH   1  19
TORSDOF 6
ENDMDL
MODEL 4
REMARK VINA RESULT:    -6.272      3.486      7.498
REMARK INTER + INTRA:          -8.862
REMARK INTER:                  -8.016
REMARK INTRA:                  -0.846
REMARK UNBOUND:                -0.573
REMARK  Name = 
REMARK  10 active torsions:
REMARK  status: ('A' for Active; 'I' for Inactive)
REMARK    1  A    between atoms: C_1  and  C_2
REMARK    2  A    between atoms: C_2  and  N_3
REMARK    3  A    between atoms: C_2  and  C_4
REMARK    4  A    between atoms: C_7  and  C_8
REMARK    5  A    between atoms: C_8  and  N_9
REMARK    6  A    between atoms: C_11  and  C_12
REMARK    7  A    between atoms: C_12  and  C_13
REMARK    8  A    between atoms: C_12  and  C_14
REMARK    9  A    between atoms: C_12  and  C_15
REMARK   10  A    between atoms: C_18  and  C_19
REMARK                            x       y       z     vdW  Elec       q    Type
REMARK                         _______ _______ _______ _____ _____    ______ ____
ROOT
ATOM      1  N   UNL     1      48.768   6.517  15.951  0.00  0.00    +0.000 N 
ATOM      2  C   UNL     1      49.382   7.478  15.187  0.00  0.00    +0.000 A 
ATOM      3  C   UNL     1      48.908   7.409  13.887  0.00  0.00    +0.000 A 
ATOM      4  C   UNL     1      47.963   6.319  13.878  0.00  0.00    +0.000 A 
ATOM      5  C   UNL     1      47.170   5.724  12.883  0.00  0.00    +0.000 A 
ATOM      6  C   UNL     1      46.381   4.646  13.256  0.00  0.00    +0.000 A 
ATOM      7  N   UNL     1      46.307   4.139  14.516  0.00  0.00    +0.000 NA
ATOM      8  C   UNL     1      47.058   4.717  15.483  0.00  0.00    +0.000 A 
ATOM      9  C   UNL     1      47.891   5.791  15.171  0.00  0.00    +0.000 A 
ENDROOT
BRANCH   6  10
ATOM     10  C   UNL     1      45.558   3.964  12.204  0.00  0.00    +0.000 C 
ATOM     11  N   UNL     1      45.175   2.682  12.477  0.00  0.00    +0.000 N 
ATOM     12  O   UNL     1      45.247   4.510  11.150  0.00  0.00    +0.000 OA
ATOM     13  H   UNL     1      45.455   2.241  13.345  0.00  0.00    +0.000 HD
ATOM     14  H   UNL     1      44.636   2.173  11.790  0.00  0.00    +0.000 HD
ENDBRANCH   6  10
BRANCH   3  15
ATOM     15  C   UNL     1      49.323   8.296  12.708  0.00  0.00    +0.000 C 
ATOM     16  C   UNL     1      49.952   7.468  11.561  0.00  0.00    +0.000 C 
ATOM     17  C   UNL     1      48.100   9.036  12.126  0.00  0.00    +0.000 C 
ATOM     18  C   UNL     1      50.377   9.332  13.148  0.00  0.00    +0.000 C 
ENDBRANCH   3  15
BRANCH   1  19
ATOM     19  C   UNL     1      49.113   6.243  17.344  0.00  0.00    +0.000 C 
BRANCH  19  23
ATOM     20  C   UNL     1      52.114   3.132  17.732  0.00  0.00    +0.000 A 
ATOM     21  C   UNL     1      50.752   2.808  17.665  0.00  0.00    +0.000 A 
ATOM     22  C   UNL     1      49.782   3.806  17.537  0.00  0.00    +0.000 A 
ATOM     23  C   UNL     1      50.151   5.156  17.475  0.00  0.00    +0.000 A 
ATOM     24  C   UNL     1      51.512   5.483  17.536  0.00  0.00    +0.000 A 
ATOM     25  C   UNL     1      52.480   4.486  17.662  0.00  0.00    +0.000 A 
BRANCH  20  27
ATOM     26  C   UNL     1      52.555   0.655  17.604  0.00  0.00    +0.000 C 
ATOM     27  C   UNL     1      53.149   2.035  17.889  0.00  0.00    +0.000 C 
BRANCH  27  28
ATOM     28  N   UNL     1      53.754   2.063  19.222  0.00  0.00    +0.000 NA
ATOM     29  H   UNL     1      53.509   1.216  19.727  0.00  0.00    +0.000 HD
ATOM     30  H   UNL     1      53.341   2.833  19.748  0.00  0.00    +0.000 HD
ENDBRANCH  27  28
ENDBRANCH  20  27
ENDBRANCH  19  23
ENDBRANCH   1  19
TORSDOF 6
ENDMDL
MODEL 5
REMARK VINA RESULT:    -6.017      3.782      5.553
REMARK INTER + INTRA:          -8.525
REMARK INTER:                  -7.642
REMARK INTRA:                  -0.883
REMARK UNBOUND:                -0.573
REMARK  Name = 
REMARK  10 active torsions:
REMARK  status: ('A' for Active; 'I' for Inactive)
REMARK    1  A    between atoms: C_1  and  C_2
REMARK    2  A    between atoms: C_2  and  N_3
REMARK    3  A    between atoms: C_2  and  C_4
REMARK    4  A    between atoms: C_7  and  C_8
REMARK    5  A    between atoms: C_8  and  N_9
REMARK    6  A    between atoms: C_11  and  C_12
REMARK    7  A    between atoms: C_12  and  C_13
REMARK    8  A    between atoms: C_12  and  C_14
REMARK    9  A    between atoms: C_12  and  C_15
REMARK   10  A    between atoms: C_18  and  C_19
REMARK                            x       y       z     vdW  Elec       q    Type
REMARK                         _______ _______ _______ _____ _____    ______ ____
ROOT
ATOM      1  N   UNL     1      48.754   7.201  15.108  0.00  0.00    +0.000 N 
ATOM      2  C   UNL     1      48.825   8.548  15.368  0.00  0.00    +0.000 A 
ATOM      3  C   UNL     1      48.793   8.758  16.737  0.00  0.00    +0.000 A 
ATOM      4  C   UNL     1      48.676   7.446  17.325  0.00  0.00    +0.000 A 
ATOM      5  C   UNL     1      48.568   6.975  18.645  0.00  0.00    +0.000 A 
ATOM      6  C   UNL     1      48.443   5.605  18.825  0.00  0.00    +0.000 A 
ATOM      7  N   UNL     1      48.437   4.689  17.820  0.00  0.00    +0.000 NA
ATOM      8  C   UNL     1      48.555   5.134  16.547  0.00  0.00    +0.000 A 
ATOM      9  C   UNL     1      48.662   6.502  16.294  0.00  0.00    +0.000 A 
ENDROOT
BRANCH   6  10
ATOM     10  C   UNL     1      48.281   5.079  20.220  0.00  0.00    +0.000 C 
ATOM     11  N   UNL     1      48.639   3.777  20.417  0.00  0.00    +0.000 N 
ATOM     12  O   UNL     1      47.844   5.765  21.139  0.00  0.00    +0.000 OA
ATOM     13  H   UNL     1      48.982   3.220  19.643  0.00  0.00    +0.000 HD
ATOM     14  H   UNL     1      48.529   3.370  21.336  0.00  0.00    +0.000 HD
ENDBRANCH   6  10
BRANCH   3  15
ATOM     15  C   UNL     1      48.851  10.106  17.463  0.00  0.00    +0.000 C 
ATOM     16  C   UNL     1      50.042  10.176  18.449  0.00  0.00    +0.000 C 
ATOM     17  C   UNL     1      49.018  11.262  16.454  0.00  0.00    +0.000 C 
ATOM     18  C   UNL     1      47.568  10.338  18.287  0.00  0.00    +0.000 C 
ENDBRANCH   3  15
BRANCH   1  19
ATOM     19  C   UNL     1      48.656   6.637  13.764  0.00  0.00    +0.000 C 
BRANCH  19  23
ATOM     20  C   UNL     1      44.550   5.894  12.571  0.00  0.00    +0.000 A 
ATOM     21  C   UNL     1      45.346   4.858  13.080  0.00  0.00    +0.000 A 
ATOM     22  C   UNL     1      46.668   5.094  13.468  0.00  0.00    +0.000 A 
ATOM     23  C   UNL     1      47.229   6.373  13.355  0.00  0.00    +0.000 A 
ATOM     24  C   UNL     1      46.433   7.411  12.852  0.00  0.00    +0.000 A 
ATOM     25  C   UNL     1      45.112   7.176  12.467  0.00  0.00    +0.000 A 
BRANCH  20  27
ATOM     26  C   UNL     1      42.997   4.243  11.472  0.00  0.00    +0.000 C 
ATOM     27  C   UNL     1      43.124   5.613  12.139  0.00  0.00    +0.000 C 
BRANCH  27  28
ATOM     28  N   UNL     1      42.623   6.661  11.248  0.00  0.00    +0.000 NA
ATOM     29  H   UNL     1      42.776   6.390  10.281  0.00  0.00    +0.000 HD
ATOM     30  H   UNL     1      43.180   7.503  11.395  0.00  0.00    +0.000 HD
ENDBRANCH  27  28
ENDBRANCH  20  27
ENDBRANCH  19  23
ENDBRANCH   1  19
TORSDOF 6
ENDMDL
MODEL 6
REMARK VINA RESULT:    -5.924      3.054      8.003
REMARK INTER + INTRA:          -8.401
REMARK INTER:                  -7.838
REMARK INTRA:                  -0.563
REMARK UNBOUND:                -0.573
REMARK  Name = 
REMARK  10 active torsions:
REMARK  status: ('A' for Active; 'I' for Inactive)
REMARK    1  A    between atoms: C_1  and  C_2
REMARK    2  A    between atoms: C_2  and  N_3
REMARK    3  A    between atoms: C_2  and  C_4
REMARK    4  A    between atoms: C_7  and  C_8
REMARK    5  A    between atoms: C_8  and  N_9
REMARK    6  A    between atoms: C_11  and  C_12
REMARK    7  A    between atoms: C_12  and  C_13
REMARK    8  A    between atoms: C_12  and  C_14
REMARK    9  A    between atoms: C_12  and  C_15
REMARK   10  A    between atoms: C_18  and  C_19
REMARK                            x       y       z     vdW  Elec       q    Type
REMARK                         _______ _______ _______ _____ _____    ______ ____
ROOT
ATOM      1  N   UNL     1      47.250   4.495  14.729  0.00  0.00    +0.000 N 
ATOM      2  C   UNL     1      47.893   5.707  14.777  0.00  0.00    +0.000 A 
ATOM      3  C   UNL     1      47.573   6.446  13.650  0.00  0.00    +0.000 A 
ATOM      4  C   UNL     1      46.695   5.605  12.874  0.00  0.00    +0.000 A 
ATOM      5  C   UNL     1      46.051   5.748  11.633  0.00  0.00    +0.000 A 
ATOM      6  C   UNL     1      45.284   4.682  11.185  0.00  0.00    +0.000 A 
ATOM      7  N   UNL     1      45.097   3.522  11.868  0.00  0.00    +0.000 NA
ATOM      8  C   UNL     1      45.702   3.382  13.071  0.00  0.00    +0.000 A 
ATOM      9  C   UNL     1      46.506   4.407  13.570  0.00  0.00    +0.000 A 
ENDROOT
BRANCH   6  10
ATOM     10  C   UNL     1      44.623   4.791   9.844  0.00  0.00    +0.000 C 
ATOM     11  N   UNL     1      45.457   4.907   8.769  0.00  0.00    +0.000 N 
ATOM     12  O   UNL     1      43.403   4.787   9.705  0.00  0.00    +0.000 OA
ATOM     13  H   UNL     1      46.461   4.926   8.904  0.00  0.00    +0.000 HD
ATOM     14  H   UNL     1      45.058   5.004   7.845  0.00  0.00    +0.000 HD
ENDBRANCH   6  10
BRANCH   3  15
ATOM     15  C   UNL     1      48.069   7.854  13.300  0.00  0.00    +0.000 C 
ATOM     16  C   UNL     1      48.683   7.908  11.880  0.00  0.00    +0.000 C 
ATOM     17  C   UNL     1      46.906   8.867  13.340  0.00  0.00    +0.000 C 
ATOM     18  C   UNL     1      49.166   8.306  14.285  0.00  0.00    +0.000 C 
ENDBRANCH   3  15
BRANCH   1  19
ATOM     19  C   UNL     1      47.451   3.430  15.708  0.00  0.00    +0.000 C 
BRANCH  19  23
ATOM     20  C   UNL     1      49.093   4.908  19.443  0.00  0.00    +0.000 A 
ATOM     21  C   UNL     1      47.783   5.229  19.061  0.00  0.00    +0.000 A 
ATOM     22  C   UNL     1      47.249   4.752  17.860  0.00  0.00    +0.000 A 
ATOM     23  C   UNL     1      48.014   3.944  17.009  0.00  0.00    +0.000 A 
ATOM     24  C   UNL     1      49.322   3.617  17.392  0.00  0.00    +0.000 A 
ATOM     25  C   UNL     1      49.854   4.091  18.592  0.00  0.00    +0.000 A 
BRANCH  20  27
ATOM     26  C   UNL     1      49.932   6.952  20.654  0.00  0.00    +0.000 C 
ATOM     27  C   UNL     1      49.659   5.450  20.741  0.00  0.00    +0.000 C 
BRANCH  27  28
ATOM     28  N   UNL     1      50.875   4.734  21.130  0.00  0.00    +0.000 NA
ATOM     29  H   UNL     1      51.636   4.987  20.505  0.00  0.00    +0.000 HD
ATOM     30  H   UNL     1      50.720   3.735  20.991  0.00  0.00    +0.000 HD
ENDBRANCH  27  28
ENDBRANCH  20  27
ENDBRANCH  19  23
ENDBRANCH   1  19
TORSDOF 6
ENDMDL
MODEL 7
REMARK VINA RESULT:    -5.802      3.555      6.733
REMARK INTER + INTRA:          -8.240
REMARK INTER:                  -7.551
REMARK INTRA:                  -0.689
REMARK UNBOUND:                -0.573
REMARK  Name = 
REMARK  10 active torsions:
REMARK  status: ('A' for Active; 'I' for Inactive)
REMARK    1  A    between atoms: C_1  and  C_2
REMARK    2  A    between atoms: C_2  and  N_3
REMARK    3  A    between atoms: C_2  and  C_4
REMARK    4  A    between atoms: C_7  and  C_8
REMARK    5  A    between atoms: C_8  and  N_9
REMARK    6  A    between atoms: C_11  and  C_12
REMARK    7  A    between atoms: C_12  and  C_13
REMARK    8  A    between atoms: C_12  and  C_14
REMARK    9  A    between atoms: C_12  and  C_15
REMARK   10  A    between atoms: C_18  and  C_19
REMARK                            x       y       z     vdW  Elec       q    Type
REMARK                         _______ _______ _______ _____ _____    ______ ____
ROOT
ATOM      1  N   UNL     1      48.513   7.124  14.161  0.00  0.00    +0.000 N 
ATOM      2  C   UNL     1      48.864   6.595  15.379  0.00  0.00    +0.000 A 
ATOM      3  C   UNL     1      48.173   5.412  15.586  0.00  0.00    +0.000 A 
ATOM      4  C   UNL     1      47.342   5.242  14.419  0.00  0.00    +0.000 A 
ATOM      5  C   UNL     1      46.398   4.278  14.026  0.00  0.00    +0.000 A 
ATOM      6  C   UNL     1      45.762   4.468  12.808  0.00  0.00    +0.000 A 
ATOM      7  N   UNL     1      46.000   5.506  11.963  0.00  0.00    +0.000 NA
ATOM      8  C   UNL     1      46.919   6.430  12.328  0.00  0.00    +0.000 A 
ATOM      9  C   UNL     1      47.579   6.312  13.551  0.00  0.00    +0.000 A 
ENDROOT
BRANCH   6  10
ATOM     10  C   UNL     1      44.717   3.479  12.385  0.00  0.00    +0.000 C 
ATOM     11  N   UNL     1      44.921   2.864  11.183  0.00  0.00    +0.000 N 
ATOM     12  O   UNL     1      43.725   3.232  13.065  0.00  0.00    +0.000 OA
ATOM     13  H   UNL     1      45.737   3.092  10.627  0.00  0.00    +0.000 HD
ATOM     14  H   UNL     1      44.235   2.204  10.845  0.00  0.00    +0.000 HD
ENDBRANCH   6  10
BRANCH   3  15
ATOM     15  C   UNL     1      48.263   4.495  16.811  0.00  0.00    +0.000 C 
ATOM     16  C   UNL     1      48.157   3.002  16.418  0.00  0.00    +0.000 C 
ATOM     17  C   UNL     1      49.611   4.687  17.537  0.00  0.00    +0.000 C 
ATOM     18  C   UNL     1      47.113   4.786  17.796  0.00  0.00    +0.000 C 
ENDBRANCH   3  15
BRANCH   1  19
ATOM     19  C   UNL     1      48.975   8.423  13.677  0.00  0.00    +0.000 C 
BRANCH  19  23
ATOM     20  C   UNL     1      52.591   8.101  11.299  0.00  0.00    +0.000 A 
ATOM     21  C   UNL     1      51.346   7.754  10.757  0.00  0.00    +0.000 A 
ATOM     22  C   UNL     1      50.178   7.859  11.519  0.00  0.00    +0.000 A 
ATOM     23  C   UNL     1      50.227   8.312  12.844  0.00  0.00    +0.000 A 
ATOM     24  C   UNL     1      51.471   8.664  13.386  0.00  0.00    +0.000 A 
ATOM     25  C   UNL     1      52.636   8.561  12.624  0.00  0.00    +0.000 A 
BRANCH  20  27
ATOM     26  C   UNL     1      53.544   7.381   9.080  0.00  0.00    +0.000 C 
ATOM     27  C   UNL     1      53.848   7.962  10.462  0.00  0.00    +0.000 C 
BRANCH  27  28
ATOM     28  N   UNL     1      54.855   7.149  11.146  0.00  0.00    +0.000 NA
ATOM     29  H   UNL     1      55.426   6.663  10.460  0.00  0.00    +0.000 HD
ATOM     30  H   UNL     1      54.376   6.422  11.678  0.00  0.00    +0.000 HD
ENDBRANCH  27  28
ENDBRANCH  20  27
ENDBRANCH  19  23
ENDBRANCH   1  19
TORSDOF 6
ENDMDL
