MODEL 1
REMARK VINA RESULT:    -8.171      0.000      0.000
REMARK INTER + INTRA:         -12.175
REMARK INTER:                 -11.037
REMARK INTRA:                  -1.138
REMARK UNBOUND:                -1.138
REMARK  Name = 
REMARK  7 active torsions:
REMARK  status: ('A' for Active; 'I' for Inactive)
REMARK    1  A    between atoms: C_1  and  C_2
REMARK    2  A    between atoms: C_6  and  C_7
REMARK    3  A    between atoms: N_9  and  C_10
REMARK    4  A    between atoms: C_10  and  C_11
REMARK    5  A    between atoms: C_14  and  C_15
REMARK    6  A    between atoms: C_15  and  N_16
REMARK    7  A    between atoms: C_17  and  C_19
REMARK                            x       y       z     vdW  Elec       q    Type
REMARK                         _______ _______ _______ _____ _____    ______ ____
ROOT
ATOM      1  C   UNL     1      45.270   6.681  11.327  0.00  0.00    +0.000 A 
ATOM      2  C   UNL     1      46.553   6.194  11.612  0.00  0.00    +0.000 A 
ATOM      3  C   UNL     1      47.392   6.854  12.525  0.00  0.00    +0.000 A 
ATOM      4  C   UNL     1      46.962   8.006  13.195  0.00  0.00    +0.000 A 
ATOM      5  C   UNL     1      45.688   8.509  12.892  0.00  0.00    +0.000 A 
ATOM      6  C   UNL     1      44.847   7.845  11.983  0.00  0.00    +0.000 A 
ENDROOT
BRANCH   1   7
ATOM      7  C   UNL     1      44.385   5.986  10.316  0.00  0.00    +0.000 C 
BRANCH   7  10
ATOM      8  C   UNL     1      44.935   3.785   9.320  0.00  0.00    +0.000 C 
ATOM      9  O   UNL     1      44.174   3.164  10.050  0.00  0.00    +0.000 OA
ATOM     10  N   UNL     1      45.112   5.158   9.383  0.00  0.00    +0.000 N 
ATOM     11  H   UNL     1      45.753   5.568   8.710  0.00  0.00    +0.000 HD
BRANCH   8  17
ATOM     12  C   UNL     1      46.758  -0.394   7.658  0.00  0.00    +0.000 C 
ATOM     13  C   UNL     1      46.626   1.087   7.479  0.00  0.00    +0.000 A 
ATOM     14  C   UNL     1      47.232   1.735   6.406  0.00  0.00    +0.000 A 
ATOM     15  C   UNL     1      47.088   3.115   6.283  0.00  0.00    +0.000 A 
ATOM     16  C   UNL     1      46.340   3.808   7.229  0.00  0.00    +0.000 A 
ATOM     17  C   UNL     1      45.762   3.090   8.269  0.00  0.00    +0.000 A 
ATOM     18  N   UNL     1      45.894   1.741   8.414  0.00  0.00    +0.000 NA
ENDBRANCH   8  17
ENDBRANCH   7  10
ENDBRANCH   1   7
BRANCH   4  19
ATOM     19  C   UNL     1      47.841   8.676  14.226  0.00  0.00    +0.000 C 
BRANCH  19  20
ATOM     20  N   UNL     1      48.112   7.826  15.360  0.00  0.00    +0.000 N 
ATOM     21  C   UNL     1      49.303   7.148  15.481  0.00  0.00    +0.000 C 
ATOM     22  O   UNL     1      50.216   7.275  14.669  0.00  0.00    +0.000 OA
ATOM     23  H   UNL     1      47.313   7.524  15.906  0.00  0.00    +0.000 HD
BRANCH  21  24
ATOM     24  C   UNL     1      49.452   6.300  16.671  0.00  0.00    +0.000 A 
ATOM     25  C   UNL     1      50.396   6.615  17.642  0.00  0.00    +0.000 A 
ATOM     26  S   UNL     1      50.406   5.533  18.961  0.00  0.00    +0.000 S 
ATOM     27  C   UNL     1      49.180   4.582  18.264  0.00  0.00    +0.000 A 
ATOM     28  N   UNL     1      48.725   3.458  18.882  0.00  0.00    +0.000 NA
ATOM     29  C   UNL     1      47.802   2.829  18.231  0.00  0.00    +0.000 A 
ATOM     30  N   UNL     1      47.292   3.223  17.024  0.00  0.00    +0.000 N 
ATOM     31  C   UNL     1      47.704   4.360  16.373  0.00  0.00    +0.000 A 
ATOM     32  O   UNL     1      47.194   4.708  15.314  0.00  0.00    +0.000 OA
ATOM     33  C   UNL     1      48.751   5.099  17.054  0.00  0.00    +0.000 A 
ATOM     34  H   UNL     1      46.556   2.699  16.574  0.00  0.00    +0.000 HD
ENDBRANCH  21  24
ENDBRANCH  19  20
ENDBRANCH   4  19
TORSDOF 6
ENDMDL
MODEL 2
REMARK VINA RESULT:    -7.384      1.853      2.302
REMARK INTER + INTRA:         -11.112
REMARK INTER:                 -10.182
REMARK INTRA:                  -0.931
REMARK UNBOUND:                -1.138
REMARK  Name = 
REMARK  7 active torsions:
REMARK  status: ('A' for Active; 'I' for Inactive)
REMARK    1  A    between atoms: C_1  and  C_2
REMARK    2  A    between atoms: C_6  and  C_7
REMARK    3  A    between atoms: N_9  and  C_10
REMARK    4  A    between atoms: C_10  and  C_11
REMARK    5  A    between atoms: C_14  and  C_15
REMARK    6  A    between atoms: C_15  and  N_16
REMARK    7  A    between atoms: C_17  and  C_19
REMARK                            x       y       z     vdW  Elec       q    Type
REMARK                         _______ _______ _______ _____ _____    ______ ____
ROOT
ATOM      1  C   UNL     1      44.982   5.143  11.986  0.00  0.00    +0.000 A 
ATOM      2  C   UNL     1      46.042   5.133  12.904  0.00  0.00    +0.000 A 
ATOM      3  C   UNL     1      46.630   6.330  13.343  0.00  0.00    +0.000 A 
ATOM      4  C   UNL     1      46.159   7.571  12.894  0.00  0.00    +0.000 A 
ATOM      5  C   UNL     1      45.117   7.582  11.957  0.00  0.00    +0.000 A 
ATOM      6  C   UNL     1      44.525   6.384  11.522  0.00  0.00    +0.000 A 
ENDROOT
BRANCH   1   7
ATOM      7  C   UNL     1      44.376   3.849  11.489  0.00  0.00    +0.000 C 
BRANCH   7  10
ATOM      8  C   UNL     1      44.925   3.585   9.088  0.00  0.00    +0.000 C 
ATOM      9  O   UNL     1      44.105   4.414   8.717  0.00  0.00    +0.000 OA
ATOM     10  N   UNL     1      45.121   3.236  10.415  0.00  0.00    +0.000 N 
ATOM     11  H   UNL     1      45.847   2.552  10.606  0.00  0.00    +0.000 HD
BRANCH   8  17
ATOM     12  C   UNL     1      46.722  -0.664   7.582  0.00  0.00    +0.000 C 
ATOM     13  C   UNL     1      46.660   0.821   7.392  0.00  0.00    +0.000 A 
ATOM     14  C   UNL     1      47.375   1.442   6.372  0.00  0.00    +0.000 A 
ATOM     15  C   UNL     1      47.292   2.825   6.236  0.00  0.00    +0.000 A 
ATOM     16  C   UNL     1      46.496   3.549   7.118  0.00  0.00    +0.000 A 
ATOM     17  C   UNL     1      45.809   2.856   8.108  0.00  0.00    +0.000 A 
ATOM     18  N   UNL     1      45.878   1.504   8.264  0.00  0.00    +0.000 NA
ENDBRANCH   8  17
ENDBRANCH   7  10
ENDBRANCH   1   7
BRANCH   4  19
ATOM     19  C   UNL     1      46.751   8.859  13.421  0.00  0.00    +0.000 C 
BRANCH  19  20
ATOM     20  N   UNL     1      47.157   8.760  14.801  0.00  0.00    +0.000 N 
ATOM     21  C   UNL     1      48.428   9.097  15.202  0.00  0.00    +0.000 C 
ATOM     22  O   UNL     1      49.262   9.554  14.424  0.00  0.00    +0.000 OA
ATOM     23  H   UNL     1      46.585   8.180  15.405  0.00  0.00    +0.000 HD
BRANCH  21  24
ATOM     24  C   UNL     1      48.726   8.935  16.631  0.00  0.00    +0.000 A 
ATOM     25  C   UNL     1      48.554  10.000  17.508  0.00  0.00    +0.000 A 
ATOM     26  S   UNL     1      48.924   9.617  19.129  0.00  0.00    +0.000 S 
ATOM     27  C   UNL     1      49.367   8.028  18.713  0.00  0.00    +0.000 A 
ATOM     28  N   UNL     1      49.815   7.154  19.654  0.00  0.00    +0.000 NA
ATOM     29  C   UNL     1      50.127   5.988  19.192  0.00  0.00    +0.000 A 
ATOM     30  N   UNL     1      50.028   5.616  17.878  0.00  0.00    +0.000 N 
ATOM     31  C   UNL     1      49.561   6.457  16.897  0.00  0.00    +0.000 A 
ATOM     32  O   UNL     1      49.443   6.078  15.737  0.00  0.00    +0.000 OA
ATOM     33  C   UNL     1      49.209   7.787  17.359  0.00  0.00    +0.000 A 
ATOM     34  H   UNL     1      50.268   4.683  17.581  0.00  0.00    +0.000 HD
ENDBRANCH  21  24
ENDBRANCH  19  20
ENDBRANCH   4  19
TORSDOF 6
ENDMDL
MODEL 3
REMARK VINA RESULT:    -7.383      5.097      9.985
REMARK INTER + INTRA:         -11.112
REMARK INTER:                 -10.254
REMARK INTRA:                  -0.857
REMARK UNBOUND:                -1.138
REMARK  Name = 
REMARK  7 active torsions:
REMARK  status: ('A' for Active; 'I' for Inactive)
REMARK    1  A    between atoms: C_1  and  C_2
REMARK    2  A    between atoms: C_6  and  C_7
REMARK    3  A    between atoms: N_9  and  C_10
REMARK    4  A    between atoms: C_10  and  C_11
REMARK    5  A    between atoms: C_14  and  C_15
REMARK    6  A    between atoms: C_15  and  N_16
REMARK    7  A    between atoms: C_17  and  C_19
REMARK                            x       y       z     vdW  Elec       q    Type
REMARK                         _______ _______ _______ _____ _____    ______ ____
ROOT
ATOM      1  C   UNL     1      51.614   2.784  17.819  0.00  0.00    +0.000 A 
ATOM      2  C   UNL     1      51.015   4.013  18.129  0.00  0.00    +0.000 A 
ATOM      3  C   UNL     1      49.665   4.257  17.830  0.00  0.00    +0.000 A 
ATOM      4  C   UNL     1      48.870   3.270  17.232  0.00  0.00    +0.000 A 
ATOM      5  C   UNL     1      49.473   2.049  16.899  0.00  0.00    +0.000 A 
ATOM      6  C   UNL     1      50.823   1.804  17.203  0.00  0.00    +0.000 A 
ENDROOT
BRANCH   1   7
ATOM      7  C   UNL     1      53.078   2.540  18.111  0.00  0.00    +0.000 C 
BRANCH   7  10
ATOM      8  C   UNL     1      54.127   0.339  17.671  0.00  0.00    +0.000 C 
ATOM      9  O   UNL     1      54.581   0.673  16.585  0.00  0.00    +0.000 OA
ATOM     10  N   UNL     1      53.374   1.176  18.480  0.00  0.00    +0.000 N 
ATOM     11  H   UNL     1      53.070   0.798  19.372  0.00  0.00    +0.000 HD
BRANCH   8  17
ATOM     12  C   UNL     1      52.689  -3.095  20.785  0.00  0.00    +0.000 C 
ATOM     13  C   UNL     1      53.656  -2.679  19.719  0.00  0.00    +0.000 A 
ATOM     14  C   UNL     1      54.670  -3.537  19.300  0.00  0.00    +0.000 A 
ATOM     15  C   UNL     1      55.551  -3.107  18.310  0.00  0.00    +0.000 A 
ATOM     16  C   UNL     1      55.392  -1.838  17.763  0.00  0.00    +0.000 A 
ATOM     17  C   UNL     1      54.353  -1.042  18.230  0.00  0.00    +0.000 A 
ATOM     18  N   UNL     1      53.483  -1.438  19.201  0.00  0.00    +0.000 NA
ENDBRANCH   8  17
ENDBRANCH   7  10
ENDBRANCH   1   7
BRANCH   4  19
ATOM     19  C   UNL     1      47.400   3.512  16.973  0.00  0.00    +0.000 C 
BRANCH  19  20
ATOM     20  N   UNL     1      47.173   4.553  16.000  0.00  0.00    +0.000 N 
ATOM     21  C   UNL     1      47.156   4.284  14.651  0.00  0.00    +0.000 C 
ATOM     22  O   UNL     1      47.273   3.144  14.208  0.00  0.00    +0.000 OA
ATOM     23  H   UNL     1      47.307   5.508  16.313  0.00  0.00    +0.000 HD
BRANCH  21  24
ATOM     24  C   UNL     1      46.934   5.430  13.760  0.00  0.00    +0.000 A 
ATOM     25  C   UNL     1      47.954   6.345  13.528  0.00  0.00    +0.000 A 
ATOM     26  S   UNL     1      47.519   7.592  12.447  0.00  0.00    +0.000 S 
ATOM     27  C   UNL     1      45.941   6.978  12.283  0.00  0.00    +0.000 A 
ATOM     28  N   UNL     1      45.022   7.604  11.499  0.00  0.00    +0.000 NA
ATOM     29  C   UNL     1      43.863   7.032  11.479  0.00  0.00    +0.000 A 
ATOM     30  N   UNL     1      43.542   5.893  12.166  0.00  0.00    +0.000 N 
ATOM     31  C   UNL     1      44.442   5.216  12.953  0.00  0.00    +0.000 A 
ATOM     32  O   UNL     1      44.134   4.174  13.519  0.00  0.00    +0.000 OA
ATOM     33  C   UNL     1      45.758   5.822  13.022  0.00  0.00    +0.000 A 
ATOM     34  H   UNL     1      42.623   5.483  12.095  0.00  0.00    +0.000 HD
ENDBRANCH  21  24
ENDBRANCH  19  20
ENDBRANCH   4  19
TORSDOF 6
ENDMDL
MODEL 4
REMARK VINA RESULT:    -7.069      1.675      2.311
REMARK INTER + INTRA:         -10.687
REMARK INTER:                  -9.799
REMARK INTRA:                  -0.888
REMARK UNBOUND:                -1.138
REMARK  Name = 
REMARK  7 active torsions:
REMARK  status: ('A' for Active; 'I' for Inactive)
REMARK    1  A    between atoms: C_1  and  C_2
REMARK    2  A    between atoms: C_6  and  C_7
REMARK    3  A    between atoms: N_9  and  C_10
REMARK    4  A    between atoms: C_10  and  C_11
REMARK    5  A    between atoms: C_14  and  C_15
REMARK    6  A    between atoms: C_15  and  N_16
REMARK    7  A    between atoms: C_17  and  C_19
REMARK                            x       y       z     vdW  Elec       q    Type
REMARK                         _______ _______ _______ _____ _____    ______ ____
ROOT
ATOM      1  C   UNL     1      45.942   7.372  12.248  0.00  0.00    +0.000 A 
ATOM      2  C   UNL     1      45.980   8.693  12.714  0.00  0.00    +0.000 A 
ATOM      3  C   UNL     1      46.933   9.100  13.662  0.00  0.00    +0.000 A 
ATOM      4  C   UNL     1      47.889   8.201  14.153  0.00  0.00    +0.000 A 
ATOM      5  C   UNL     1      47.836   6.873  13.707  0.00  0.00    +0.000 A 
ATOM      6  C   UNL     1      46.886   6.468  12.754  0.00  0.00    +0.000 A 
ENDROOT
BRANCH   1   7
ATOM      7  C   UNL     1      44.891   6.931  11.253  0.00  0.00    +0.000 C 
BRANCH   7  10
ATOM      8  C   UNL     1      44.387   4.844  10.018  0.00  0.00    +0.000 C 
ATOM      9  O   UNL     1      43.194   4.865  10.289  0.00  0.00    +0.000 OA
ATOM     10  N   UNL     1      45.292   5.800  10.450  0.00  0.00    +0.000 N 
ATOM     11  H   UNL     1      46.253   5.693  10.142  0.00  0.00    +0.000 HD
BRANCH   8  17
ATOM     12  C   UNL     1      46.934   3.671   6.056  0.00  0.00    +0.000 C 
ATOM     13  C   UNL     1      46.206   3.198   7.277  0.00  0.00    +0.000 A 
ATOM     14  C   UNL     1      46.115   1.841   7.575  0.00  0.00    +0.000 A 
ATOM     15  C   UNL     1      45.423   1.446   8.717  0.00  0.00    +0.000 A 
ATOM     16  C   UNL     1      44.846   2.415   9.532  0.00  0.00    +0.000 A 
ATOM     17  C   UNL     1      44.984   3.749   9.171  0.00  0.00    +0.000 A 
ATOM     18  N   UNL     1      45.651   4.160   8.055  0.00  0.00    +0.000 NA
ENDBRANCH   8  17
ENDBRANCH   7  10
ENDBRANCH   1   7
BRANCH   4  19
ATOM     19  C   UNL     1      48.955   8.658  15.123  0.00  0.00    +0.000 C 
BRANCH  19  20
ATOM     20  N   UNL     1      49.794   7.576  15.575  0.00  0.00    +0.000 N 
ATOM     21  C   UNL     1      49.616   6.997  16.810  0.00  0.00    +0.000 C 
ATOM     22  O   UNL     1      48.704   7.327  17.564  0.00  0.00    +0.000 OA
ATOM     23  H   UNL     1      50.676   7.447  15.091  0.00  0.00    +0.000 HD
BRANCH  21  24
ATOM     24  C   UNL     1      50.545   5.916  17.165  0.00  0.00    +0.000 A 
ATOM     25  C   UNL     1      51.855   6.209  17.526  0.00  0.00    +0.000 A 
ATOM     26  S   UNL     1      52.777   4.830  17.929  0.00  0.00    +0.000 S 
ATOM     27  C   UNL     1      51.472   3.791  17.596  0.00  0.00    +0.000 A 
ATOM     28  N   UNL     1      51.600   2.442  17.718  0.00  0.00    +0.000 NA
ATOM     29  C   UNL     1      50.533   1.776  17.421  0.00  0.00    +0.000 A 
ATOM     30  N   UNL     1      49.351   2.337  17.017  0.00  0.00    +0.000 N 
ATOM     31  C   UNL     1      49.169   3.694  16.899  0.00  0.00    +0.000 A 
ATOM     32  O   UNL     1      48.083   4.164  16.578  0.00  0.00    +0.000 OA
ATOM     33  C   UNL     1      50.342   4.489  17.208  0.00  0.00    +0.000 A 
ATOM     34  H   UNL     1      48.545   1.765  16.817  0.00  0.00    +0.000 HD
ENDBRANCH  21  24
ENDBRANCH  19  20
ENDBRANCH   4  19
TORSDOF 6
ENDMDL
MODEL 5
REMARK VINA RESULT:    -6.957      1.695      2.143
REMARK INTER + INTRA:         -10.536
REMARK INTER:                  -9.762
REMARK INTRA:                  -0.774
REMARK UNBOUND:                -1.138
REMARK  Name = 
REMARK  7 active torsions:
REMARK  status: ('A' for Active; 'I' for Inactive)
REMARK    1  A    between atoms: C_1  and  C_2
REMARK    2  A    between atoms: C_6  and  C_7
REMARK    3  A    between atoms: N_9  and  C_10
REMARK    4  A    between atoms: C_10  and  C_11
REMARK    5  A    between atoms: C_14  and  C_15
REMARK    6  A    between atoms: C_15  and  N_16
REMARK    7  A    between atoms: C_17  and  C_19
REMARK                            x       y       z     vdW  Elec       q    Type
REMARK                         _______ _______ _______ _____ _____    ______ ____
ROOT
ATOM      1  C   UNL     1      45.292   6.351  11.834  0.00  0.00    +0.000 A 
ATOM      2  C   UNL     1      45.247   7.744  11.681  0.00  0.00    +0.000 A 
ATOM      3  C   UNL     1      46.049   8.586  12.469  0.00  0.00    +0.000 A 
ATOM      4  C   UNL     1      46.935   8.056  13.416  0.00  0.00    +0.000 A 
ATOM      5  C   UNL     1      46.963   6.665  13.588  0.00  0.00    +0.000 A 
ATOM      6  C   UNL     1      46.164   5.823  12.796  0.00  0.00    +0.000 A 
ENDROOT
BRANCH   1   7
ATOM      7  C   UNL     1      44.400   5.452  11.007  0.00  0.00    +0.000 C 
BRANCH   7  10
ATOM      8  C   UNL     1      44.813   3.448   9.610  0.00  0.00    +0.000 C 
ATOM      9  O   UNL     1      43.975   2.765  10.184  0.00  0.00    +0.000 OA
ATOM     10  N   UNL     1      45.097   4.762   9.947  0.00  0.00    +0.000 N 
ATOM     11  H   UNL     1      45.796   5.237   9.385  0.00  0.00    +0.000 HD
BRANCH   8  17
ATOM     12  C   UNL     1      46.834  -0.438   7.520  0.00  0.00    +0.000 C 
ATOM     13  C   UNL     1      46.584   1.038   7.470  0.00  0.00    +0.000 A 
ATOM     14  C   UNL     1      47.078   1.812   6.422  0.00  0.00    +0.000 A 
ATOM     15  C   UNL     1      46.826   3.181   6.419  0.00  0.00    +0.000 A 
ATOM     16  C   UNL     1      46.087   3.740   7.457  0.00  0.00    +0.000 A 
ATOM     17  C   UNL     1      45.625   2.902   8.464  0.00  0.00    +0.000 A 
ATOM     18  N   UNL     1      45.863   1.560   8.492  0.00  0.00    +0.000 NA
ENDBRANCH   8  17
ENDBRANCH   7  10
ENDBRANCH   1   7
BRANCH   4  19
ATOM     19  C   UNL     1      47.845   8.961  14.215  0.00  0.00    +0.000 C 
BRANCH  19  20
ATOM     20  N   UNL     1      49.049   8.296  14.647  0.00  0.00    +0.000 N 
ATOM     21  C   UNL     1      49.328   8.109  15.980  0.00  0.00    +0.000 C 
ATOM     22  O   UNL     1      48.546   8.442  16.867  0.00  0.00    +0.000 OA
ATOM     23  H   UNL     1      49.801   8.225  13.969  0.00  0.00    +0.000 HD
BRANCH  21  24
ATOM     24  C   UNL     1      50.595   7.434  16.294  0.00  0.00    +0.000 A 
ATOM     25  C   UNL     1      51.806   8.019  15.943  0.00  0.00    +0.000 A 
ATOM     26  S   UNL     1      53.167   7.103  16.412  0.00  0.00    +0.000 S 
ATOM     27  C   UNL     1      52.188   5.874  17.062  0.00  0.00    +0.000 A 
ATOM     28  N   UNL     1      52.736   4.758  17.615  0.00  0.00    +0.000 NA
ATOM     29  C   UNL     1      51.872   3.904  18.057  0.00  0.00    +0.000 A 
ATOM     30  N   UNL     1      50.515   4.066  18.001  0.00  0.00    +0.000 N 
ATOM     31  C   UNL     1      49.917   5.184  17.472  0.00  0.00    +0.000 A 
ATOM     32  O   UNL     1      48.698   5.317  17.477  0.00  0.00    +0.000 OA
ATOM     33  C   UNL     1      50.841   6.171  16.947  0.00  0.00    +0.000 A 
ATOM     34  H   UNL     1      49.891   3.371  18.381  0.00  0.00    +0.000 HD
ENDBRANCH  21  24
ENDBRANCH  19  20
ENDBRANCH   4  19
TORSDOF 6
ENDMDL
MODEL 6
REMARK VINA RESULT:    -6.825      2.309      3.365
REMARK INTER + INTRA:         -10.357
REMARK INTER:                  -9.412
REMARK INTRA:                  -0.946
REMARK UNBOUND:                -1.138
REMARK  Name = 
REMARK  7 active torsions:
REMARK  status: ('A' for Active; 'I' for Inactive)
REMARK    1  A    between atoms: C_1  and  C_2
REMARK    2  A    between atoms: C_6  and  C_7
REMARK    3  A    between atoms: N_9  and  C_10
REMARK    4  A    between atoms: C_10  and  C_11
REMARK    5  A    between atoms: C_14  and  C_15
REMARK    6  A    between atoms: C_15  and  N_16
REMARK    7  A    between atoms: C_17  and  C_19
REMARK                            x       y       z     vdW  Elec       q    Type
REMARK                         _______ _______ _______ _____ _____    ______ ____
ROOT
ATOM      1  C   UNL     1      46.252   7.244  12.356  0.00  0.00    +0.000 A 
ATOM      2  C   UNL     1      46.378   8.481  13.005  0.00  0.00    +0.000 A 
ATOM      3  C   UNL     1      47.251   8.642  14.094  0.00  0.00    +0.000 A 
ATOM      4  C   UNL     1      48.039   7.576  14.549  0.00  0.00    +0.000 A 
ATOM      5  C   UNL     1      47.895   6.333  13.917  0.00  0.00    +0.000 A 
ATOM      6  C   UNL     1      47.026   6.174  12.825  0.00  0.00    +0.000 A 
ENDROOT
BRANCH   1   7
ATOM      7  C   UNL     1      45.284   7.068  11.207  0.00  0.00    +0.000 C 
BRANCH   7  10
ATOM      8  C   UNL     1      44.610   4.937  10.140  0.00  0.00    +0.000 C 
ATOM      9  O   UNL     1      43.476   4.962  10.600  0.00  0.00    +0.000 OA
ATOM     10  N   UNL     1      45.562   5.912  10.388  0.00  0.00    +0.000 N 
ATOM     11  H   UNL     1      46.463   5.799   9.933  0.00  0.00    +0.000 HD
BRANCH   8  17
ATOM     12  C   UNL     1      46.863   3.648   6.039  0.00  0.00    +0.000 C 
ATOM     13  C   UNL     1      46.156   3.210   7.285  0.00  0.00    +0.000 A 
ATOM     14  C   UNL     1      45.967   1.858   7.561  0.00  0.00    +0.000 A 
ATOM     15  C   UNL     1      45.299   1.495   8.728  0.00  0.00    +0.000 A 
ATOM     16  C   UNL     1      44.843   2.490   9.588  0.00  0.00    +0.000 A 
ATOM     17  C   UNL     1      45.074   3.816   9.245  0.00  0.00    +0.000 A 
ATOM     18  N   UNL     1      45.720   4.196   8.107  0.00  0.00    +0.000 NA
ENDBRANCH   8  17
ENDBRANCH   7  10
ENDBRANCH   1   7
BRANCH   4  19
ATOM     19  C   UNL     1      49.026   7.770  15.677  0.00  0.00    +0.000 C 
BRANCH  19  20
ATOM     20  N   UNL     1      49.734   6.559  16.009  0.00  0.00    +0.000 N 
ATOM     21  C   UNL     1      49.326   5.748  17.042  0.00  0.00    +0.000 C 
ATOM     22  O   UNL     1      48.311   5.977  17.694  0.00  0.00    +0.000 OA
ATOM     23  H   UNL     1      50.680   6.471  15.655  0.00  0.00    +0.000 HD
BRANCH  21  24
ATOM     24  C   UNL     1      50.140   4.551  17.294  0.00  0.00    +0.000 A 
ATOM     25  C   UNL     1      49.573   3.286  17.203  0.00  0.00    +0.000 A 
ATOM     26  S   UNL     1      50.677   2.019  17.502  0.00  0.00    +0.000 S 
ATOM     27  C   UNL     1      51.942   3.116  17.803  0.00  0.00    +0.000 A 
ATOM     28  N   UNL     1      53.183   2.680  18.148  0.00  0.00    +0.000 NA
ATOM     29  C   UNL     1      54.040   3.624  18.359  0.00  0.00    +0.000 A 
ATOM     30  N   UNL     1      53.770   4.961  18.253  0.00  0.00    +0.000 N 
ATOM     31  C   UNL     1      52.538   5.449  17.888  0.00  0.00    +0.000 A 
ATOM     32  O   UNL     1      52.342   6.652  17.759  0.00  0.00    +0.000 OA
ATOM     33  C   UNL     1      51.533   4.430  17.652  0.00  0.00    +0.000 A 
ATOM     34  H   UNL     1      54.487   5.652  18.412  0.00  0.00    +0.000 HD
ENDBRANCH  21  24
ENDBRANCH  19  20
ENDBRANCH   4  19
TORSDOF 6
ENDMDL
MODEL 7
REMARK VINA RESULT:    -6.821      5.116     10.235
REMARK INTER + INTRA:         -10.352
REMARK INTER:                  -9.279
REMARK INTRA:                  -1.073
REMARK UNBOUND:                -1.138
REMARK  Name = 
REMARK  7 active torsions:
REMARK  status: ('A' for Active; 'I' for Inactive)
REMARK    1  A    between atoms: C_1  and  C_2
REMARK    2  A    between atoms: C_6  and  C_7
REMARK    3  A    between atoms: N_9  and  C_10
REMARK    4  A    between atoms: C_10  and  C_11
REMARK    5  A    between atoms: C_14  and  C_15
REMARK    6  A    between atoms: C_15  and  N_16
REMARK    7  A    between atoms: C_17  and  C_19
REMARK                            x       y       z     vdW  Elec       q    Type
REMARK                         _______ _______ _______ _____ _____    ______ ____
ROOT
ATOM      1  C   UNL     1      51.741   2.866  17.732  0.00  0.00    +0.000 A 
ATOM      2  C   UNL     1      51.133   4.068  18.121  0.00  0.00    +0.000 A 
ATOM      3  C   UNL     1      49.760   4.283  17.919  0.00  0.00    +0.000 A 
ATOM      4  C   UNL     1      48.953   3.294  17.343  0.00  0.00    +0.000 A 
ATOM      5  C   UNL     1      49.564   2.102  16.930  0.00  0.00    +0.000 A 
ATOM      6  C   UNL     1      50.936   1.884  17.137  0.00  0.00    +0.000 A 
ENDROOT
BRANCH   1   7
ATOM      7  C   UNL     1      53.227   2.653  17.920  0.00  0.00    +0.000 C 
BRANCH   7  10
ATOM      8  C   UNL     1      54.114   0.355  18.184  0.00  0.00    +0.000 C 
ATOM      9  O   UNL     1      54.366   0.219  16.994  0.00  0.00    +0.000 OA
ATOM     10  N   UNL     1      53.549   1.499  18.725  0.00  0.00    +0.000 N 
ATOM     11  H   UNL     1      53.407   1.507  19.730  0.00  0.00    +0.000 HD
BRANCH   8  17
ATOM     12  C   UNL     1      52.849  -3.971  19.984  0.00  0.00    +0.000 C 
ATOM     13  C   UNL     1      53.793  -2.808  20.033  0.00  0.00    +0.000 A 
ATOM     14  C   UNL     1      54.848  -2.780  20.942  0.00  0.00    +0.000 A 
ATOM     15  C   UNL     1      55.696  -1.677  20.955  0.00  0.00    +0.000 A 
ATOM     16  C   UNL     1      55.473  -0.635  20.061  0.00  0.00    +0.000 A 
ATOM     17  C   UNL     1      54.402  -0.738  19.181  0.00  0.00    +0.000 A 
ATOM     18  N   UNL     1      53.555  -1.805  19.152  0.00  0.00    +0.000 NA
ENDBRANCH   8  17
ENDBRANCH   7  10
ENDBRANCH   1   7
BRANCH   4  19
ATOM     19  C   UNL     1      47.464   3.503  17.189  0.00  0.00    +0.000 C 
BRANCH  19  20
ATOM     20  N   UNL     1      47.143   4.483  16.180  0.00  0.00    +0.000 N 
ATOM     21  C   UNL     1      47.146   4.165  14.842  0.00  0.00    +0.000 C 
ATOM     22  O   UNL     1      47.361   3.024  14.440  0.00  0.00    +0.000 OA
ATOM     23  H   UNL     1      47.194   5.458  16.457  0.00  0.00    +0.000 HD
BRANCH  21  24
ATOM     24  C   UNL     1      46.821   5.254  13.911  0.00  0.00    +0.000 A 
ATOM     25  C   UNL     1      45.662   5.199  13.146  0.00  0.00    +0.000 A 
ATOM     26  S   UNL     1      45.439   6.563  12.145  0.00  0.00    +0.000 S 
ATOM     27  C   UNL     1      46.902   7.256  12.667  0.00  0.00    +0.000 A 
ATOM     28  N   UNL     1      47.332   8.447  12.169  0.00  0.00    +0.000 NA
ATOM     29  C   UNL     1      48.465   8.845  12.647  0.00  0.00    +0.000 A 
ATOM     30  N   UNL     1      49.203   8.165  13.577  0.00  0.00    +0.000 N 
ATOM     31  C   UNL     1      48.799   6.971  14.124  0.00  0.00    +0.000 A 
ATOM     32  O   UNL     1      49.463   6.410  14.988  0.00  0.00    +0.000 OA
ATOM     33  C   UNL     1      47.538   6.469  13.612  0.00  0.00    +0.000 A 
ATOM     34  H   UNL     1      50.073   8.538  13.927  0.00  0.00    +0.000 HD
ENDBRANCH  21  24
ENDBRANCH  19  20
ENDBRANCH   4  19
TORSDOF 6
ENDMDL
MODEL 8
REMARK VINA RESULT:    -6.800      4.313      8.766
REMARK INTER + INTRA:         -10.323
REMARK INTER:                  -9.180
REMARK INTRA:                  -1.142
REMARK UNBOUND:                -1.138
REMARK  Name = 
REMARK  7 active torsions:
REMARK  status: ('A' for Active; 'I' for Inactive)
REMARK    1  A    between atoms: C_1  and  C_2
REMARK    2  A    between atoms: C_6  and  C_7
REMARK    3  A    between atoms: N_9  and  C_10
REMARK    4  A    between atoms: C_10  and  C_11
REMARK    5  A    between atoms: C_14  and  C_15
REMARK    6  A    between atoms: C_15  and  N_16
REMARK    7  A    between atoms: C_17  and  C_19
REMARK                            x       y       z     vdW  Elec       q    Type
REMARK                         _______ _______ _______ _____ _____    ______ ____
ROOT
ATOM      1  C   UNL     1      49.784   4.695  17.693  0.00  0.00    +0.000 A 
ATOM      2  C   UNL     1      50.506   5.809  17.241  0.00  0.00    +0.000 A 
ATOM      3  C   UNL     1      50.005   6.630  16.218  0.00  0.00    +0.000 A 
ATOM      4  C   UNL     1      48.758   6.373  15.634  0.00  0.00    +0.000 A 
ATOM      5  C   UNL     1      48.046   5.245  16.067  0.00  0.00    +0.000 A 
ATOM      6  C   UNL     1      48.545   4.427  17.095  0.00  0.00    +0.000 A 
ENDROOT
BRANCH   1   7
ATOM      7  C   UNL     1      50.345   3.794  18.771  0.00  0.00    +0.000 C 
BRANCH   7  10
ATOM      8  C   UNL     1      51.792   2.056  17.758  0.00  0.00    +0.000 C 
ATOM      9  O   UNL     1      50.853   1.368  17.381  0.00  0.00    +0.000 OA
ATOM     10  N   UNL     1      51.643   3.247  18.450  0.00  0.00    +0.000 N 
ATOM     11  H   UNL     1      52.494   3.746  18.692  0.00  0.00    +0.000 HD
BRANCH   8  17
ATOM     12  C   UNL     1      54.857  -1.396  16.262  0.00  0.00    +0.000 C 
ATOM     13  C   UNL     1      54.678   0.001  16.774  0.00  0.00    +0.000 A 
ATOM     14  C   UNL     1      55.775   0.835  16.972  0.00  0.00    +0.000 A 
ATOM     15  C   UNL     1      55.562   2.124  17.456  0.00  0.00    +0.000 A 
ATOM     16  C   UNL     1      54.263   2.545  17.723  0.00  0.00    +0.000 A 
ATOM     17  C   UNL     1      53.220   1.655  17.495  0.00  0.00    +0.000 A 
ATOM     18  N   UNL     1      53.404   0.388  17.027  0.00  0.00    +0.000 NA
ENDBRANCH   8  17
ENDBRANCH   7  10
ENDBRANCH   1   7
BRANCH   4  19
ATOM     19  C   UNL     1      48.192   7.297  14.580  0.00  0.00    +0.000 C 
BRANCH  19  20
ATOM     20  N   UNL     1      46.989   6.779  13.976  0.00  0.00    +0.000 N 
ATOM     21  C   UNL     1      46.724   6.954  12.638  0.00  0.00    +0.000 C 
ATOM     22  O   UNL     1      47.518   7.504  11.878  0.00  0.00    +0.000 OA
ATOM     23  H   UNL     1      46.230   6.537  14.603  0.00  0.00    +0.000 HD
BRANCH  21  24
ATOM     24  C   UNL     1      45.458   6.395  12.144  0.00  0.00    +0.000 A 
ATOM     25  C   UNL     1      44.506   7.225  11.563  0.00  0.00    +0.000 A 
ATOM     26  S   UNL     1      43.114   6.395  11.026  0.00  0.00    +0.000 S 
ATOM     27  C   UNL     1      43.715   4.907  11.589  0.00  0.00    +0.000 A 
ATOM     28  N   UNL     1      42.988   3.763  11.463  0.00  0.00    +0.000 NA
ATOM     29  C   UNL     1      43.563   2.711  11.946  0.00  0.00    +0.000 A 
ATOM     30  N   UNL     1      44.797   2.698  12.537  0.00  0.00    +0.000 N 
ATOM     31  C   UNL     1      45.576   3.823  12.668  0.00  0.00    +0.000 A 
ATOM     32  O   UNL     1      46.696   3.767  13.163  0.00  0.00    +0.000 OA
ATOM     33  C   UNL     1      44.972   5.037  12.154  0.00  0.00    +0.000 A 
ATOM     34  H   UNL     1      45.202   1.840  12.878  0.00  0.00    +0.000 HD
ENDBRANCH  21  24
ENDBRANCH  19  20
ENDBRANCH   4  19
TORSDOF 6
ENDMDL
MODEL 9
REMARK VINA RESULT:    -6.445      2.581      3.990
REMARK INTER + INTRA:          -9.844
REMARK INTER:                  -9.090
REMARK INTRA:                  -0.754
REMARK UNBOUND:                -1.138
REMARK  Name = 
REMARK  7 active torsions:
REMARK  status: ('A' for Active; 'I' for Inactive)
REMARK    1  A    between atoms: C_1  and  C_2
REMARK    2  A    between atoms: C_6  and  C_7
REMARK    3  A    between atoms: N_9  and  C_10
REMARK    4  A    between atoms: C_10  and  C_11
REMARK    5  A    between atoms: C_14  and  C_15
REMARK    6  A    between atoms: C_15  and  N_16
REMARK    7  A    between atoms: C_17  and  C_19
REMARK                            x       y       z     vdW  Elec       q    Type
REMARK                         _______ _______ _______ _____ _____    ______ ____
ROOT
ATOM      1  C   UNL     1      48.023   7.646  13.744  0.00  0.00    +0.000 A 
ATOM      2  C   UNL     1      48.196   8.786  14.542  0.00  0.00    +0.000 A 
ATOM      3  C   UNL     1      48.553   8.676  15.896  0.00  0.00    +0.000 A 
ATOM      4  C   UNL     1      48.770   7.422  16.483  0.00  0.00    +0.000 A 
ATOM      5  C   UNL     1      48.572   6.281  15.694  0.00  0.00    +0.000 A 
ATOM      6  C   UNL     1      48.220   6.392  14.338  0.00  0.00    +0.000 A 
ENDROOT
BRANCH   1   7
ATOM      7  C   UNL     1      47.603   7.770  12.297  0.00  0.00    +0.000 C 
BRANCH   7  10
ATOM      8  C   UNL     1      45.639   6.593  11.352  0.00  0.00    +0.000 C 
ATOM      9  O   UNL     1      44.915   7.578  11.395  0.00  0.00    +0.000 OA
ATOM     10  N   UNL     1      46.957   6.587  11.778  0.00  0.00    +0.000 N 
ATOM     11  H   UNL     1      47.469   5.717  11.671  0.00  0.00    +0.000 HD
BRANCH   8  17
ATOM     12  C   UNL     1      45.585   3.431   7.670  0.00  0.00    +0.000 C 
ATOM     13  C   UNL     1      45.127   3.765   9.057  0.00  0.00    +0.000 A 
ATOM     14  C   UNL     1      44.309   2.891   9.770  0.00  0.00    +0.000 A 
ATOM     15  C   UNL     1      43.902   3.245  11.054  0.00  0.00    +0.000 A 
ATOM     16  C   UNL     1      44.324   4.456  11.592  0.00  0.00    +0.000 A 
ATOM     17  C   UNL     1      45.143   5.272  10.820  0.00  0.00    +0.000 A 
ATOM     18  N   UNL     1      45.550   4.950   9.560  0.00  0.00    +0.000 NA
ENDBRANCH   8  17
ENDBRANCH   7  10
ENDBRANCH   1   7
BRANCH   4  19
ATOM     19  C   UNL     1      49.219   7.310  17.922  0.00  0.00    +0.000 C 
BRANCH  19  20
ATOM     20  N   UNL     1      50.073   6.170  18.149  0.00  0.00    +0.000 N 
ATOM     21  C   UNL     1      51.400   6.183  17.786  0.00  0.00    +0.000 C 
ATOM     22  O   UNL     1      51.940   7.178  17.309  0.00  0.00    +0.000 OA
ATOM     23  H   UNL     1      49.615   5.281  18.317  0.00  0.00    +0.000 HD
BRANCH  21  24
ATOM     24  C   UNL     1      52.162   4.955  18.053  0.00  0.00    +0.000 A 
ATOM     25  C   UNL     1      53.444   5.028  18.583  0.00  0.00    +0.000 A 
ATOM     26  S   UNL     1      54.160   3.501  18.848  0.00  0.00    +0.000 S 
ATOM     27  C   UNL     1      52.800   2.691  18.227  0.00  0.00    +0.000 A 
ATOM     28  N   UNL     1      52.768   1.334  18.144  0.00  0.00    +0.000 NA
ATOM     29  C   UNL     1      51.677   0.857  17.641  0.00  0.00    +0.000 A 
ATOM     30  N   UNL     1      50.617   1.612  17.218  0.00  0.00    +0.000 N 
ATOM     31  C   UNL     1      50.595   2.983  17.301  0.00  0.00    +0.000 A 
ATOM     32  O   UNL     1      49.611   3.626  16.954  0.00  0.00    +0.000 OA
ATOM     33  C   UNL     1      51.803   3.573  17.847  0.00  0.00    +0.000 A 
ATOM     34  H   UNL     1      49.783   1.180  16.851  0.00  0.00    +0.000 HD
ENDBRANCH  21  24
ENDBRANCH  19  20
ENDBRANCH   4  19
TORSDOF 6
ENDMDL
